MODEL 1
REMARK VINA RESULT:      -8.5      0.000      0.000
REMARK  Name = 
REMARK  8 active torsions:
REMARK  status: ('A' for Active; 'I' for Inactive)
REMARK    1  A    between atoms: C_1  and  C_2
REMARK    2  A    between atoms: C_2  and  C_3
REMARK    3  A    between atoms: C_3  and  C_4
REMARK    4  A    between atoms: C_4  and  C_5
REMARK    5  A    between atoms: C_11  and  C_13
REMARK    6  A    between atoms: C_16  and  N_17
REMARK    7  A    between atoms: N_17  and  C_18
REMARK    8  A    between atoms: C_21  and  C_22
REMARK                            x       y       z     vdW  Elec       q    Type
REMARK                         _______ _______ _______ _____ _____    ______ ____
ROOT
ATOM      1  C   UNL     1       2.447   7.406  18.947  0.00  0.00    +0.000 A 
ATOM      2  C   UNL     1       2.534   8.138  17.783  0.00  0.00    +0.000 A 
ATOM      3  N   UNL     1       1.865   9.282  17.548  0.00  0.00    +0.000 NA
ATOM      4  C   UNL     1       1.132   9.805  18.549  0.00  0.00    +0.000 A 
ATOM      5  C   UNL     1       1.161   9.240  19.832  0.00  0.00    +0.000 A 
ATOM      6 CL   UNL     1       0.354   9.987  21.165  0.00  0.00    +0.000 Cl
ATOM      7  C   UNL     1       1.817   8.020  20.030  0.00  0.00    +0.000 A 
ENDROOT
BRANCH   1  14
ATOM      8  C   UNL     1       4.784   4.377  18.277  0.00  0.00    +0.000 C 
ATOM      9  C   UNL     1       6.172   4.811  18.788  0.00  0.00    +0.000 C 
ATOM     10  C   UNL     1       6.841   5.773  17.793  0.00  0.00    +0.000 C 
ATOM     11  C   UNL     1       5.918   6.926  17.401  0.00  0.00    +0.000 C 
ATOM     12  C   UNL     1       4.523   6.426  16.998  0.00  0.00    +0.000 C 
ATOM     13  N   UNL     1       3.970   5.599  18.082  0.00  0.00    +0.000 N 
ATOM     14  C   UNL     1       3.076   6.069  19.068  0.00  0.00    +0.000 C 
ATOM     15  O   UNL     1       2.725   5.422  20.052  0.00  0.00    +0.000 OA
BRANCH   8  16
ATOM     16  C   UNL     1       4.209   3.221  19.111  0.00  0.00    +0.000 C 
BRANCH  16  17
ATOM     17  C   UNL     1       3.604   2.111  18.247  0.00  0.00    +0.000 C 
BRANCH  17  19
ATOM     18  C   UNL     1       1.190   2.457  18.870  0.00  0.00    +0.000 C 
ATOM     19  C   UNL     1       2.214   2.501  17.747  0.00  0.00    +0.000 C 
ENDBRANCH  17  19
ENDBRANCH  16  17
ENDBRANCH   8  16
ENDBRANCH   1  14
BRANCH   4  20
ATOM     20  N   UNL     1       0.262  10.850  18.223  0.00  0.00    +0.000 N 
ATOM     21  H   UNL     1       0.709  11.649  17.799  0.00  0.00    +0.000 HD
BRANCH  20  22
ATOM     22  C   UNL     1      -1.144  10.817  18.188  0.00  0.00    +0.000 A 
ATOM     23  C   UNL     1      -1.802   9.921  17.345  0.00  0.00    +0.000 A 
ATOM     24  C   UNL     1      -3.194   9.982  17.193  0.00  0.00    +0.000 A 
ATOM     25  C   UNL     1      -3.911  10.951  17.887  0.00  0.00    +0.000 A 
ATOM     26  C   UNL     1      -5.379  11.146  17.662  0.00  0.00    +0.000 C 
ATOM     27  N   UNL     1      -3.315  11.797  18.755  0.00  0.00    +0.000 NA
ATOM     28  C   UNL     1      -1.964  11.704  18.885  0.00  0.00    +0.000 A 
ENDBRANCH  20  22
ENDBRANCH   4  20
TORSDOF 6
ENDMDL
MODEL 2
REMARK VINA RESULT:      -8.2      1.678      2.865
REMARK  Name = 
REMARK  8 active torsions:
REMARK  status: ('A' for Active; 'I' for Inactive)
REMARK    1  A    between atoms: C_1  and  C_2
REMARK    2  A    between atoms: C_2  and  C_3
REMARK    3  A    between atoms: C_3  and  C_4
REMARK    4  A    between atoms: C_4  and  C_5
REMARK    5  A    between atoms: C_11  and  C_13
REMARK    6  A    between atoms: C_16  and  N_17
REMARK    7  A    between atoms: N_17  and  C_18
REMARK    8  A    between atoms: C_21  and  C_22
REMARK                            x       y       z     vdW  Elec       q    Type
REMARK                         _______ _______ _______ _____ _____    ______ ____
ROOT
ATOM      1  C   UNL     1       2.672   7.747  18.514  0.00  0.00    +0.000 A 
ATOM      2  C   UNL     1       2.534   8.930  17.819  0.00  0.00    +0.000 A 
ATOM      3  N   UNL     1       1.701   9.928  18.167  0.00  0.00    +0.000 NA
ATOM      4  C   UNL     1       1.021   9.812  19.324  0.00  0.00    +0.000 A 
ATOM      5  C   UNL     1       1.265   8.742  20.197  0.00  0.00    +0.000 A 
ATOM      6 CL   UNL     1       0.519   8.660  21.753  0.00  0.00    +0.000 Cl
ATOM      7  C   UNL     1       2.091   7.691  19.780  0.00  0.00    +0.000 A 
ENDROOT
BRANCH   1  14
ATOM      8  C   UNL     1       4.062   4.163  17.960  0.00  0.00    +0.000 C 
ATOM      9  C   UNL     1       2.949   3.404  17.212  0.00  0.00    +0.000 C 
ATOM     10  C   UNL     1       1.818   3.007  18.174  0.00  0.00    +0.000 C 
ATOM     11  C   UNL     1       1.331   4.193  19.007  0.00  0.00    +0.000 C 
ATOM     12  C   UNL     1       2.500   4.960  19.642  0.00  0.00    +0.000 C 
ATOM     13  N   UNL     1       3.452   5.356  18.593  0.00  0.00    +0.000 N 
ATOM     14  C   UNL     1       3.479   6.626  17.977  0.00  0.00    +0.000 C 
ATOM     15  O   UNL     1       4.176   6.912  17.006  0.00  0.00    +0.000 OA
BRANCH   8  16
ATOM     16  C   UNL     1       5.314   4.338  17.087  0.00  0.00    +0.000 C 
BRANCH  16  17
ATOM     17  C   UNL     1       5.127   3.798  15.666  0.00  0.00    +0.000 C 
BRANCH  17  19
ATOM     18  C   UNL     1       6.133   3.828  13.360  0.00  0.00    +0.000 C 
ATOM     19  C   UNL     1       5.963   4.591  14.663  0.00  0.00    +0.000 C 
ENDBRANCH  17  19
ENDBRANCH  16  17
ENDBRANCH   8  16
ENDBRANCH   1  14
BRANCH   4  20
ATOM     20  N   UNL     1      -0.008  10.731  19.553  0.00  0.00    +0.000 N 
ATOM     21  H   UNL     1       0.267  11.541  20.085  0.00  0.00    +0.000 HD
BRANCH  20  22
ATOM     22  C   UNL     1      -1.272  10.775  18.935  0.00  0.00    +0.000 A 
ATOM     23  C   UNL     1      -1.544   9.958  17.838  0.00  0.00    +0.000 A 
ATOM     24  C   UNL     1      -2.742  10.102  17.126  0.00  0.00    +0.000 A 
ATOM     25  C   UNL     1      -3.654  11.074  17.523  0.00  0.00    +0.000 A 
ATOM     26  C   UNL     1      -4.888  11.359  16.722  0.00  0.00    +0.000 C 
ATOM     27  N   UNL     1      -3.452  11.844  18.614  0.00  0.00    +0.000 NA
ATOM     28  C   UNL     1      -2.282  11.671  19.286  0.00  0.00    +0.000 A 
ENDBRANCH  20  22
ENDBRANCH   4  20
TORSDOF 6
ENDMDL
MODEL 3
REMARK VINA RESULT:      -8.0      1.130      2.950
REMARK  Name = 
REMARK  8 active torsions:
REMARK  status: ('A' for Active; 'I' for Inactive)
REMARK    1  A    between atoms: C_1  and  C_2
REMARK    2  A    between atoms: C_2  and  C_3
REMARK    3  A    between atoms: C_3  and  C_4
REMARK    4  A    between atoms: C_4  and  C_5
REMARK    5  A    between atoms: C_11  and  C_13
REMARK    6  A    between atoms: C_16  and  N_17
REMARK    7  A    between atoms: N_17  and  C_18
REMARK    8  A    between atoms: C_21  and  C_22
REMARK                            x       y       z     vdW  Elec       q    Type
REMARK                         _______ _______ _______ _____ _____    ______ ____
ROOT
ATOM      1  C   UNL     1       2.430   7.708  18.742  0.00  0.00    +0.000 A 
ATOM      2  C   UNL     1       2.338   8.828  17.942  0.00  0.00    +0.000 A 
ATOM      3  N   UNL     1       1.574   9.901  18.215  0.00  0.00    +0.000 NA
ATOM      4  C   UNL     1       0.925   9.934  19.394  0.00  0.00    +0.000 A 
ATOM      5  C   UNL     1       1.134   8.938  20.358  0.00  0.00    +0.000 A 
ATOM      6 CL   UNL     1       0.433   9.046  21.933  0.00  0.00    +0.000 Cl
ATOM      7  C   UNL     1       1.886   7.806  20.022  0.00  0.00    +0.000 A 
ENDROOT
BRANCH   1  14
ATOM      8  C   UNL     1       3.717   4.047  18.597  0.00  0.00    +0.000 C 
ATOM      9  C   UNL     1       2.513   3.209  18.126  0.00  0.00    +0.000 C 
ATOM     10  C   UNL     1       1.513   2.998  19.275  0.00  0.00    +0.000 C 
ATOM     11  C   UNL     1       1.143   4.313  19.962  0.00  0.00    +0.000 C 
ATOM     12  C   UNL     1       2.389   5.139  20.313  0.00  0.00    +0.000 C 
ATOM     13  N   UNL     1       3.200   5.340  19.103  0.00  0.00    +0.000 N 
ATOM     14  C   UNL     1       3.155   6.496  18.294  0.00  0.00    +0.000 C 
ATOM     15  O   UNL     1       3.723   6.607  17.210  0.00  0.00    +0.000 OA
BRANCH   8  16
ATOM     16  C   UNL     1       4.848   4.049  17.557  0.00  0.00    +0.000 C 
BRANCH  16  17
ATOM     17  C   UNL     1       6.197   4.469  18.149  0.00  0.00    +0.000 C 
BRANCH  17  19
ATOM     18  C   UNL     1       7.351   6.645  17.630  0.00  0.00    +0.000 C 
ATOM     19  C   UNL     1       7.025   5.248  17.128  0.00  0.00    +0.000 C 
ENDBRANCH  17  19
ENDBRANCH  16  17
ENDBRANCH   8  16
ENDBRANCH   1  14
BRANCH   4  20
ATOM     20  N   UNL     1      -0.042  10.930  19.560  0.00  0.00    +0.000 N 
ATOM     21  H   UNL     1       0.314  11.803  19.918  0.00  0.00    +0.000 HD
BRANCH  20  22
ATOM     22  C   UNL     1      -1.361  10.936  19.069  0.00  0.00    +0.000 A 
ATOM     23  C   UNL     1      -1.737  10.046  18.063  0.00  0.00    +0.000 A 
ATOM     24  C   UNL     1      -3.000  10.145  17.465  0.00  0.00    +0.000 A 
ATOM     25  C   UNL     1      -3.872  11.145  17.881  0.00  0.00    +0.000 A 
ATOM     26  C   UNL     1      -5.180  11.378  17.188  0.00  0.00    +0.000 C 
ATOM     27  N   UNL     1      -3.566  11.988  18.890  0.00  0.00    +0.000 NA
ATOM     28  C   UNL     1      -2.334  11.858  19.454  0.00  0.00    +0.000 A 
ENDBRANCH  20  22
ENDBRANCH   4  20
TORSDOF 6
ENDMDL
MODEL 4
REMARK VINA RESULT:      -7.8      2.481      3.896
REMARK  Name = 
REMARK  8 active torsions:
REMARK  status: ('A' for Active; 'I' for Inactive)
REMARK    1  A    between atoms: C_1  and  C_2
REMARK    2  A    between atoms: C_2  and  C_3
REMARK    3  A    between atoms: C_3  and  C_4
REMARK    4  A    between atoms: C_4  and  C_5
REMARK    5  A    between atoms: C_11  and  C_13
REMARK    6  A    between atoms: C_16  and  N_17
REMARK    7  A    between atoms: N_17  and  C_18
REMARK    8  A    between atoms: C_21  and  C_22
REMARK                            x       y       z     vdW  Elec       q    Type
REMARK                         _______ _______ _______ _____ _____    ______ ____
ROOT
ATOM      1  C   UNL     1       2.622   7.661  18.520  0.00  0.00    +0.000 A 
ATOM      2  C   UNL     1       2.265   8.751  17.755  0.00  0.00    +0.000 A 
ATOM      3  N   UNL     1       1.348   9.669  18.113  0.00  0.00    +0.000 NA
ATOM      4  C   UNL     1       0.806   9.577  19.342  0.00  0.00    +0.000 A 
ATOM      5  C   UNL     1       1.270   8.627  20.264  0.00  0.00    +0.000 A 
ATOM      6 CL   UNL     1       0.697   8.598  21.893  0.00  0.00    +0.000 Cl
ATOM      7  C   UNL     1       2.180   7.651  19.843  0.00  0.00    +0.000 A 
ENDROOT
BRANCH   1  14
ATOM      8  C   UNL     1       4.217   4.172  17.916  0.00  0.00    +0.000 C 
ATOM      9  C   UNL     1       3.182   3.388  17.086  0.00  0.00    +0.000 C 
ATOM     10  C   UNL     1       2.026   2.901  17.975  0.00  0.00    +0.000 C 
ATOM     11  C   UNL     1       1.439   4.030  18.822  0.00  0.00    +0.000 C 
ATOM     12  C   UNL     1       2.535   4.829  19.542  0.00  0.00    +0.000 C 
ATOM     13  N   UNL     1       3.516   5.310  18.557  0.00  0.00    +0.000 N 
ATOM     14  C   UNL     1       3.510   6.601  17.987  0.00  0.00    +0.000 C 
ATOM     15  O   UNL     1       4.239   6.957  17.064  0.00  0.00    +0.000 OA
BRANCH   8  16
ATOM     16  C   UNL     1       5.500   4.439  17.115  0.00  0.00    +0.000 C 
BRANCH  16  17
ATOM     17  C   UNL     1       5.560   3.644  15.808  0.00  0.00    +0.000 C 
BRANCH  17  19
ATOM     18  C   UNL     1       6.113   3.808  13.358  0.00  0.00    +0.000 C 
ATOM     19  C   UNL     1       5.706   4.575  14.605  0.00  0.00    +0.000 C 
ENDBRANCH  17  19
ENDBRANCH  16  17
ENDBRANCH   8  16
ENDBRANCH   1  14
BRANCH   4  20
ATOM     20  N   UNL     1      -0.306  10.382  19.609  0.00  0.00    +0.000 N 
ATOM     21  H   UNL     1      -1.176  10.029  19.241  0.00  0.00    +0.000 HD
BRANCH  20  22
ATOM     22  C   UNL     1      -0.389  11.458  20.513  0.00  0.00    +0.000 A 
ATOM     23  C   UNL     1      -1.633  11.912  20.949  0.00  0.00    +0.000 A 
ATOM     24  C   UNL     1      -1.732  13.072  21.728  0.00  0.00    +0.000 A 
ATOM     25  C   UNL     1      -0.575  13.770  22.057  0.00  0.00    +0.000 A 
ATOM     26  C   UNL     1      -0.633  15.083  22.775  0.00  0.00    +0.000 C 
ATOM     27  N   UNL     1       0.652  13.329  21.703  0.00  0.00    +0.000 NA
ATOM     28  C   UNL     1       0.711  12.195  20.954  0.00  0.00    +0.000 A 
ENDBRANCH  20  22
ENDBRANCH   4  20
TORSDOF 6
ENDMDL
MODEL 5
REMARK VINA RESULT:      -7.7      2.377      3.833
REMARK  Name = 
REMARK  8 active torsions:
REMARK  status: ('A' for Active; 'I' for Inactive)
REMARK    1  A    between atoms: C_1  and  C_2
REMARK    2  A    between atoms: C_2  and  C_3
REMARK    3  A    between atoms: C_3  and  C_4
REMARK    4  A    between atoms: C_4  and  C_5
REMARK    5  A    between atoms: C_11  and  C_13
REMARK    6  A    between atoms: C_16  and  N_17
REMARK    7  A    between atoms: N_17  and  C_18
REMARK    8  A    between atoms: C_21  and  C_22
REMARK                            x       y       z     vdW  Elec       q    Type
REMARK                         _______ _______ _______ _____ _____    ______ ____
ROOT
ATOM      1  C   UNL     1       2.534   7.619  18.552  0.00  0.00    +0.000 A 
ATOM      2  C   UNL     1       2.163   8.678  17.752  0.00  0.00    +0.000 A 
ATOM      3  N   UNL     1       1.265   9.619  18.097  0.00  0.00    +0.000 NA
ATOM      4  C   UNL     1       0.759   9.585  19.344  0.00  0.00    +0.000 A 
ATOM      5  C   UNL     1       1.243   8.671  20.292  0.00  0.00    +0.000 A 
ATOM      6 CL   UNL     1       0.719   8.716  21.937  0.00  0.00    +0.000 Cl
ATOM      7  C   UNL     1       2.132   7.669  19.886  0.00  0.00    +0.000 A 
ENDROOT
BRANCH   1  14
ATOM      8  C   UNL     1       4.059   4.085  18.027  0.00  0.00    +0.000 C 
ATOM      9  C   UNL     1       3.001   3.298  17.229  0.00  0.00    +0.000 C 
ATOM     10  C   UNL     1       1.847   2.857  18.143  0.00  0.00    +0.000 C 
ATOM     11  C   UNL     1       1.289   4.019  18.964  0.00  0.00    +0.000 C 
ATOM     12  C   UNL     1       2.407   4.817  19.651  0.00  0.00    +0.000 C 
ATOM     13  N   UNL     1       3.386   5.253  18.644  0.00  0.00    +0.000 N 
ATOM     14  C   UNL     1       3.397   6.528  18.039  0.00  0.00    +0.000 C 
ATOM     15  O   UNL     1       4.123   6.845  17.099  0.00  0.00    +0.000 OA
BRANCH   8  16
ATOM     16  C   UNL     1       5.339   4.307  17.206  0.00  0.00    +0.000 C 
BRANCH  16  17
ATOM     17  C   UNL     1       5.142   4.024  15.714  0.00  0.00    +0.000 C 
BRANCH  17  19
ATOM     18  C   UNL     1       6.289   3.865  13.479  0.00  0.00    +0.000 C 
ATOM     19  C   UNL     1       6.426   4.293  14.931  0.00  0.00    +0.000 C 
ENDBRANCH  17  19
ENDBRANCH  16  17
ENDBRANCH   8  16
ENDBRANCH   1  14
BRANCH   4  20
ATOM     20  N   UNL     1      -0.337  10.411  19.609  0.00  0.00    +0.000 N 
ATOM     21  H   UNL     1      -1.196   9.918  19.799  0.00  0.00    +0.000 HD
BRANCH  20  22
ATOM     22  C   UNL     1      -0.325  11.793  19.880  0.00  0.00    +0.000 A 
ATOM     23  C   UNL     1      -0.598  12.707  18.863  0.00  0.00    +0.000 A 
ATOM     24  C   UNL     1      -0.442  14.082  19.085  0.00  0.00    +0.000 A 
ATOM     25  C   UNL     1      -0.005  14.524  20.329  0.00  0.00    +0.000 A 
ATOM     26  C   UNL     1       0.303  15.968  20.580  0.00  0.00    +0.000 C 
ATOM     27  N   UNL     1       0.213  13.672  21.355  0.00  0.00    +0.000 NA
ATOM     28  C   UNL     1       0.044  12.346  21.106  0.00  0.00    +0.000 A 
ENDBRANCH  20  22
ENDBRANCH   4  20
TORSDOF 6
ENDMDL
MODEL 6
REMARK VINA RESULT:      -7.7      2.648      3.904
REMARK  Name = 
REMARK  8 active torsions:
REMARK  status: ('A' for Active; 'I' for Inactive)
REMARK    1  A    between atoms: C_1  and  C_2
REMARK    2  A    between atoms: C_2  and  C_3
REMARK    3  A    between atoms: C_3  and  C_4
REMARK    4  A    between atoms: C_4  and  C_5
REMARK    5  A    between atoms: C_11  and  C_13
REMARK    6  A    between atoms: C_16  and  N_17
REMARK    7  A    between atoms: N_17  and  C_18
REMARK    8  A    between atoms: C_21  and  C_22
REMARK                            x       y       z     vdW  Elec       q    Type
REMARK                         _______ _______ _______ _____ _____    ______ ____
ROOT
ATOM      1  C   UNL     1       2.085   7.759  19.623  0.00  0.00    +0.000 A 
ATOM      2  C   UNL     1       1.626   7.732  20.923  0.00  0.00    +0.000 A 
ATOM      3  N   UNL     1       1.022   8.762  21.542  0.00  0.00    +0.000 NA
ATOM      4  C   UNL     1       0.758   9.868  20.821  0.00  0.00    +0.000 A 
ATOM      5  C   UNL     1       0.995   9.899  19.439  0.00  0.00    +0.000 A 
ATOM      6 CL   UNL     1       0.518  11.249  18.472  0.00  0.00    +0.000 Cl
ATOM      7  C   UNL     1       1.678   8.836  18.837  0.00  0.00    +0.000 A 
ENDROOT
BRANCH   1  14
ATOM      8  C   UNL     1       3.524   4.198  19.049  0.00  0.00    +0.000 C 
ATOM      9  C   UNL     1       2.399   3.410  18.351  0.00  0.00    +0.000 C 
ATOM     10  C   UNL     1       1.314   3.000  19.360  0.00  0.00    +0.000 C 
ATOM     11  C   UNL     1       0.835   4.185  20.200  0.00  0.00    +0.000 C 
ATOM     12  C   UNL     1       2.012   4.980  20.782  0.00  0.00    +0.000 C 
ATOM     13  N   UNL     1       2.915   5.385  19.694  0.00  0.00    +0.000 N 
ATOM     14  C   UNL     1       2.893   6.649  19.066  0.00  0.00    +0.000 C 
ATOM     15  O   UNL     1       3.547   6.939  18.066  0.00  0.00    +0.000 OA
BRANCH   8  16
ATOM     16  C   UNL     1       4.738   4.389  18.127  0.00  0.00    +0.000 C 
BRANCH  16  17
ATOM     17  C   UNL     1       4.478   3.907  16.697  0.00  0.00    +0.000 C 
BRANCH  17  19
ATOM     18  C   UNL     1       5.947   3.974  14.654  0.00  0.00    +0.000 C 
ATOM     19  C   UNL     1       5.188   4.799  15.680  0.00  0.00    +0.000 C 
ENDBRANCH  17  19
ENDBRANCH  16  17
ENDBRANCH   8  16
ENDBRANCH   1  14
BRANCH   4  20
ATOM     20  N   UNL     1       0.353  11.007  21.525  0.00  0.00    +0.000 N 
ATOM     21  H   UNL     1       1.082  11.687  21.673  0.00  0.00    +0.000 HD
BRANCH  20  22
ATOM     22  C   UNL     1      -0.962  11.410  21.821  0.00  0.00    +0.000 A 
ATOM     23  C   UNL     1      -1.702  12.129  20.882  0.00  0.00    +0.000 A 
ATOM     24  C   UNL     1      -2.952  12.662  21.222  0.00  0.00    +0.000 A 
ATOM     25  C   UNL     1      -3.445  12.472  22.508  0.00  0.00    +0.000 A 
ATOM     26  C   UNL     1      -4.711  13.129  22.964  0.00  0.00    +0.000 C 
ATOM     27  N   UNL     1      -2.784  11.733  23.426  0.00  0.00    +0.000 NA
ATOM     28  C   UNL     1      -1.577  11.224  23.060  0.00  0.00    +0.000 A 
ENDBRANCH  20  22
ENDBRANCH   4  20
TORSDOF 6
ENDMDL
MODEL 7
REMARK VINA RESULT:      -7.7      1.348      2.993
REMARK  Name = 
REMARK  8 active torsions:
REMARK  status: ('A' for Active; 'I' for Inactive)
REMARK    1  A    between atoms: C_1  and  C_2
REMARK    2  A    between atoms: C_2  and  C_3
REMARK    3  A    between atoms: C_3  and  C_4
REMARK    4  A    between atoms: C_4  and  C_5
REMARK    5  A    between atoms: C_11  and  C_13
REMARK    6  A    between atoms: C_16  and  N_17
REMARK    7  A    between atoms: N_17  and  C_18
REMARK    8  A    between atoms: C_21  and  C_22
REMARK                            x       y       z     vdW  Elec       q    Type
REMARK                         _______ _______ _______ _____ _____    ______ ____
ROOT
ATOM      1  C   UNL     1       2.334   7.693  18.830  0.00  0.00    +0.000 A 
ATOM      2  C   UNL     1       2.309   8.795  18.002  0.00  0.00    +0.000 A 
ATOM      3  N   UNL     1       1.601   9.914  18.241  0.00  0.00    +0.000 NA
ATOM      4  C   UNL     1       0.944  10.011  19.412  0.00  0.00    +0.000 A 
ATOM      5  C   UNL     1       1.090   9.029  20.402  0.00  0.00    +0.000 A 
ATOM      6 CL   UNL     1       0.382   9.213  21.967  0.00  0.00    +0.000 Cl
ATOM      7  C   UNL     1       1.784   7.851  20.102  0.00  0.00    +0.000 A 
ENDROOT
BRANCH   1  14
ATOM      8  C   UNL     1       3.482   3.983  18.828  0.00  0.00    +0.000 C 
ATOM      9  C   UNL     1       2.232   3.168  18.444  0.00  0.00    +0.000 C 
ATOM     10  C   UNL     1       1.270   3.053  19.638  0.00  0.00    +0.000 C 
ATOM     11  C   UNL     1       0.974   4.414  20.269  0.00  0.00    +0.000 C 
ATOM     12  C   UNL     1       2.261   5.209  20.532  0.00  0.00    +0.000 C 
ATOM     13  N   UNL     1       3.032   5.319  19.284  0.00  0.00    +0.000 N 
ATOM     14  C   UNL     1       2.997   6.433  18.419  0.00  0.00    +0.000 C 
ATOM     15  O   UNL     1       3.527   6.468  17.310  0.00  0.00    +0.000 OA
BRANCH   8  16
ATOM     16  C   UNL     1       4.572   3.890  17.748  0.00  0.00    +0.000 C 
BRANCH  16  17
ATOM     17  C   UNL     1       5.934   4.392  18.237  0.00  0.00    +0.000 C 
BRANCH  17  19
ATOM     18  C   UNL     1       6.261   4.189  15.750  0.00  0.00    +0.000 C 
ATOM     19  C   UNL     1       6.882   4.633  17.063  0.00  0.00    +0.000 C 
ENDBRANCH  17  19
ENDBRANCH  16  17
ENDBRANCH   8  16
ENDBRANCH   1  14
BRANCH   4  20
ATOM     20  N   UNL     1       0.029  11.060  19.544  0.00  0.00    +0.000 N 
ATOM     21  H   UNL     1       0.420  11.909  19.922  0.00  0.00    +0.000 HD
BRANCH  20  22
ATOM     22  C   UNL     1      -1.265  11.145  18.998  0.00  0.00    +0.000 A 
ATOM     23  C   UNL     1      -2.185  12.057  19.515  0.00  0.00    +0.000 A 
ATOM     24  C   UNL     1      -3.517  12.045  19.079  0.00  0.00    +0.000 A 
ATOM     25  C   UNL     1      -3.912  11.109  18.130  0.00  0.00    +0.000 A 
ATOM     26  C   UNL     1      -5.348  10.967  17.726  0.00  0.00    +0.000 C 
ATOM     27  N   UNL     1      -3.037  10.250  17.564  0.00  0.00    +0.000 NA
ATOM     28  C   UNL     1      -1.751  10.294  18.004  0.00  0.00    +0.000 A 
ENDBRANCH  20  22
ENDBRANCH   4  20
TORSDOF 6
ENDMDL
MODEL 8
REMARK VINA RESULT:      -7.6      1.944      2.786
REMARK  Name = 
REMARK  8 active torsions:
REMARK  status: ('A' for Active; 'I' for Inactive)
REMARK    1  A    between atoms: C_1  and  C_2
REMARK    2  A    between atoms: C_2  and  C_3
REMARK    3  A    between atoms: C_3  and  C_4
REMARK    4  A    between atoms: C_4  and  C_5
REMARK    5  A    between atoms: C_11  and  C_13
REMARK    6  A    between atoms: C_16  and  N_17
REMARK    7  A    between atoms: N_17  and  C_18
REMARK    8  A    between atoms: C_21  and  C_22
REMARK                            x       y       z     vdW  Elec       q    Type
REMARK                         _______ _______ _______ _____ _____    ______ ____
ROOT
ATOM      1  C   UNL     1       2.538   7.378  18.899  0.00  0.00    +0.000 A 
ATOM      2  C   UNL     1       2.629   8.152  17.762  0.00  0.00    +0.000 A 
ATOM      3  N   UNL     1       1.947   9.294  17.558  0.00  0.00    +0.000 NA
ATOM      4  C   UNL     1       1.192   9.770  18.567  0.00  0.00    +0.000 A 
ATOM      5  C   UNL     1       1.212   9.160  19.830  0.00  0.00    +0.000 A 
ATOM      6 CL   UNL     1       0.376   9.847  21.176  0.00  0.00    +0.000 Cl
ATOM      7  C   UNL     1       1.884   7.943  19.993  0.00  0.00    +0.000 A 
ENDROOT
BRANCH   1  14
ATOM      8  C   UNL     1       4.897   4.391  18.122  0.00  0.00    +0.000 C 
ATOM      9  C   UNL     1       6.290   4.834  18.609  0.00  0.00    +0.000 C 
ATOM     10  C   UNL     1       6.925   5.822  17.617  0.00  0.00    +0.000 C 
ATOM     11  C   UNL     1       5.979   6.970  17.267  0.00  0.00    +0.000 C 
ATOM     12  C   UNL     1       4.582   6.459  16.886  0.00  0.00    +0.000 C 
ATOM     13  N   UNL     1       4.063   5.607  17.967  0.00  0.00    +0.000 N 
ATOM     14  C   UNL     1       3.186   6.047  18.981  0.00  0.00    +0.000 C 
ATOM     15  O   UNL     1       2.865   5.378  19.961  0.00  0.00    +0.000 OA
BRANCH   8  16
ATOM     16  C   UNL     1       4.355   3.214  18.947  0.00  0.00    +0.000 C 
BRANCH  16  17
ATOM     17  C   UNL     1       3.327   2.376  18.181  0.00  0.00    +0.000 C 
BRANCH  17  19
ATOM     18  C   UNL     1       0.881   2.660  18.704  0.00  0.00    +0.000 C 
ATOM     19  C   UNL     1       2.173   1.958  19.091  0.00  0.00    +0.000 C 
ENDBRANCH  17  19
ENDBRANCH  16  17
ENDBRANCH   8  16
ENDBRANCH   1  14
BRANCH   4  20
ATOM     20  N   UNL     1       0.311  10.813  18.265  0.00  0.00    +0.000 N 
ATOM     21  H   UNL     1      -0.638  10.520  18.090  0.00  0.00    +0.000 HD
BRANCH  20  22
ATOM     22  C   UNL     1       0.531  12.194  18.419  0.00  0.00    +0.000 A 
ATOM     23  C   UNL     1       1.829  12.684  18.562  0.00  0.00    +0.000 A 
ATOM     24  C   UNL     1       2.048  14.034  18.865  0.00  0.00    +0.000 A 
ATOM     25  C   UNL     1       0.956  14.880  19.027  0.00  0.00    +0.000 A 
ATOM     26  C   UNL     1       1.127  16.298  19.478  0.00  0.00    +0.000 C 
ATOM     27  N   UNL     1      -0.312  14.455  18.839  0.00  0.00    +0.000 NA
ATOM     28  C   UNL     1      -0.487  13.140  18.538  0.00  0.00    +0.000 A 
ENDBRANCH  20  22
ENDBRANCH   4  20
TORSDOF 6
ENDMDL
MODEL 9
REMARK VINA RESULT:      -7.6      2.290      3.827
REMARK  Name = 
REMARK  8 active torsions:
REMARK  status: ('A' for Active; 'I' for Inactive)
REMARK    1  A    between atoms: C_1  and  C_2
REMARK    2  A    between atoms: C_2  and  C_3
REMARK    3  A    between atoms: C_3  and  C_4
REMARK    4  A    between atoms: C_4  and  C_5
REMARK    5  A    between atoms: C_11  and  C_13
REMARK    6  A    between atoms: C_16  and  N_17
REMARK    7  A    between atoms: N_17  and  C_18
REMARK    8  A    between atoms: C_21  and  C_22
REMARK                            x       y       z     vdW  Elec       q    Type
REMARK                         _______ _______ _______ _____ _____    ______ ____
ROOT
ATOM      1  C   UNL     1       2.412   7.726  18.652  0.00  0.00    +0.000 A 
ATOM      2  C   UNL     1       1.931   8.720  17.825  0.00  0.00    +0.000 A 
ATOM      3  N   UNL     1       0.980   9.606  18.170  0.00  0.00    +0.000 NA
ATOM      4  C   UNL     1       0.528   9.591  19.438  0.00  0.00    +0.000 A 
ATOM      5  C   UNL     1       1.116   8.758  20.401  0.00  0.00    +0.000 A 
ATOM      6 CL   UNL     1       0.657   8.838  22.064  0.00  0.00    +0.000 Cl
ATOM      7  C   UNL     1       2.061   7.806  19.999  0.00  0.00    +0.000 A 
ENDROOT
BRANCH   1  14
ATOM      8  C   UNL     1       4.086   4.264  18.107  0.00  0.00    +0.000 C 
ATOM      9  C   UNL     1       3.088   3.458  17.253  0.00  0.00    +0.000 C 
ATOM     10  C   UNL     1       1.918   2.954  18.113  0.00  0.00    +0.000 C 
ATOM     11  C   UNL     1       1.288   4.076  18.939  0.00  0.00    +0.000 C 
ATOM     12  C   UNL     1       2.350   4.898  19.684  0.00  0.00    +0.000 C 
ATOM     13  N   UNL     1       3.348   5.392  18.724  0.00  0.00    +0.000 N 
ATOM     14  C   UNL     1       3.333   6.680  18.148  0.00  0.00    +0.000 C 
ATOM     15  O   UNL     1       4.080   7.046  17.243  0.00  0.00    +0.000 OA
BRANCH   8  16
ATOM     16  C   UNL     1       5.385   4.552  17.339  0.00  0.00    +0.000 C 
BRANCH  16  17
ATOM     17  C   UNL     1       5.408   3.907  15.950  0.00  0.00    +0.000 C 
BRANCH  17  19
ATOM     18  C   UNL     1       6.964   4.789  14.179  0.00  0.00    +0.000 C 
ATOM     19  C   UNL     1       5.616   4.959  14.861  0.00  0.00    +0.000 C 
ENDBRANCH  17  19
ENDBRANCH  16  17
ENDBRANCH   8  16
ENDBRANCH   1  14
BRANCH   4  20
ATOM     20  N   UNL     1      -0.616  10.346  19.716  0.00  0.00    +0.000 N 
ATOM     21  H   UNL     1      -1.475   9.819  19.710  0.00  0.00    +0.000 HD
BRANCH  20  22
ATOM     22  C   UNL     1      -0.676  11.654  20.231  0.00  0.00    +0.000 A 
ATOM     23  C   UNL     1       0.468  12.251  20.762  0.00  0.00    +0.000 A 
ATOM     24  C   UNL     1       0.385  13.490  21.410  0.00  0.00    +0.000 A 
ATOM     25  C   UNL     1      -0.851  14.116  21.525  0.00  0.00    +0.000 A 
ATOM     26  C   UNL     1      -1.018  15.375  22.319  0.00  0.00    +0.000 C 
ATOM     27  N   UNL     1      -1.970  13.597  20.973  0.00  0.00    +0.000 NA
ATOM     28  C   UNL     1      -1.852  12.397  20.344  0.00  0.00    +0.000 A 
ENDBRANCH  20  22
ENDBRANCH   4  20
TORSDOF 6
ENDMDL
