MODEL 1
REMARK VINA RESULT:      -8.6      0.000      0.000
REMARK  Name = 
REMARK  5 active torsions:
REMARK  status: ('A' for Active; 'I' for Inactive)
REMARK    1  A    between atoms: C_1  and  C_2
REMARK    2  A    between atoms: C_11  and  C_12
REMARK    3  A    between atoms: C_14  and  C_15
REMARK    4  A    between atoms: C_18  and  C_19
REMARK    5  A    between atoms: C_26  and  O_27
REMARK                            x       y       z     vdW  Elec       q    Type
REMARK                         _______ _______ _______ _____ _____    ______ ____
ROOT
ATOM      1  C   UNL     1       0.872  10.322  19.247  0.00  0.00    +0.000 A 
ATOM      2  N   UNL     1       1.125   8.970  19.297  0.00  0.00    +0.000 NA
ATOM      3  C   UNL     1       2.073   8.796  18.382  0.00  0.00    +0.000 A 
ATOM      4  O   UNL     1       2.445   9.955  17.735  0.00  0.00    +0.000 OA
ATOM      5  C   UNL     1       1.673  10.911  18.301  0.00  0.00    +0.000 A 
ENDROOT
BRANCH   1  16
ATOM      6  C   UNL     1      -2.105  12.907  21.523  0.00  0.00    +0.000 C 
ATOM      7  C   UNL     1      -2.347  12.191  20.233  0.00  0.00    +0.000 C 
ATOM      8  N   UNL     1      -3.439  12.362  19.527  0.00  0.00    +0.000 NA
ATOM      9  C   UNL     1      -3.261  11.574  18.369  0.00  0.00    +0.000 A 
ATOM     10  C   UNL     1      -4.171  11.456  17.333  0.00  0.00    +0.000 A 
ATOM     11  C   UNL     1      -3.850  10.624  16.258  0.00  0.00    +0.000 A 
ATOM     12  C   UNL     1      -2.635   9.920  16.234  0.00  0.00    +0.000 A 
ATOM     13  C   UNL     1      -1.722  10.042  17.283  0.00  0.00    +0.000 A 
ATOM     14  C   UNL     1      -2.038  10.888  18.334  0.00  0.00    +0.000 A 
ATOM     15  C   UNL     1      -1.362  11.273  19.571  0.00  0.00    +0.000 C 
ATOM     16  C   UNL     1      -0.128  10.984  20.009  0.00  0.00    +0.000 C 
ENDBRANCH   1  16
BRANCH   3  17
ATOM     17  C   UNL     1       2.770   7.580  17.947  0.00  0.00    +0.000 A 
ATOM     18  C   UNL     1       2.274   6.312  18.279  0.00  0.00    +0.000 A 
ATOM     19  C   UNL     1       2.962   5.146  17.907  0.00  0.00    +0.000 A 
ATOM     20  C   UNL     1       4.167   5.220  17.194  0.00  0.00    +0.000 A 
ATOM     21  C   UNL     1       4.652   6.484  16.831  0.00  0.00    +0.000 A 
ATOM     22  C   UNL     1       3.960   7.644  17.201  0.00  0.00    +0.000 A 
BRANCH  20  23
ATOM     23  C   UNL     1       4.952   3.979  16.834  0.00  0.00    +0.000 C 
ATOM     24  F   UNL     1       4.358   2.820  17.232  0.00  0.00    +0.000 F 
ATOM     25  F   UNL     1       5.152   3.856  15.492  0.00  0.00    +0.000 F 
ATOM     26  F   UNL     1       6.194   3.972  17.396  0.00  0.00    +0.000 F 
ENDBRANCH  20  23
ENDBRANCH   3  17
BRANCH   5  27
ATOM     27  O   UNL     1       1.840  12.123  17.811  0.00  0.00    +0.000 OA
ATOM     28  H   UNL     1       2.000  12.676  18.595  0.00  0.00    +0.000 HD
ENDBRANCH   5  27
TORSDOF 4
ENDMDL
MODEL 2
REMARK VINA RESULT:      -8.6      0.146      1.199
REMARK  Name = 
REMARK  5 active torsions:
REMARK  status: ('A' for Active; 'I' for Inactive)
REMARK    1  A    between atoms: C_1  and  C_2
REMARK    2  A    between atoms: C_11  and  C_12
REMARK    3  A    between atoms: C_14  and  C_15
REMARK    4  A    between atoms: C_18  and  C_19
REMARK    5  A    between atoms: C_26  and  O_27
REMARK                            x       y       z     vdW  Elec       q    Type
REMARK                         _______ _______ _______ _____ _____    ______ ____
ROOT
ATOM      1  C   UNL     1       0.874  10.328  19.253  0.00  0.00    +0.000 A 
ATOM      2  N   UNL     1       1.169   8.987  19.336  0.00  0.00    +0.000 NA
ATOM      3  C   UNL     1       2.112   8.818  18.415  0.00  0.00    +0.000 A 
ATOM      4  O   UNL     1       2.440   9.969  17.733  0.00  0.00    +0.000 OA
ATOM      5  C   UNL     1       1.645  10.917  18.283  0.00  0.00    +0.000 A 
ENDROOT
BRANCH   1  16
ATOM      6  C   UNL     1      -2.141  12.880  21.517  0.00  0.00    +0.000 C 
ATOM      7  C   UNL     1      -2.365  12.173  20.219  0.00  0.00    +0.000 C 
ATOM      8  N   UNL     1      -3.451  12.343  19.504  0.00  0.00    +0.000 NA
ATOM      9  C   UNL     1      -3.257  11.565  18.342  0.00  0.00    +0.000 A 
ATOM     10  C   UNL     1      -4.155  11.449  17.296  0.00  0.00    +0.000 A 
ATOM     11  C   UNL     1      -3.818  10.627  16.218  0.00  0.00    +0.000 A 
ATOM     12  C   UNL     1      -2.600   9.930  16.202  0.00  0.00    +0.000 A 
ATOM     13  C   UNL     1      -1.698  10.049  17.260  0.00  0.00    +0.000 A 
ATOM     14  C   UNL     1      -2.030  10.885  18.315  0.00  0.00    +0.000 A 
ATOM     15  C   UNL     1      -1.369  11.265  19.562  0.00  0.00    +0.000 C 
ATOM     16  C   UNL     1      -0.138  10.979  20.010  0.00  0.00    +0.000 C 
ENDBRANCH   1  16
BRANCH   3  17
ATOM     17  C   UNL     1       2.841   7.612  18.003  0.00  0.00    +0.000 A 
ATOM     18  C   UNL     1       4.042   7.711  17.287  0.00  0.00    +0.000 A 
ATOM     19  C   UNL     1       4.718   6.561  16.850  0.00  0.00    +0.000 A 
ATOM     20  C   UNL     1       4.209   5.282  17.116  0.00  0.00    +0.000 A 
ATOM     21  C   UNL     1       3.025   5.176  17.859  0.00  0.00    +0.000 A 
ATOM     22  C   UNL     1       2.356   6.326  18.298  0.00  0.00    +0.000 A 
BRANCH  20  23
ATOM     23  C   UNL     1       4.892   4.035  16.604  0.00  0.00    +0.000 C 
ATOM     24  F   UNL     1       6.215   3.965  16.920  0.00  0.00    +0.000 F 
ATOM     25  F   UNL     1       4.331   2.892  17.090  0.00  0.00    +0.000 F 
ATOM     26  F   UNL     1       4.829   3.930  15.247  0.00  0.00    +0.000 F 
ENDBRANCH  20  23
ENDBRANCH   3  17
BRANCH   5  27
ATOM     27  O   UNL     1       1.769  12.120  17.759  0.00  0.00    +0.000 OA
ATOM     28  H   UNL     1       2.490  12.527  18.268  0.00  0.00    +0.000 HD
ENDBRANCH   5  27
TORSDOF 4
ENDMDL
MODEL 3
REMARK VINA RESULT:      -8.3      1.530      2.167
REMARK  Name = 
REMARK  5 active torsions:
REMARK  status: ('A' for Active; 'I' for Inactive)
REMARK    1  A    between atoms: C_1  and  C_2
REMARK    2  A    between atoms: C_11  and  C_12
REMARK    3  A    between atoms: C_14  and  C_15
REMARK    4  A    between atoms: C_18  and  C_19
REMARK    5  A    between atoms: C_26  and  O_27
REMARK                            x       y       z     vdW  Elec       q    Type
REMARK                         _______ _______ _______ _____ _____    ______ ____
ROOT
ATOM      1  C   UNL     1       1.280   9.778  19.661  0.00  0.00    +0.000 A 
ATOM      2  N   UNL     1       1.377   8.506  20.174  0.00  0.00    +0.000 NA
ATOM      3  C   UNL     1       1.989   7.826  19.210  0.00  0.00    +0.000 A 
ATOM      4  O   UNL     1       2.288   8.581  18.097  0.00  0.00    +0.000 OA
ATOM      5  C   UNL     1       1.832   9.819  18.405  0.00  0.00    +0.000 A 
ENDROOT
BRANCH   1  16
ATOM      6  C   UNL     1      -0.504  13.578  21.424  0.00  0.00    +0.000 C 
ATOM      7  C   UNL     1      -1.151  12.663  20.434  0.00  0.00    +0.000 C 
ATOM      8  N   UNL     1      -2.286  12.954  19.843  0.00  0.00    +0.000 NA
ATOM      9  C   UNL     1      -2.525  11.886  18.951  0.00  0.00    +0.000 A 
ATOM     10  C   UNL     1      -3.617  11.776  18.109  0.00  0.00    +0.000 A 
ATOM     11  C   UNL     1      -3.715  10.648  17.291  0.00  0.00    +0.000 A 
ATOM     12  C   UNL     1      -2.731   9.647  17.330  0.00  0.00    +0.000 A 
ATOM     13  C   UNL     1      -1.631   9.763  18.182  0.00  0.00    +0.000 A 
ATOM     14  C   UNL     1      -1.531  10.897  18.973  0.00  0.00    +0.000 A 
ATOM     15  C   UNL     1      -0.559  11.371  19.956  0.00  0.00    +0.000 C 
ATOM     16  C   UNL     1       0.631  10.863  20.310  0.00  0.00    +0.000 C 
ENDBRANCH   1  16
BRANCH   3  17
ATOM     17  C   UNL     1       2.381   6.414  19.137  0.00  0.00    +0.000 A 
ATOM     18  C   UNL     1       3.052   5.913  18.013  0.00  0.00    +0.000 A 
ATOM     19  C   UNL     1       3.387   4.553  17.917  0.00  0.00    +0.000 A 
ATOM     20  C   UNL     1       3.055   3.657  18.943  0.00  0.00    +0.000 A 
ATOM     21  C   UNL     1       2.412   4.158  20.084  0.00  0.00    +0.000 A 
ATOM     22  C   UNL     1       2.084   5.516  20.177  0.00  0.00    +0.000 A 
BRANCH  20  23
ATOM     23  C   UNL     1       3.355   2.180  18.833  0.00  0.00    +0.000 C 
ATOM     24  F   UNL     1       4.379   1.768  19.630  0.00  0.00    +0.000 F 
ATOM     25  F   UNL     1       2.287   1.402  19.164  0.00  0.00    +0.000 F 
ATOM     26  F   UNL     1       3.701   1.816  17.566  0.00  0.00    +0.000 F 
ENDBRANCH  20  23
ENDBRANCH   3  17
BRANCH   5  27
ATOM     27  O   UNL     1       1.990  10.721  17.458  0.00  0.00    +0.000 OA
ATOM     28  H   UNL     1       1.465  11.480  17.764  0.00  0.00    +0.000 HD
ENDBRANCH   5  27
TORSDOF 4
ENDMDL
MODEL 4
REMARK VINA RESULT:      -8.2      4.805      8.675
REMARK  Name = 
REMARK  5 active torsions:
REMARK  status: ('A' for Active; 'I' for Inactive)
REMARK    1  A    between atoms: C_1  and  C_2
REMARK    2  A    between atoms: C_11  and  C_12
REMARK    3  A    between atoms: C_14  and  C_15
REMARK    4  A    between atoms: C_18  and  C_19
REMARK    5  A    between atoms: C_26  and  O_27
REMARK                            x       y       z     vdW  Elec       q    Type
REMARK                         _______ _______ _______ _____ _____    ______ ____
ROOT
ATOM      1  C   UNL     1       2.428   8.408  18.220  0.00  0.00    +0.000 A 
ATOM      2  N   UNL     1       1.503   9.095  17.468  0.00  0.00    +0.000 NA
ATOM      3  C   UNL     1       0.493   9.283  18.310  0.00  0.00    +0.000 A 
ATOM      4  O   UNL     1       0.704   8.751  19.564  0.00  0.00    +0.000 OA
ATOM      5  C   UNL     1       1.940   8.203  19.486  0.00  0.00    +0.000 A 
ENDROOT
BRANCH   1  16
ATOM      6  C   UNL     1       6.581   6.885  17.145  0.00  0.00    +0.000 C 
ATOM      7  C   UNL     1       5.346   6.062  17.319  0.00  0.00    +0.000 C 
ATOM      8  N   UNL     1       5.367   4.750  17.321  0.00  0.00    +0.000 NA
ATOM      9  C   UNL     1       4.035   4.356  17.571  0.00  0.00    +0.000 A 
ATOM     10  C   UNL     1       3.591   3.049  17.665  0.00  0.00    +0.000 A 
ATOM     11  C   UNL     1       2.234   2.824  17.907  0.00  0.00    +0.000 A 
ATOM     12  C   UNL     1       1.341   3.900  18.043  0.00  0.00    +0.000 A 
ATOM     13  C   UNL     1       1.795   5.216  17.947  0.00  0.00    +0.000 A 
ATOM     14  C   UNL     1       3.147   5.431  17.730  0.00  0.00    +0.000 A 
ATOM     15  C   UNL     1       3.979   6.623  17.580  0.00  0.00    +0.000 C 
ATOM     16  C   UNL     1       3.668   7.919  17.726  0.00  0.00    +0.000 C 
ENDBRANCH   1  16
BRANCH   3  17
ATOM     17  C   UNL     1      -0.802   9.947  18.117  0.00  0.00    +0.000 A 
ATOM     18  C   UNL     1      -1.277  10.876  19.052  0.00  0.00    +0.000 A 
ATOM     19  C   UNL     1      -2.536  11.478  18.897  0.00  0.00    +0.000 A 
ATOM     20  C   UNL     1      -3.353  11.163  17.802  0.00  0.00    +0.000 A 
ATOM     21  C   UNL     1      -2.870  10.258  16.847  0.00  0.00    +0.000 A 
ATOM     22  C   UNL     1      -1.612   9.663  17.003  0.00  0.00    +0.000 A 
BRANCH  20  23
ATOM     23  C   UNL     1      -4.734  11.757  17.648  0.00  0.00    +0.000 C 
ATOM     24  F   UNL     1      -5.043  12.683  18.598  0.00  0.00    +0.000 F 
ATOM     25  F   UNL     1      -4.907  12.379  16.449  0.00  0.00    +0.000 F 
ATOM     26  F   UNL     1      -5.714  10.812  17.720  0.00  0.00    +0.000 F 
ENDBRANCH  20  23
ENDBRANCH   3  17
BRANCH   5  27
ATOM     27  O   UNL     1       2.351   7.601  20.584  0.00  0.00    +0.000 OA
ATOM     28  H   UNL     1       3.320   7.596  20.503  0.00  0.00    +0.000 HD
ENDBRANCH   5  27
TORSDOF 4
ENDMDL
MODEL 5
REMARK VINA RESULT:      -8.0      1.330      1.615
REMARK  Name = 
REMARK  5 active torsions:
REMARK  status: ('A' for Active; 'I' for Inactive)
REMARK    1  A    between atoms: C_1  and  C_2
REMARK    2  A    between atoms: C_11  and  C_12
REMARK    3  A    between atoms: C_14  and  C_15
REMARK    4  A    between atoms: C_18  and  C_19
REMARK    5  A    between atoms: C_26  and  O_27
REMARK                            x       y       z     vdW  Elec       q    Type
REMARK                         _______ _______ _______ _____ _____    ______ ____
ROOT
ATOM      1  C   UNL     1       1.077  10.193  19.730  0.00  0.00    +0.000 A 
ATOM      2  N   UNL     1       1.152   8.893  20.174  0.00  0.00    +0.000 NA
ATOM      3  C   UNL     1       1.858   8.281  19.229  0.00  0.00    +0.000 A 
ATOM      4  O   UNL     1       2.239   9.105  18.193  0.00  0.00    +0.000 OA
ATOM      5  C   UNL     1       1.736  10.315  18.532  0.00  0.00    +0.000 A 
ENDROOT
BRANCH   1  16
ATOM      6  C   UNL     1      -0.975  13.854  21.494  0.00  0.00    +0.000 C 
ATOM      7  C   UNL     1      -1.564  12.881  20.524  0.00  0.00    +0.000 C 
ATOM      8  N   UNL     1      -2.728  13.074  19.951  0.00  0.00    +0.000 NA
ATOM      9  C   UNL     1      -2.896  11.983  19.072  0.00  0.00    +0.000 A 
ATOM     10  C   UNL     1      -3.990  11.777  18.251  0.00  0.00    +0.000 A 
ATOM     11  C   UNL     1      -4.011  10.637  17.444  0.00  0.00    +0.000 A 
ATOM     12  C   UNL     1      -2.950   9.718  17.473  0.00  0.00    +0.000 A 
ATOM     13  C   UNL     1      -1.849   9.930  18.304  0.00  0.00    +0.000 A 
ATOM     14  C   UNL     1      -1.826  11.076  19.084  0.00  0.00    +0.000 A 
ATOM     15  C   UNL     1      -0.878  11.636  20.046  0.00  0.00    +0.000 C 
ATOM     16  C   UNL     1       0.355  11.229  20.382  0.00  0.00    +0.000 C 
ENDBRANCH   1  16
BRANCH   3  17
ATOM     17  C   UNL     1       2.280   6.880  19.108  0.00  0.00    +0.000 A 
ATOM     18  C   UNL     1       2.099   5.983  20.169  0.00  0.00    +0.000 A 
ATOM     19  C   UNL     1       2.545   4.655  20.076  0.00  0.00    +0.000 A 
ATOM     20  C   UNL     1       3.186   4.191  18.919  0.00  0.00    +0.000 A 
ATOM     21  C   UNL     1       3.342   5.075  17.843  0.00  0.00    +0.000 A 
ATOM     22  C   UNL     1       2.892   6.398  17.938  0.00  0.00    +0.000 A 
BRANCH  20  23
ATOM     23  C   UNL     1       3.724   2.782  18.822  0.00  0.00    +0.000 C 
ATOM     24  F   UNL     1       2.818   1.824  19.163  0.00  0.00    +0.000 F 
ATOM     25  F   UNL     1       4.147   2.467  17.566  0.00  0.00    +0.000 F 
ATOM     26  F   UNL     1       4.799   2.582  19.636  0.00  0.00    +0.000 F 
ENDBRANCH  20  23
ENDBRANCH   3  17
BRANCH   5  27
ATOM     27  O   UNL     1       1.959  11.275  17.657  0.00  0.00    +0.000 OA
ATOM     28  H   UNL     1       1.158  11.284  17.106  0.00  0.00    +0.000 HD
ENDBRANCH   5  27
TORSDOF 4
ENDMDL
MODEL 6
REMARK VINA RESULT:      -7.9      7.236      9.462
REMARK  Name = 
REMARK  5 active torsions:
REMARK  status: ('A' for Active; 'I' for Inactive)
REMARK    1  A    between atoms: C_1  and  C_2
REMARK    2  A    between atoms: C_11  and  C_12
REMARK    3  A    between atoms: C_14  and  C_15
REMARK    4  A    between atoms: C_18  and  C_19
REMARK    5  A    between atoms: C_26  and  O_27
REMARK                            x       y       z     vdW  Elec       q    Type
REMARK                         _______ _______ _______ _____ _____    ______ ____
ROOT
ATOM      1  C   UNL     1       7.490   6.708  17.239  0.00  0.00    +0.000 A 
ATOM      2  N   UNL     1       7.678   8.048  16.993  0.00  0.00    +0.000 NA
ATOM      3  C   UNL     1       8.228   8.498  18.116  0.00  0.00    +0.000 A 
ATOM      4  O   UNL     1       8.402   7.529  19.080  0.00  0.00    +0.000 OA
ATOM      5  C   UNL     1       7.930   6.399  18.502  0.00  0.00    +0.000 A 
ENDROOT
BRANCH   1  16
ATOM      6  C   UNL     1       5.753   3.418  14.615  0.00  0.00    +0.000 C 
ATOM      7  C   UNL     1       5.072   4.104  15.755  0.00  0.00    +0.000 C 
ATOM      8  N   UNL     1       3.912   3.710  16.222  0.00  0.00    +0.000 NA
ATOM      9  C   UNL     1       3.643   4.559  17.318  0.00  0.00    +0.000 A 
ATOM     10  C   UNL     1       2.518   4.500  18.120  0.00  0.00    +0.000 A 
ATOM     11  C   UNL     1       2.394   5.423  19.161  0.00  0.00    +0.000 A 
ATOM     12  C   UNL     1       3.387   6.391  19.382  0.00  0.00    +0.000 A 
ATOM     13  C   UNL     1       4.520   6.447  18.569  0.00  0.00    +0.000 A 
ATOM     14  C   UNL     1       4.645   5.513  17.553  0.00  0.00    +0.000 A 
ATOM     15  C   UNL     1       5.654   5.250  16.528  0.00  0.00    +0.000 C 
ATOM     16  C   UNL     1       6.861   5.803  16.342  0.00  0.00    +0.000 C 
ENDBRANCH   1  16
BRANCH   3  17
ATOM     17  C   UNL     1       8.663   9.848  18.493  0.00  0.00    +0.000 A 
ATOM     18  C   UNL     1       8.412  10.942  17.655  0.00  0.00    +0.000 A 
ATOM     19  C   UNL     1       8.869  12.227  17.989  0.00  0.00    +0.000 A 
ATOM     20  C   UNL     1       9.591  12.450  19.170  0.00  0.00    +0.000 A 
ATOM     21  C   UNL     1       9.818  11.365  20.027  0.00  0.00    +0.000 A 
ATOM     22  C   UNL     1       9.357  10.085  19.693  0.00  0.00    +0.000 A 
BRANCH  20  23
ATOM     23  C   UNL     1      10.140  13.814  19.517  0.00  0.00    +0.000 C 
ATOM     24  F   UNL     1       9.185  14.778  19.627  0.00  0.00    +0.000 F 
ATOM     25  F   UNL     1      10.817  13.822  20.700  0.00  0.00    +0.000 F 
ATOM     26  F   UNL     1      11.022  14.270  18.583  0.00  0.00    +0.000 F 
ENDBRANCH  20  23
ENDBRANCH   3  17
BRANCH   5  27
ATOM     27  O   UNL     1       7.971   5.325  19.264  0.00  0.00    +0.000 OA
ATOM     28  H   UNL     1       7.055   5.218  19.573  0.00  0.00    +0.000 HD
ENDBRANCH   5  27
TORSDOF 4
ENDMDL
MODEL 7
REMARK VINA RESULT:      -7.8      7.192      9.426
REMARK  Name = 
REMARK  5 active torsions:
REMARK  status: ('A' for Active; 'I' for Inactive)
REMARK    1  A    between atoms: C_1  and  C_2
REMARK    2  A    between atoms: C_11  and  C_12
REMARK    3  A    between atoms: C_14  and  C_15
REMARK    4  A    between atoms: C_18  and  C_19
REMARK    5  A    between atoms: C_26  and  O_27
REMARK                            x       y       z     vdW  Elec       q    Type
REMARK                         _______ _______ _______ _____ _____    ______ ____
ROOT
ATOM      1  C   UNL     1       7.493   6.706  17.243  0.00  0.00    +0.000 A 
ATOM      2  N   UNL     1       7.692   8.044  16.991  0.00  0.00    +0.000 NA
ATOM      3  C   UNL     1       8.240   8.495  18.114  0.00  0.00    +0.000 A 
ATOM      4  O   UNL     1       8.401   7.530  19.084  0.00  0.00    +0.000 OA
ATOM      5  C   UNL     1       7.923   6.401  18.510  0.00  0.00    +0.000 A 
ENDROOT
BRANCH   1  16
ATOM      6  C   UNL     1       5.746   3.417  14.625  0.00  0.00    +0.000 C 
ATOM      7  C   UNL     1       5.066   4.109  15.762  0.00  0.00    +0.000 C 
ATOM      8  N   UNL     1       3.903   3.721  16.229  0.00  0.00    +0.000 NA
ATOM      9  C   UNL     1       3.636   4.574  17.321  0.00  0.00    +0.000 A 
ATOM     10  C   UNL     1       2.509   4.523  18.121  0.00  0.00    +0.000 A 
ATOM     11  C   UNL     1       2.388   5.449  19.160  0.00  0.00    +0.000 A 
ATOM     12  C   UNL     1       3.384   6.414  19.380  0.00  0.00    +0.000 A 
ATOM     13  C   UNL     1       4.519   6.462  18.569  0.00  0.00    +0.000 A 
ATOM     14  C   UNL     1       4.642   5.524  17.555  0.00  0.00    +0.000 A 
ATOM     15  C   UNL     1       5.651   5.254  16.533  0.00  0.00    +0.000 C 
ATOM     16  C   UNL     1       6.861   5.801  16.347  0.00  0.00    +0.000 C 
ENDBRANCH   1  16
BRANCH   3  17
ATOM     17  C   UNL     1       8.684   9.844  18.486  0.00  0.00    +0.000 A 
ATOM     18  C   UNL     1       9.361  10.068  19.693  0.00  0.00    +0.000 A 
ATOM     19  C   UNL     1       9.745  11.362  20.076  0.00  0.00    +0.000 A 
ATOM     20  C   UNL     1       9.459  12.468  19.262  0.00  0.00    +0.000 A 
ATOM     21  C   UNL     1       8.810  12.246  18.040  0.00  0.00    +0.000 A 
ATOM     22  C   UNL     1       8.432  10.953  17.659  0.00  0.00    +0.000 A 
BRANCH  20  23
ATOM     23  C   UNL     1       9.813  13.875  19.684  0.00  0.00    +0.000 C 
ATOM     24  F   UNL     1      10.379  13.951  20.921  0.00  0.00    +0.000 F 
ATOM     25  F   UNL     1      10.693  14.472  18.833  0.00  0.00    +0.000 F 
ATOM     26  F   UNL     1       8.723  14.693  19.725  0.00  0.00    +0.000 F 
ENDBRANCH  20  23
ENDBRANCH   3  17
BRANCH   5  27
ATOM     27  O   UNL     1       7.952   5.331  19.278  0.00  0.00    +0.000 OA
ATOM     28  H   UNL     1       7.532   5.622  20.106  0.00  0.00    +0.000 HD
ENDBRANCH   5  27
TORSDOF 4
ENDMDL
MODEL 8
REMARK VINA RESULT:      -7.6      2.473      3.136
REMARK  Name = 
REMARK  5 active torsions:
REMARK  status: ('A' for Active; 'I' for Inactive)
REMARK    1  A    between atoms: C_1  and  C_2
REMARK    2  A    between atoms: C_11  and  C_12
REMARK    3  A    between atoms: C_14  and  C_15
REMARK    4  A    between atoms: C_18  and  C_19
REMARK    5  A    between atoms: C_26  and  O_27
REMARK                            x       y       z     vdW  Elec       q    Type
REMARK                         _______ _______ _______ _____ _____    ______ ____
ROOT
ATOM      1  C   UNL     1       1.168   9.851  20.675  0.00  0.00    +0.000 A 
ATOM      2  N   UNL     1       1.476   8.898  19.732  0.00  0.00    +0.000 NA
ATOM      3  C   UNL     1       1.580   7.779  20.440  0.00  0.00    +0.000 A 
ATOM      4  O   UNL     1       1.367   7.950  21.791  0.00  0.00    +0.000 OA
ATOM      5  C   UNL     1       1.104   9.273  21.918  0.00  0.00    +0.000 A 
ENDROOT
BRANCH   1  16
ATOM      6  C   UNL     1       1.107  14.236  19.456  0.00  0.00    +0.000 C 
ATOM      7  C   UNL     1       0.155  13.173  19.012  0.00  0.00    +0.000 C 
ATOM      8  N   UNL     1      -0.742  13.376  18.076  0.00  0.00    +0.000 NA
ATOM      9  C   UNL     1      -1.389  12.133  17.905  0.00  0.00    +0.000 A 
ATOM     10  C   UNL     1      -2.410  11.879  17.007  0.00  0.00    +0.000 A 
ATOM     11  C   UNL     1      -2.956  10.594  16.967  0.00  0.00    +0.000 A 
ATOM     12  C   UNL     1      -2.483   9.587  17.823  0.00  0.00    +0.000 A 
ATOM     13  C   UNL     1      -1.453   9.849  18.727  0.00  0.00    +0.000 A 
ATOM     14  C   UNL     1      -0.901  11.120  18.744  0.00  0.00    +0.000 A 
ATOM     15  C   UNL     1       0.161  11.761  19.518  0.00  0.00    +0.000 C 
ATOM     16  C   UNL     1       1.021  11.238  20.403  0.00  0.00    +0.000 C 
ENDBRANCH   1  16
BRANCH   3  17
ATOM     17  C   UNL     1       1.896   6.408  20.022  0.00  0.00    +0.000 A 
ATOM     18  C   UNL     1       2.554   6.163  18.809  0.00  0.00    +0.000 A 
ATOM     19  C   UNL     1       2.815   4.851  18.381  0.00  0.00    +0.000 A 
ATOM     20  C   UNL     1       2.422   3.750  19.156  0.00  0.00    +0.000 A 
ATOM     21  C   UNL     1       1.792   3.990  20.384  0.00  0.00    +0.000 A 
ATOM     22  C   UNL     1       1.537   5.300  20.810  0.00  0.00    +0.000 A 
BRANCH  20  23
ATOM     23  C   UNL     1       2.643   2.331  18.685  0.00  0.00    +0.000 C 
ATOM     24  F   UNL     1       2.423   2.154  17.353  0.00  0.00    +0.000 F 
ATOM     25  F   UNL     1       3.912   1.894  18.916  0.00  0.00    +0.000 F 
ATOM     26  F   UNL     1       1.824   1.444  19.317  0.00  0.00    +0.000 F 
ENDBRANCH  20  23
ENDBRANCH   3  17
BRANCH   5  27
ATOM     27  O   UNL     1       0.889   9.681  23.152  0.00  0.00    +0.000 OA
ATOM     28  H   UNL     1      -0.079   9.667  23.242  0.00  0.00    +0.000 HD
ENDBRANCH   5  27
TORSDOF 4
ENDMDL
MODEL 9
REMARK VINA RESULT:      -7.6      2.176      3.658
REMARK  Name = 
REMARK  5 active torsions:
REMARK  status: ('A' for Active; 'I' for Inactive)
REMARK    1  A    between atoms: C_1  and  C_2
REMARK    2  A    between atoms: C_11  and  C_12
REMARK    3  A    between atoms: C_14  and  C_15
REMARK    4  A    between atoms: C_18  and  C_19
REMARK    5  A    between atoms: C_26  and  O_27
REMARK                            x       y       z     vdW  Elec       q    Type
REMARK                         _______ _______ _______ _____ _____    ______ ____
ROOT
ATOM      1  C   UNL     1       0.355  10.021  19.505  0.00  0.00    +0.000 A 
ATOM      2  N   UNL     1       1.306   9.059  19.757  0.00  0.00    +0.000 NA
ATOM      3  C   UNL     1       1.540   8.530  18.561  0.00  0.00    +0.000 A 
ATOM      4  O   UNL     1       0.792   9.088  17.547  0.00  0.00    +0.000 OA
ATOM      5  C   UNL     1       0.048  10.034  18.168  0.00  0.00    +0.000 A 
ENDROOT
BRANCH   1  16
ATOM      6  C   UNL     1      -1.350  12.304  23.055  0.00  0.00    +0.000 C 
ATOM      7  C   UNL     1      -0.301  12.784  22.106  0.00  0.00    +0.000 C 
ATOM      8  N   UNL     1       0.362  13.900  22.295  0.00  0.00    +0.000 NA
ATOM      9  C   UNL     1       1.290  13.966  21.232  0.00  0.00    +0.000 A 
ATOM     10  C   UNL     1       2.208  14.982  21.033  0.00  0.00    +0.000 A 
ATOM     11  C   UNL     1       3.052  14.907  19.923  0.00  0.00    +0.000 A 
ATOM     12  C   UNL     1       2.964  13.829  19.027  0.00  0.00    +0.000 A 
ATOM     13  C   UNL     1       2.034  12.808  19.232  0.00  0.00    +0.000 A 
ATOM     14  C   UNL     1       1.217  12.879  20.349  0.00  0.00    +0.000 A 
ATOM     15  C   UNL     1       0.159  12.030  20.894  0.00  0.00    +0.000 C 
ATOM     16  C   UNL     1      -0.268  10.821  20.501  0.00  0.00    +0.000 C 
ENDBRANCH   1  16
BRANCH   3  17
ATOM     17  C   UNL     1       2.449   7.452  18.154  0.00  0.00    +0.000 A 
ATOM     18  C   UNL     1       3.658   7.740  17.507  0.00  0.00    +0.000 A 
ATOM     19  C   UNL     1       4.508   6.711  17.072  0.00  0.00    +0.000 A 
ATOM     20  C   UNL     1       4.169   5.365  17.272  0.00  0.00    +0.000 A 
ATOM     21  C   UNL     1       2.976   5.071  17.947  0.00  0.00    +0.000 A 
ATOM     22  C   UNL     1       2.133   6.101  18.383  0.00  0.00    +0.000 A 
BRANCH  20  23
ATOM     23  C   UNL     1       5.043   4.243  16.761  0.00  0.00    +0.000 C 
ATOM     24  F   UNL     1       4.555   3.001  17.032  0.00  0.00    +0.000 F 
ATOM     25  F   UNL     1       5.220   4.290  15.412  0.00  0.00    +0.000 F 
ATOM     26  F   UNL     1       6.294   4.276  17.300  0.00  0.00    +0.000 F 
ENDBRANCH  20  23
ENDBRANCH   3  17
BRANCH   5  27
ATOM     27  O   UNL     1      -0.781  10.693  17.383  0.00  0.00    +0.000 OA
ATOM     28  H   UNL     1      -0.375  10.628  16.502  0.00  0.00    +0.000 HD
ENDBRANCH   5  27
TORSDOF 4
ENDMDL
