MODEL 1
REMARK VINA RESULT:      -8.5      0.000      0.000
REMARK  Name = 
REMARK  10 active torsions:
REMARK  status: ('A' for Active; 'I' for Inactive)
REMARK    1  A    between atoms: C_1  and  N_2
REMARK    2  A    between atoms: C_5  and  N_6
REMARK    3  A    between atoms: N_6  and  C_7
REMARK    4  A    between atoms: C_10  and  C_11
REMARK    5  A    between atoms: N_13  and  C_14
REMARK    6  A    between atoms: C_17  and  N_18
REMARK    7  A    between atoms: N_18  and  C_19
REMARK    8  A    between atoms: N_22  and  C_23
REMARK    9  A    between atoms: C_26  and  N_27
REMARK   10  A    between atoms: C_33  and  N_34
REMARK                            x       y       z     vdW  Elec       q    Type
REMARK                         _______ _______ _______ _____ _____    ______ ____
ROOT
ATOM      1  C   UNL     1       1.141   8.798  19.152  0.00  0.00    +0.000 C 
ATOM      2  O   UNL     1       1.068   9.204  20.307  0.00  0.00    +0.000 OA
ATOM      3  N   UNL     1       0.316   9.211  18.105  0.00  0.00    +0.000 N 
ATOM      4  H   UNL     1       0.574   8.934  17.167  0.00  0.00    +0.000 HD
ENDROOT
BRANCH   1   8
ATOM      5  C   UNL     1       4.459   6.208  18.162  0.00  0.00    +0.000 A 
ATOM      6  C   UNL     1       4.110   7.270  17.322  0.00  0.00    +0.000 A 
ATOM      7  C   UNL     1       3.029   8.103  17.629  0.00  0.00    +0.000 A 
ATOM      8  C   UNL     1       2.268   7.878  18.787  0.00  0.00    +0.000 A 
ATOM      9  C   UNL     1       2.600   6.799  19.641  0.00  0.00    +0.000 A 
ATOM     10  C   UNL     1       3.694   5.983  19.314  0.00  0.00    +0.000 A 
BRANCH   9  11
ATOM     11  N   UNL     1       1.775   6.384  20.697  0.00  0.00    +0.000 N 
ATOM     12  H   UNL     1       1.770   5.363  20.840  0.00  0.00    +0.000 HD
ATOM     13  H   UNL     1       0.862   6.814  20.768  0.00  0.00    +0.000 HD
ENDBRANCH   9  11
BRANCH   5  14
ATOM     14  N   UNL     1       5.532   5.346  17.841  0.00  0.00    +0.000 N 
ATOM     15  H   UNL     1       5.639   4.606  18.536  0.00  0.00    +0.000 HD
BRANCH  14  20
ATOM     16  C   UNL     1       6.814   3.792  12.563  0.00  0.00    +0.000 C 
ATOM     17  N   UNL     1       6.523   4.116  13.970  0.00  0.00    +0.000 N 
ATOM     18  C   UNL     1       5.382   3.682  14.548  0.00  0.00    +0.000 A 
ATOM     19  C   UNL     1       5.056   4.073  15.842  0.00  0.00    +0.000 A 
ATOM     20  C   UNL     1       5.918   4.900  16.560  0.00  0.00    +0.000 A 
ATOM     21  C   UNL     1       7.108   5.296  15.953  0.00  0.00    +0.000 A 
ATOM     22  C   UNL     1       7.391   4.893  14.653  0.00  0.00    +0.000 A 
ENDBRANCH  14  20
ENDBRANCH   5  14
ENDBRANCH   1   8
BRANCH   3  23
ATOM     23  C   UNL     1      -0.664  10.228  18.187  0.00  0.00    +0.000 A 
ATOM     24  C   UNL     1      -1.926  10.125  17.607  0.00  0.00    +0.000 A 
ATOM     25  C   UNL     1      -2.925  11.053  17.906  0.00  0.00    +0.000 A 
ATOM     26  C   UNL     1      -2.687  12.089  18.809  0.00  0.00    +0.000 A 
ATOM     27  C   UNL     1      -1.377  12.289  19.256  0.00  0.00    +0.000 A 
ATOM     28  C   UNL     1      -0.370  11.366  18.944  0.00  0.00    +0.000 A 
BRANCH  26  29
ATOM     29  N   UNL     1      -3.730  12.883  19.310  0.00  0.00    +0.000 N 
ATOM     30  H   UNL     1      -3.739  13.824  18.918  0.00  0.00    +0.000 HD
BRANCH  29  31
ATOM     31  C   UNL     1      -4.407  12.800  20.549  0.00  0.00    +0.000 A 
ATOM     32  C   UNL     1      -5.739  12.364  20.511  0.00  0.00    +0.000 A 
ATOM     33  C   UNL     1      -6.519  12.425  21.657  0.00  0.00    +0.000 A 
ATOM     34  N   UNL     1      -5.961  12.759  22.831  0.00  0.00    +0.000 N 
ATOM     35  C   UNL     1      -6.788  13.302  23.927  0.00  0.00    +0.000 C 
ATOM     36  C   UNL     1      -4.611  12.880  22.942  0.00  0.00    +0.000 A 
ATOM     37  C   UNL     1      -4.035  12.910  24.207  0.00  0.00    +0.000 A 
ATOM     38  C   UNL     1      -3.226  13.995  24.454  0.00  0.00    +0.000 A 
ATOM     39  C   UNL     1      -2.477  14.468  23.382  0.00  0.00    +0.000 A 
ATOM     40  C   UNL     1      -2.697  13.958  22.084  0.00  0.00    +0.000 A 
ATOM     41  C   UNL     1      -3.856  13.170  21.813  0.00  0.00    +0.000 A 
BRANCH  38  42
ATOM     42  N   UNL     1      -3.606  14.817  25.518  0.00  0.00    +0.000 N 
ATOM     43  H   UNL     1      -2.830  15.260  26.007  0.00  0.00    +0.000 HD
ATOM     44  H   UNL     1      -4.346  15.484  25.324  0.00  0.00    +0.000 HD
ENDBRANCH  38  42
ENDBRANCH  29  31
ENDBRANCH  26  29
ENDBRANCH   3  23
TORSDOF 8
ENDMDL
MODEL 2
REMARK VINA RESULT:      -8.1      1.325      2.544
REMARK  Name = 
REMARK  10 active torsions:
REMARK  status: ('A' for Active; 'I' for Inactive)
REMARK    1  A    between atoms: C_1  and  N_2
REMARK    2  A    between atoms: C_5  and  N_6
REMARK    3  A    between atoms: N_6  and  C_7
REMARK    4  A    between atoms: C_10  and  C_11
REMARK    5  A    between atoms: N_13  and  C_14
REMARK    6  A    between atoms: C_17  and  N_18
REMARK    7  A    between atoms: N_18  and  C_19
REMARK    8  A    between atoms: N_22  and  C_23
REMARK    9  A    between atoms: C_26  and  N_27
REMARK   10  A    between atoms: C_33  and  N_34
REMARK                            x       y       z     vdW  Elec       q    Type
REMARK                         _______ _______ _______ _____ _____    ______ ____
ROOT
ATOM      1  C   UNL     1       1.615   8.233  19.807  0.00  0.00    +0.000 C 
ATOM      2  O   UNL     1       1.417   8.128  21.012  0.00  0.00    +0.000 OA
ATOM      3  N   UNL     1       1.078   9.229  18.991  0.00  0.00    +0.000 N 
ATOM      4  H   UNL     1       1.441   9.313  18.051  0.00  0.00    +0.000 HD
ENDROOT
BRANCH   1   8
ATOM      5  C   UNL     1       4.533   5.601  18.003  0.00  0.00    +0.000 A 
ATOM      6  C   UNL     1       4.187   6.807  17.388  0.00  0.00    +0.000 A 
ATOM      7  C   UNL     1       3.233   7.657  17.958  0.00  0.00    +0.000 A 
ATOM      8  C   UNL     1       2.600   7.304  19.160  0.00  0.00    +0.000 A 
ATOM      9  C   UNL     1       2.929   6.079  19.789  0.00  0.00    +0.000 A 
ATOM     10  C   UNL     1       3.894   5.249  19.200  0.00  0.00    +0.000 A 
BRANCH   9  11
ATOM     11  N   UNL     1       2.202   5.560  20.871  0.00  0.00    +0.000 N 
ATOM     12  H   UNL     1       1.490   4.868  20.596  0.00  0.00    +0.000 HD
ATOM     13  H   UNL     1       1.888   6.217  21.575  0.00  0.00    +0.000 HD
ENDBRANCH   9  11
BRANCH   5  14
ATOM     14  N   UNL     1       5.475   4.725  17.415  0.00  0.00    +0.000 N 
ATOM     15  H   UNL     1       5.462   3.807  17.862  0.00  0.00    +0.000 HD
BRANCH  14  20
ATOM     16  C   UNL     1       7.079   4.046  12.042  0.00  0.00    +0.000 C 
ATOM     17  N   UNL     1       6.625   4.309  13.417  0.00  0.00    +0.000 N 
ATOM     18  C   UNL     1       7.435   4.942  14.294  0.00  0.00    +0.000 A 
ATOM     19  C   UNL     1       7.050   5.099  15.621  0.00  0.00    +0.000 A 
ATOM     20  C   UNL     1       5.813   4.623  16.050  0.00  0.00    +0.000 A 
ATOM     21  C   UNL     1       4.980   4.014  15.113  0.00  0.00    +0.000 A 
ATOM     22  C   UNL     1       5.408   3.865  13.799  0.00  0.00    +0.000 A 
ENDBRANCH  14  20
ENDBRANCH   5  14
ENDBRANCH   1   8
BRANCH   3  23
ATOM     23  C   UNL     1       0.303  10.325  19.440  0.00  0.00    +0.000 A 
ATOM     24  C   UNL     1       0.831  11.391  20.163  0.00  0.00    +0.000 A 
ATOM     25  C   UNL     1       0.076  12.545  20.384  0.00  0.00    +0.000 A 
ATOM     26  C   UNL     1      -1.213  12.662  19.865  0.00  0.00    +0.000 A 
ATOM     27  C   UNL     1      -1.799  11.532  19.289  0.00  0.00    +0.000 A 
ATOM     28  C   UNL     1      -1.048  10.368  19.080  0.00  0.00    +0.000 A 
BRANCH  26  29
ATOM     29  N   UNL     1      -1.896  13.889  19.861  0.00  0.00    +0.000 N 
ATOM     30  H   UNL     1      -1.593  14.511  19.112  0.00  0.00    +0.000 HD
BRANCH  29  31
ATOM     31  C   UNL     1      -2.508  14.580  20.932  0.00  0.00    +0.000 A 
ATOM     32  C   UNL     1      -1.770  15.621  21.513  0.00  0.00    +0.000 A 
ATOM     33  C   UNL     1      -2.227  16.226  22.675  0.00  0.00    +0.000 A 
ATOM     34  N   UNL     1      -3.440  15.920  23.159  0.00  0.00    +0.000 N 
ATOM     35  C   UNL     1      -3.758  16.140  24.584  0.00  0.00    +0.000 C 
ATOM     36  C   UNL     1      -4.294  15.147  22.437  0.00  0.00    +0.000 A 
ATOM     37  C   UNL     1      -5.637  15.103  22.794  0.00  0.00    +0.000 A 
ATOM     38  C   UNL     1      -6.142  13.841  23.011  0.00  0.00    +0.000 A 
ATOM     39  C   UNL     1      -5.647  12.827  22.198  0.00  0.00    +0.000 A 
ATOM     40  C   UNL     1      -4.556  13.076  21.338  0.00  0.00    +0.000 A 
ATOM     41  C   UNL     1      -3.784  14.267  21.490  0.00  0.00    +0.000 A 
BRANCH  38  42
ATOM     42  N   UNL     1      -6.651  13.591  24.288  0.00  0.00    +0.000 N 
ATOM     43  H   UNL     1      -7.228  12.755  24.356  0.00  0.00    +0.000 HD
ATOM     44  H   UNL     1      -5.984  13.641  25.051  0.00  0.00    +0.000 HD
ENDBRANCH  38  42
ENDBRANCH  29  31
ENDBRANCH  26  29
ENDBRANCH   3  23
TORSDOF 8
ENDMDL
MODEL 3
REMARK VINA RESULT:      -8.0      1.582      2.217
REMARK  Name = 
REMARK  10 active torsions:
REMARK  status: ('A' for Active; 'I' for Inactive)
REMARK    1  A    between atoms: C_1  and  N_2
REMARK    2  A    between atoms: C_5  and  N_6
REMARK    3  A    between atoms: N_6  and  C_7
REMARK    4  A    between atoms: C_10  and  C_11
REMARK    5  A    between atoms: N_13  and  C_14
REMARK    6  A    between atoms: C_17  and  N_18
REMARK    7  A    between atoms: N_18  and  C_19
REMARK    8  A    between atoms: N_22  and  C_23
REMARK    9  A    between atoms: C_26  and  N_27
REMARK   10  A    between atoms: C_33  and  N_34
REMARK                            x       y       z     vdW  Elec       q    Type
REMARK                         _______ _______ _______ _____ _____    ______ ____
ROOT
ATOM      1  C   UNL     1       1.594   8.063  19.998  0.00  0.00    +0.000 C 
ATOM      2  O   UNL     1       1.393   7.973  21.204  0.00  0.00    +0.000 OA
ATOM      3  N   UNL     1       1.160   9.115  19.191  0.00  0.00    +0.000 N 
ATOM      4  H   UNL     1       1.524   9.165  18.249  0.00  0.00    +0.000 HD
ENDROOT
BRANCH   1   8
ATOM      5  C   UNL     1       4.200   5.137  18.169  0.00  0.00    +0.000 A 
ATOM      6  C   UNL     1       4.079   6.419  17.627  0.00  0.00    +0.000 A 
ATOM      7  C   UNL     1       3.226   7.367  18.204  0.00  0.00    +0.000 A 
ATOM      8  C   UNL     1       2.469   7.038  19.340  0.00  0.00    +0.000 A 
ATOM      9  C   UNL     1       2.570   5.739  19.894  0.00  0.00    +0.000 A 
ATOM     10  C   UNL     1       3.438   4.811  19.299  0.00  0.00    +0.000 A 
BRANCH   9  11
ATOM     11  N   UNL     1       1.704   5.268  20.892  0.00  0.00    +0.000 N 
ATOM     12  H   UNL     1       1.018   4.578  20.552  0.00  0.00    +0.000 HD
ATOM     13  H   UNL     1       1.317   5.953  21.530  0.00  0.00    +0.000 HD
ENDBRANCH   9  11
BRANCH   5  14
ATOM     14  N   UNL     1       5.037   4.167  17.572  0.00  0.00    +0.000 N 
ATOM     15  H   UNL     1       4.672   3.224  17.706  0.00  0.00    +0.000 HD
BRANCH  14  20
ATOM     16  C   UNL     1       7.600   4.883  12.589  0.00  0.00    +0.000 C 
ATOM     17  N   UNL     1       6.971   4.608  13.891  0.00  0.00    +0.000 N 
ATOM     18  C   UNL     1       5.751   4.032  13.952  0.00  0.00    +0.000 A 
ATOM     19  C   UNL     1       5.110   3.866  15.175  0.00  0.00    +0.000 A 
ATOM     20  C   UNL     1       5.735   4.275  16.351  0.00  0.00    +0.000 A 
ATOM     21  C   UNL     1       7.012   4.825  16.262  0.00  0.00    +0.000 A 
ATOM     22  C   UNL     1       7.613   4.985  15.019  0.00  0.00    +0.000 A 
ENDBRANCH  14  20
ENDBRANCH   5  14
ENDBRANCH   1   8
BRANCH   3  23
ATOM     23  C   UNL     1       0.510  10.285  19.650  0.00  0.00    +0.000 A 
ATOM     24  C   UNL     1      -0.860  10.501  19.522  0.00  0.00    +0.000 A 
ATOM     25  C   UNL     1      -1.478  11.561  20.187  0.00  0.00    +0.000 A 
ATOM     26  C   UNL     1      -0.742  12.412  21.011  0.00  0.00    +0.000 A 
ATOM     27  C   UNL     1       0.651  12.297  21.003  0.00  0.00    +0.000 A 
ATOM     28  C   UNL     1       1.275  11.242  20.324  0.00  0.00    +0.000 A 
BRANCH  26  29
ATOM     29  N   UNL     1      -1.369  13.324  21.874  0.00  0.00    +0.000 N 
ATOM     30  H   UNL     1      -1.010  13.282  22.828  0.00  0.00    +0.000 HD
BRANCH  29  31
ATOM     31  C   UNL     1      -2.665  13.885  21.802  0.00  0.00    +0.000 A 
ATOM     32  C   UNL     1      -2.810  15.032  21.007  0.00  0.00    +0.000 A 
ATOM     33  C   UNL     1      -4.004  15.738  21.026  0.00  0.00    +0.000 A 
ATOM     34  N   UNL     1      -5.064  15.245  21.686  0.00  0.00    +0.000 N 
ATOM     35  C   UNL     1      -6.148  16.141  22.140  0.00  0.00    +0.000 C 
ATOM     36  C   UNL     1      -5.032  13.987  22.199  0.00  0.00    +0.000 A 
ATOM     37  C   UNL     1      -6.222  13.383  22.590  0.00  0.00    +0.000 A 
ATOM     38  C   UNL     1      -6.242  12.917  23.885  0.00  0.00    +0.000 A 
ATOM     39  C   UNL     1      -5.050  12.392  24.373  0.00  0.00    +0.000 A 
ATOM     40  C   UNL     1      -3.860  12.517  23.623  0.00  0.00    +0.000 A 
ATOM     41  C   UNL     1      -3.809  13.406  22.508  0.00  0.00    +0.000 A 
BRANCH  38  42
ATOM     42  N   UNL     1      -7.213  13.468  24.724  0.00  0.00    +0.000 N 
ATOM     43  H   UNL     1      -7.053  13.308  25.717  0.00  0.00    +0.000 HD
ATOM     44  H   UNL     1      -7.461  14.436  24.543  0.00  0.00    +0.000 HD
ENDBRANCH  38  42
ENDBRANCH  29  31
ENDBRANCH  26  29
ENDBRANCH   3  23
TORSDOF 8
ENDMDL
MODEL 4
REMARK VINA RESULT:      -7.9      1.686      3.204
REMARK  Name = 
REMARK  10 active torsions:
REMARK  status: ('A' for Active; 'I' for Inactive)
REMARK    1  A    between atoms: C_1  and  N_2
REMARK    2  A    between atoms: C_5  and  N_6
REMARK    3  A    between atoms: N_6  and  C_7
REMARK    4  A    between atoms: C_10  and  C_11
REMARK    5  A    between atoms: N_13  and  C_14
REMARK    6  A    between atoms: C_17  and  N_18
REMARK    7  A    between atoms: N_18  and  C_19
REMARK    8  A    between atoms: N_22  and  C_23
REMARK    9  A    between atoms: C_26  and  N_27
REMARK   10  A    between atoms: C_33  and  N_34
REMARK                            x       y       z     vdW  Elec       q    Type
REMARK                         _______ _______ _______ _____ _____    ______ ____
ROOT
ATOM      1  C   UNL     1       1.045   9.389  19.542  0.00  0.00    +0.000 C 
ATOM      2  O   UNL     1       0.090   9.685  18.832  0.00  0.00    +0.000 OA
ATOM      3  N   UNL     1       1.300   9.925  20.804  0.00  0.00    +0.000 N 
ATOM      4  H   UNL     1       2.020   9.487  21.363  0.00  0.00    +0.000 HD
ENDROOT
BRANCH   1   8
ATOM      5  C   UNL     1       3.753   6.256  18.298  0.00  0.00    +0.000 A 
ATOM      6  C   UNL     1       3.509   7.356  17.470  0.00  0.00    +0.000 A 
ATOM      7  C   UNL     1       2.623   8.366  17.860  0.00  0.00    +0.000 A 
ATOM      8  C   UNL     1       1.955   8.285  19.092  0.00  0.00    +0.000 A 
ATOM      9  C   UNL     1       2.181   7.171  19.936  0.00  0.00    +0.000 A 
ATOM     10  C   UNL     1       3.080   6.176  19.524  0.00  0.00    +0.000 A 
BRANCH   9  11
ATOM     11  N   UNL     1       1.408   6.913  21.078  0.00  0.00    +0.000 N 
ATOM     12  H   UNL     1       0.472   6.536  20.867  0.00  0.00    +0.000 HD
ATOM     13  H   UNL     1       1.414   7.613  21.809  0.00  0.00    +0.000 HD
ENDBRANCH   9  11
BRANCH   5  14
ATOM     14  N   UNL     1       4.625   5.218  17.896  0.00  0.00    +0.000 N 
ATOM     15  H   UNL     1       4.315   4.312  18.248  0.00  0.00    +0.000 HD
BRANCH  14  20
ATOM     16  C   UNL     1       7.476   4.418  13.085  0.00  0.00    +0.000 C 
ATOM     17  N   UNL     1       6.705   4.712  14.304  0.00  0.00    +0.000 N 
ATOM     18  C   UNL     1       7.284   5.360  15.338  0.00  0.00    +0.000 A 
ATOM     19  C   UNL     1       6.591   5.548  16.529  0.00  0.00    +0.000 A 
ATOM     20  C   UNL     1       5.282   5.086  16.655  0.00  0.00    +0.000 A 
ATOM     21  C   UNL     1       4.696   4.460  15.557  0.00  0.00    +0.000 A 
ATOM     22  C   UNL     1       5.427   4.282  14.388  0.00  0.00    +0.000 A 
ENDBRANCH  14  20
ENDBRANCH   5  14
ENDBRANCH   1   8
BRANCH   3  23
ATOM     23  C   UNL     1       0.451  10.815  21.503  0.00  0.00    +0.000 A 
ATOM     24  C   UNL     1       0.380  12.179  21.232  0.00  0.00    +0.000 A 
ATOM     25  C   UNL     1      -0.629  12.965  21.792  0.00  0.00    +0.000 A 
ATOM     26  C   UNL     1      -1.600  12.397  22.616  0.00  0.00    +0.000 A 
ATOM     27  C   UNL     1      -1.428  11.069  23.021  0.00  0.00    +0.000 A 
ATOM     28  C   UNL     1      -0.407  10.283  22.471  0.00  0.00    +0.000 A 
BRANCH  26  29
ATOM     29  N   UNL     1      -2.752  13.104  22.991  0.00  0.00    +0.000 N 
ATOM     30  H   UNL     1      -2.712  13.453  23.949  0.00  0.00    +0.000 HD
BRANCH  29  31
ATOM     31  C   UNL     1      -4.076  12.987  22.507  0.00  0.00    +0.000 A 
ATOM     32  C   UNL     1      -5.101  13.012  23.464  0.00  0.00    +0.000 A 
ATOM     33  C   UNL     1      -6.405  12.728  23.086  0.00  0.00    +0.000 A 
ATOM     34  N   UNL     1      -6.709  12.576  21.788  0.00  0.00    +0.000 N 
ATOM     35  C   UNL     1      -7.910  11.817  21.383  0.00  0.00    +0.000 C 
ATOM     36  C   UNL     1      -5.790  12.857  20.827  0.00  0.00    +0.000 A 
ATOM     37  C   UNL     1      -6.208  13.002  19.510  0.00  0.00    +0.000 A 
ATOM     38  C   UNL     1      -5.555  12.203  18.599  0.00  0.00    +0.000 A 
ATOM     39  C   UNL     1      -4.205  11.969  18.836  0.00  0.00    +0.000 A 
ATOM     40  C   UNL     1      -3.614  12.388  20.047  0.00  0.00    +0.000 A 
ATOM     41  C   UNL     1      -4.437  12.799  21.139  0.00  0.00    +0.000 A 
BRANCH  38  42
ATOM     42  N   UNL     1      -6.352  11.308  17.881  0.00  0.00    +0.000 N 
ATOM     43  H   UNL     1      -6.854  11.725  17.099  0.00  0.00    +0.000 HD
ATOM     44  H   UNL     1      -5.909  10.435  17.610  0.00  0.00    +0.000 HD
ENDBRANCH  38  42
ENDBRANCH  29  31
ENDBRANCH  26  29
ENDBRANCH   3  23
TORSDOF 8
ENDMDL
MODEL 5
REMARK VINA RESULT:      -7.9      1.642      3.051
REMARK  Name = 
REMARK  10 active torsions:
REMARK  status: ('A' for Active; 'I' for Inactive)
REMARK    1  A    between atoms: C_1  and  N_2
REMARK    2  A    between atoms: C_5  and  N_6
REMARK    3  A    between atoms: N_6  and  C_7
REMARK    4  A    between atoms: C_10  and  C_11
REMARK    5  A    between atoms: N_13  and  C_14
REMARK    6  A    between atoms: C_17  and  N_18
REMARK    7  A    between atoms: N_18  and  C_19
REMARK    8  A    between atoms: N_22  and  C_23
REMARK    9  A    between atoms: C_26  and  N_27
REMARK   10  A    between atoms: C_33  and  N_34
REMARK                            x       y       z     vdW  Elec       q    Type
REMARK                         _______ _______ _______ _____ _____    ______ ____
ROOT
ATOM      1  C   UNL     1       1.674   7.750  20.236  0.00  0.00    +0.000 C 
ATOM      2  O   UNL     1       1.577   7.579  21.447  0.00  0.00    +0.000 OA
ATOM      3  N   UNL     1       1.214   8.873  19.548  0.00  0.00    +0.000 N 
ATOM      4  H   UNL     1       1.495   8.979  18.582  0.00  0.00    +0.000 HD
ENDROOT
BRANCH   1   8
ATOM      5  C   UNL     1       3.985   4.874  17.982  0.00  0.00    +0.000 A 
ATOM      6  C   UNL     1       3.919   6.210  17.574  0.00  0.00    +0.000 A 
ATOM      7  C   UNL     1       3.161   7.143  18.290  0.00  0.00    +0.000 A 
ATOM      8  C   UNL     1       2.446   6.746  19.431  0.00  0.00    +0.000 A 
ATOM      9  C   UNL     1       2.491   5.395  19.850  0.00  0.00    +0.000 A 
ATOM     10  C   UNL     1       3.265   4.482  19.118  0.00  0.00    +0.000 A 
BRANCH   9  11
ATOM     11  N   UNL     1       1.651   4.878  20.847  0.00  0.00    +0.000 N 
ATOM     12  H   UNL     1       1.892   5.197  21.797  0.00  0.00    +0.000 HD
ATOM     13  H   UNL     1       1.416   3.895  20.790  0.00  0.00    +0.000 HD
ENDBRANCH   9  11
BRANCH   5  14
ATOM     14  N   UNL     1       4.725   3.922  17.244  0.00  0.00    +0.000 N 
ATOM     15  H   UNL     1       4.201   3.055  17.120  0.00  0.00    +0.000 HD
BRANCH  14  20
ATOM     16  C   UNL     1       7.900   5.166  12.741  0.00  0.00    +0.000 C 
ATOM     17  N   UNL     1       7.117   4.756  13.918  0.00  0.00    +0.000 N 
ATOM     18  C   UNL     1       5.944   4.104  13.764  0.00  0.00    +0.000 A 
ATOM     19  C   UNL     1       5.153   3.807  14.868  0.00  0.00    +0.000 A 
ATOM     20  C   UNL     1       5.577   4.163  16.147  0.00  0.00    +0.000 A 
ATOM     21  C   UNL     1       6.812   4.795  16.279  0.00  0.00    +0.000 A 
ATOM     22  C   UNL     1       7.567   5.085  15.149  0.00  0.00    +0.000 A 
ENDBRANCH  14  20
ENDBRANCH   5  14
ENDBRANCH   1   8
BRANCH   3  23
ATOM     23  C   UNL     1       0.655  10.028  20.145  0.00  0.00    +0.000 A 
ATOM     24  C   UNL     1       0.755  11.301  19.591  0.00  0.00    +0.000 A 
ATOM     25  C   UNL     1      -0.000  12.360  20.100  0.00  0.00    +0.000 A 
ATOM     26  C   UNL     1      -0.886  12.159  21.158  0.00  0.00    +0.000 A 
ATOM     27  C   UNL     1      -0.858  10.927  21.819  0.00  0.00    +0.000 A 
ATOM     28  C   UNL     1      -0.089   9.867  21.318  0.00  0.00    +0.000 A 
BRANCH  26  29
ATOM     29  N   UNL     1      -1.826  13.134  21.526  0.00  0.00    +0.000 N 
ATOM     30  H   UNL     1      -1.482  13.766  22.249  0.00  0.00    +0.000 HD
BRANCH  29  31
ATOM     31  C   UNL     1      -3.238  13.089  21.464  0.00  0.00    +0.000 A 
ATOM     32  C   UNL     1      -3.928  13.333  22.661  0.00  0.00    +0.000 A 
ATOM     33  C   UNL     1      -5.300  13.134  22.719  0.00  0.00    +0.000 A 
ATOM     34  N   UNL     1      -5.985  12.854  21.600  0.00  0.00    +0.000 N 
ATOM     35  C   UNL     1      -7.294  12.173  21.672  0.00  0.00    +0.000 C 
ATOM     36  C   UNL     1      -5.379  12.923  20.385  0.00  0.00    +0.000 A 
ATOM     37  C   UNL     1      -6.161  12.944  19.237  0.00  0.00    +0.000 A 
ATOM     38  C   UNL     1      -5.856  11.979  18.304  0.00  0.00    +0.000 A 
ATOM     39  C   UNL     1      -4.513  11.644  18.175  0.00  0.00    +0.000 A 
ATOM     40  C   UNL     1      -3.565  12.149  19.092  0.00  0.00    +0.000 A 
ATOM     41  C   UNL     1      -4.000  12.770  20.300  0.00  0.00    +0.000 A 
BRANCH  38  42
ATOM     42  N   UNL     1      -6.881  11.086  17.984  0.00  0.00    +0.000 N 
ATOM     43  H   UNL     1      -7.518  10.880  18.752  0.00  0.00    +0.000 HD
ATOM     44  H   UNL     1      -7.390  11.280  17.127  0.00  0.00    +0.000 HD
ENDBRANCH  38  42
ENDBRANCH  29  31
ENDBRANCH  26  29
ENDBRANCH   3  23
TORSDOF 8
ENDMDL
MODEL 6
REMARK VINA RESULT:      -7.8      7.607      9.704
REMARK  Name = 
REMARK  10 active torsions:
REMARK  status: ('A' for Active; 'I' for Inactive)
REMARK    1  A    between atoms: C_1  and  N_2
REMARK    2  A    between atoms: C_5  and  N_6
REMARK    3  A    between atoms: N_6  and  C_7
REMARK    4  A    between atoms: C_10  and  C_11
REMARK    5  A    between atoms: N_13  and  C_14
REMARK    6  A    between atoms: C_17  and  N_18
REMARK    7  A    between atoms: N_18  and  C_19
REMARK    8  A    between atoms: N_22  and  C_23
REMARK    9  A    between atoms: C_26  and  N_27
REMARK   10  A    between atoms: C_33  and  N_34
REMARK                            x       y       z     vdW  Elec       q    Type
REMARK                         _______ _______ _______ _____ _____    ______ ____
ROOT
ATOM      1  C   UNL     1       8.144   8.685  18.020  0.00  0.00    +0.000 C 
ATOM      2  O   UNL     1       7.748   9.364  17.078  0.00  0.00    +0.000 OA
ATOM      3  N   UNL     1       9.013   9.129  19.016  0.00  0.00    +0.000 N 
ATOM      4  H   UNL     1       9.139   8.538  19.827  0.00  0.00    +0.000 HD
ENDROOT
BRANCH   1   8
ATOM      5  C   UNL     1       6.429   4.761  18.615  0.00  0.00    +0.000 A 
ATOM      6  C   UNL     1       7.570   5.153  19.320  0.00  0.00    +0.000 A 
ATOM      7  C   UNL     1       8.139   6.416  19.122  0.00  0.00    +0.000 A 
ATOM      8  C   UNL     1       7.573   7.310  18.200  0.00  0.00    +0.000 A 
ATOM      9  C   UNL     1       6.425   6.923  17.468  0.00  0.00    +0.000 A 
ATOM     10  C   UNL     1       5.870   5.654  17.691  0.00  0.00    +0.000 A 
BRANCH   9  11
ATOM     11  N   UNL     1       5.923   7.668  16.390  0.00  0.00    +0.000 N 
ATOM     12  H   UNL     1       5.601   8.611  16.654  0.00  0.00    +0.000 HD
ATOM     13  H   UNL     1       5.310   7.190  15.742  0.00  0.00    +0.000 HD
ENDBRANCH   9  11
BRANCH   5  14
ATOM     14  N   UNL     1       5.868   3.475  18.791  0.00  0.00    +0.000 N 
ATOM     15  H   UNL     1       6.391   2.929  19.475  0.00  0.00    +0.000 HD
BRANCH  14  20
ATOM     16  C   UNL     1       0.310   2.471  18.911  0.00  0.00    +0.000 C 
ATOM     17  N   UNL     1       1.772   2.638  18.895  0.00  0.00    +0.000 N 
ATOM     18  C   UNL     1       2.444   2.886  20.040  0.00  0.00    +0.000 A 
ATOM     19  C   UNL     1       3.810   3.147  20.014  0.00  0.00    +0.000 A 
ATOM     20  C   UNL     1       4.499   3.133  18.804  0.00  0.00    +0.000 A 
ATOM     21  C   UNL     1       3.789   2.832  17.643  0.00  0.00    +0.000 A 
ATOM     22  C   UNL     1       2.422   2.589  17.711  0.00  0.00    +0.000 A 
ENDBRANCH  14  20
ENDBRANCH   5  14
ENDBRANCH   1   8
BRANCH   3  23
ATOM     23  C   UNL     1       9.495  10.453  19.153  0.00  0.00    +0.000 A 
ATOM     24  C   UNL     1      10.008  11.195  18.093  0.00  0.00    +0.000 A 
ATOM     25  C   UNL     1      10.257  12.561  18.235  0.00  0.00    +0.000 A 
ATOM     26  C   UNL     1       9.977  13.215  19.435  0.00  0.00    +0.000 A 
ATOM     27  C   UNL     1       9.626  12.440  20.544  0.00  0.00    +0.000 A 
ATOM     28  C   UNL     1       9.389  11.065  20.406  0.00  0.00    +0.000 A 
BRANCH  26  29
ATOM     29  N   UNL     1       9.987  14.615  19.530  0.00  0.00    +0.000 N 
ATOM     30  H   UNL     1      10.916  14.996  19.711  0.00  0.00    +0.000 HD
BRANCH  29  31
ATOM     31  C   UNL     1       8.950  15.498  19.911  0.00  0.00    +0.000 A 
ATOM     32  C   UNL     1       9.177  16.279  21.053  0.00  0.00    +0.000 A 
ATOM     33  C   UNL     1       8.144  17.035  21.589  0.00  0.00    +0.000 A 
ATOM     34  N   UNL     1       6.977  17.135  20.934  0.00  0.00    +0.000 N 
ATOM     35  C   UNL     1       5.739  17.490  21.657  0.00  0.00    +0.000 C 
ATOM     36  C   UNL     1       6.848  16.639  19.675  0.00  0.00    +0.000 A 
ATOM     37  C   UNL     1       5.759  17.024  18.902  0.00  0.00    +0.000 A 
ATOM     38  C   UNL     1       5.009  15.988  18.393  0.00  0.00    +0.000 A 
ATOM     39  C   UNL     1       5.706  14.843  18.020  0.00  0.00    +0.000 A 
ATOM     40  C   UNL     1       7.076  14.714  18.331  0.00  0.00    +0.000 A 
ATOM     41  C   UNL     1       7.687  15.613  19.256  0.00  0.00    +0.000 A 
BRANCH  38  42
ATOM     42  N   UNL     1       3.667  15.951  18.778  0.00  0.00    +0.000 N 
ATOM     43  H   UNL     1       3.218  15.045  18.658  0.00  0.00    +0.000 HD
ATOM     44  H   UNL     1       3.452  16.350  19.687  0.00  0.00    +0.000 HD
ENDBRANCH  38  42
ENDBRANCH  29  31
ENDBRANCH  26  29
ENDBRANCH   3  23
TORSDOF 8
ENDMDL
MODEL 7
REMARK VINA RESULT:      -7.8      1.374      1.736
REMARK  Name = 
REMARK  10 active torsions:
REMARK  status: ('A' for Active; 'I' for Inactive)
REMARK    1  A    between atoms: C_1  and  N_2
REMARK    2  A    between atoms: C_5  and  N_6
REMARK    3  A    between atoms: N_6  and  C_7
REMARK    4  A    between atoms: C_10  and  C_11
REMARK    5  A    between atoms: N_13  and  C_14
REMARK    6  A    between atoms: C_17  and  N_18
REMARK    7  A    between atoms: N_18  and  C_19
REMARK    8  A    between atoms: N_22  and  C_23
REMARK    9  A    between atoms: C_26  and  N_27
REMARK   10  A    between atoms: C_33  and  N_34
REMARK                            x       y       z     vdW  Elec       q    Type
REMARK                         _______ _______ _______ _____ _____    ______ ____
ROOT
ATOM      1  C   UNL     1       1.633   8.486  19.121  0.00  0.00    +0.000 C 
ATOM      2  O   UNL     1       1.456   8.603  20.329  0.00  0.00    +0.000 OA
ATOM      3  N   UNL     1       1.003   9.255  18.142  0.00  0.00    +0.000 N 
ATOM      4  H   UNL     1       1.348   9.183  17.194  0.00  0.00    +0.000 HD
ENDROOT
BRANCH   1   8
ATOM      5  C   UNL     1       4.745   5.791  17.798  0.00  0.00    +0.000 A 
ATOM      6  C   UNL     1       4.404   6.913  17.037  0.00  0.00    +0.000 A 
ATOM      7  C   UNL     1       3.388   7.781  17.451  0.00  0.00    +0.000 A 
ATOM      8  C   UNL     1       2.686   7.532  18.641  0.00  0.00    +0.000 A 
ATOM      9  C   UNL     1       3.010   6.394  19.417  0.00  0.00    +0.000 A 
ATOM     10  C   UNL     1       4.038   5.543  18.983  0.00  0.00    +0.000 A 
BRANCH   9  11
ATOM     11  N   UNL     1       2.229   5.964  20.500  0.00  0.00    +0.000 N 
ATOM     12  H   UNL     1       1.784   5.046  20.350  0.00  0.00    +0.000 HD
ATOM     13  H   UNL     1       1.623   6.649  20.934  0.00  0.00    +0.000 HD
ENDBRANCH   9  11
BRANCH   5  14
ATOM     14  N   UNL     1       5.750   4.895  17.369  0.00  0.00    +0.000 N 
ATOM     15  H   UNL     1       5.776   4.056  17.948  0.00  0.00    +0.000 HD
BRANCH  14  20
ATOM     16  C   UNL     1       6.995   3.978  11.936  0.00  0.00    +0.000 C 
ATOM     17  N   UNL     1       6.721   4.136  13.373  0.00  0.00    +0.000 N 
ATOM     18  C   UNL     1       5.627   3.568  13.926  0.00  0.00    +0.000 A 
ATOM     19  C   UNL     1       5.309   3.801  15.259  0.00  0.00    +0.000 A 
ATOM     20  C   UNL     1       6.132   4.609  16.041  0.00  0.00    +0.000 A 
ATOM     21  C   UNL     1       7.276   5.147  15.456  0.00  0.00    +0.000 A 
ATOM     22  C   UNL     1       7.552   4.899  14.117  0.00  0.00    +0.000 A 
ENDBRANCH  14  20
ENDBRANCH   5  14
ENDBRANCH   1   8
BRANCH   3  23
ATOM     23  C   UNL     1       0.142  10.351  18.389  0.00  0.00    +0.000 A 
ATOM     24  C   UNL     1      -1.231  10.314  18.160  0.00  0.00    +0.000 A 
ATOM     25  C   UNL     1      -2.059  11.335  18.629  0.00  0.00    +0.000 A 
ATOM     26  C   UNL     1      -1.531  12.403  19.355  0.00  0.00    +0.000 A 
ATOM     27  C   UNL     1      -0.141  12.524  19.436  0.00  0.00    +0.000 A 
ATOM     28  C   UNL     1       0.692  11.506  18.953  0.00  0.00    +0.000 A 
BRANCH  26  29
ATOM     29  N   UNL     1      -2.358  13.306  20.040  0.00  0.00    +0.000 N 
ATOM     30  H   UNL     1      -2.358  14.239  19.628  0.00  0.00    +0.000 HD
BRANCH  29  31
ATOM     31  C   UNL     1      -2.756  13.309  21.398  0.00  0.00    +0.000 A 
ATOM     32  C   UNL     1      -2.392  12.190  22.162  0.00  0.00    +0.000 A 
ATOM     33  C   UNL     1      -2.895  12.039  23.446  0.00  0.00    +0.000 A 
ATOM     34  N   UNL     1      -3.604  13.029  24.009  0.00  0.00    +0.000 N 
ATOM     35  C   UNL     1      -4.540  12.745  25.116  0.00  0.00    +0.000 C 
ATOM     36  C   UNL     1      -3.699  14.241  23.401  0.00  0.00    +0.000 A 
ATOM     37  C   UNL     1      -4.157  15.332  24.131  0.00  0.00    +0.000 A 
ATOM     38  C   UNL     1      -5.223  16.001  23.574  0.00  0.00    +0.000 A 
ATOM     39  C   UNL     1      -5.246  16.085  22.186  0.00  0.00    +0.000 A 
ATOM     40  C   UNL     1      -4.314  15.356  21.416  0.00  0.00    +0.000 A 
ATOM     41  C   UNL     1      -3.532  14.330  22.025  0.00  0.00    +0.000 A 
BRANCH  38  42
ATOM     42  N   UNL     1      -6.388  16.052  24.343  0.00  0.00    +0.000 N 
ATOM     43  H   UNL     1      -6.601  16.972  24.726  0.00  0.00    +0.000 HD
ATOM     44  H   UNL     1      -7.213  15.626  23.932  0.00  0.00    +0.000 HD
ENDBRANCH  38  42
ENDBRANCH  29  31
ENDBRANCH  26  29
ENDBRANCH   3  23
TORSDOF 8
ENDMDL
MODEL 8
REMARK VINA RESULT:      -7.7      3.217     12.493
REMARK  Name = 
REMARK  10 active torsions:
REMARK  status: ('A' for Active; 'I' for Inactive)
REMARK    1  A    between atoms: C_1  and  N_2
REMARK    2  A    between atoms: C_5  and  N_6
REMARK    3  A    between atoms: N_6  and  C_7
REMARK    4  A    between atoms: C_10  and  C_11
REMARK    5  A    between atoms: N_13  and  C_14
REMARK    6  A    between atoms: C_17  and  N_18
REMARK    7  A    between atoms: N_18  and  C_19
REMARK    8  A    between atoms: N_22  and  C_23
REMARK    9  A    between atoms: C_26  and  N_27
REMARK   10  A    between atoms: C_33  and  N_34
REMARK                            x       y       z     vdW  Elec       q    Type
REMARK                         _______ _______ _______ _____ _____    ______ ____
ROOT
ATOM      1  C   UNL     1      -0.904  12.012  21.479  0.00  0.00    +0.000 C 
ATOM      2  O   UNL     1      -0.495  11.664  22.581  0.00  0.00    +0.000 OA
ATOM      3  N   UNL     1      -0.655  11.337  20.284  0.00  0.00    +0.000 N 
ATOM      4  H   UNL     1      -1.178  11.622  19.466  0.00  0.00    +0.000 HD
ENDROOT
BRANCH   1   8
ATOM      5  C   UNL     1      -3.645  15.354  21.353  0.00  0.00    +0.000 A 
ATOM      6  C   UNL     1      -4.019  14.107  20.844  0.00  0.00    +0.000 A 
ATOM      7  C   UNL     1      -3.133  13.025  20.868  0.00  0.00    +0.000 A 
ATOM      8  C   UNL     1      -1.843  13.180  21.400  0.00  0.00    +0.000 A 
ATOM      9  C   UNL     1      -1.443  14.439  21.908  0.00  0.00    +0.000 A 
ATOM     10  C   UNL     1      -2.354  15.505  21.878  0.00  0.00    +0.000 A 
BRANCH   9  11
ATOM     11  N   UNL     1      -0.118  14.729  22.264  0.00  0.00    +0.000 N 
ATOM     12  H   UNL     1       0.314  15.464  21.684  0.00  0.00    +0.000 HD
ATOM     13  H   UNL     1       0.493  13.945  22.456  0.00  0.00    +0.000 HD
ENDBRANCH   9  11
BRANCH   5  14
ATOM     14  N   UNL     1      -4.527  16.458  21.304  0.00  0.00    +0.000 N 
ATOM     15  H   UNL     1      -4.249  17.188  21.961  0.00  0.00    +0.000 HD
BRANCH  14  20
ATOM     16  C   UNL     1      -6.725  18.520  16.527  0.00  0.00    +0.000 C 
ATOM     17  N   UNL     1      -6.208  18.045  17.821  0.00  0.00    +0.000 N 
ATOM     18  C   UNL     1      -5.122  18.626  18.376  0.00  0.00    +0.000 A 
ATOM     19  C   UNL     1      -4.569  18.114  19.544  0.00  0.00    +0.000 A 
ATOM     20  C   UNL     1      -5.147  17.008  20.164  0.00  0.00    +0.000 A 
ATOM     21  C   UNL     1      -6.293  16.457  19.592  0.00  0.00    +0.000 A 
ATOM     22  C   UNL     1      -6.807  16.991  18.417  0.00  0.00    +0.000 A 
ENDBRANCH  14  20
ENDBRANCH   5  14
ENDBRANCH   1   8
BRANCH   3  23
ATOM     23  C   UNL     1       0.022  10.100  20.167  0.00  0.00    +0.000 A 
ATOM     24  C   UNL     1       0.843   9.774  19.091  0.00  0.00    +0.000 A 
ATOM     25  C   UNL     1       1.658   8.642  19.134  0.00  0.00    +0.000 A 
ATOM     26  C   UNL     1       1.684   7.826  20.265  0.00  0.00    +0.000 A 
ATOM     27  C   UNL     1       0.739   8.058  21.270  0.00  0.00    +0.000 A 
ATOM     28  C   UNL     1      -0.090   9.187  21.220  0.00  0.00    +0.000 A 
BRANCH  26  29
ATOM     29  N   UNL     1       2.661   6.832  20.434  0.00  0.00    +0.000 N 
ATOM     30  H   UNL     1       3.568   7.208  20.709  0.00  0.00    +0.000 HD
BRANCH  29  31
ATOM     31  C   UNL     1       2.756   5.555  19.834  0.00  0.00    +0.000 A 
ATOM     32  C   UNL     1       2.165   4.489  20.527  0.00  0.00    +0.000 A 
ATOM     33  C   UNL     1       2.368   3.187  20.094  0.00  0.00    +0.000 A 
ATOM     34  N   UNL     1       3.002   2.957  18.934  0.00  0.00    +0.000 N 
ATOM     35  C   UNL     1       3.657   1.657  18.681  0.00  0.00    +0.000 C 
ATOM     36  C   UNL     1       3.304   3.986  18.098  0.00  0.00    +0.000 A 
ATOM     37  C   UNL     1       3.663   3.710  16.784  0.00  0.00    +0.000 A 
ATOM     38  C   UNL     1       4.865   4.247  16.383  0.00  0.00    +0.000 A 
ATOM     39  C   UNL     1       5.192   5.494  16.903  0.00  0.00    +0.000 A 
ATOM     40  C   UNL     1       4.402   6.066  17.924  0.00  0.00    +0.000 A 
ATOM     41  C   UNL     1       3.443   5.268  18.616  0.00  0.00    +0.000 A 
BRANCH  38  42
ATOM     42  N   UNL     1       5.838   3.336  15.965  0.00  0.00    +0.000 N 
ATOM     43  H   UNL     1       5.802   2.433  16.436  0.00  0.00    +0.000 HD
ATOM     44  H   UNL     1       5.940   3.222  14.961  0.00  0.00    +0.000 HD
ENDBRANCH  38  42
ENDBRANCH  29  31
ENDBRANCH  26  29
ENDBRANCH   3  23
TORSDOF 8
ENDMDL
MODEL 9
REMARK VINA RESULT:      -7.7      1.489      2.033
REMARK  Name = 
REMARK  10 active torsions:
REMARK  status: ('A' for Active; 'I' for Inactive)
REMARK    1  A    between atoms: C_1  and  N_2
REMARK    2  A    between atoms: C_5  and  N_6
REMARK    3  A    between atoms: N_6  and  C_7
REMARK    4  A    between atoms: C_10  and  C_11
REMARK    5  A    between atoms: N_13  and  C_14
REMARK    6  A    between atoms: C_17  and  N_18
REMARK    7  A    between atoms: N_18  and  C_19
REMARK    8  A    between atoms: N_22  and  C_23
REMARK    9  A    between atoms: C_26  and  N_27
REMARK   10  A    between atoms: C_33  and  N_34
REMARK                            x       y       z     vdW  Elec       q    Type
REMARK                         _______ _______ _______ _____ _____    ______ ____
ROOT
ATOM      1  C   UNL     1       1.836   8.030  19.749  0.00  0.00    +0.000 C 
ATOM      2  O   UNL     1       1.591   7.855  20.938  0.00  0.00    +0.000 OA
ATOM      3  N   UNL     1       1.398   9.118  18.994  0.00  0.00    +0.000 N 
ATOM      4  H   UNL     1       1.796   9.241  18.073  0.00  0.00    +0.000 HD
ENDROOT
BRANCH   1   8
ATOM      5  C   UNL     1       4.614   5.330  17.828  0.00  0.00    +0.000 A 
ATOM      6  C   UNL     1       4.269   6.543  17.226  0.00  0.00    +0.000 A 
ATOM      7  C   UNL     1       3.359   7.415  17.834  0.00  0.00    +0.000 A 
ATOM      8  C   UNL     1       2.771   7.078  19.063  0.00  0.00    +0.000 A 
ATOM      9  C   UNL     1       3.099   5.848  19.681  0.00  0.00    +0.000 A 
ATOM     10  C   UNL     1       4.020   4.995  19.053  0.00  0.00    +0.000 A 
BRANCH   9  11
ATOM     11  N   UNL     1       2.409   5.347  20.794  0.00  0.00    +0.000 N 
ATOM     12  H   UNL     1       2.203   4.339  20.733  0.00  0.00    +0.000 HD
ATOM     13  H   UNL     1       1.641   5.903  21.151  0.00  0.00    +0.000 HD
ENDBRANCH   9  11
BRANCH   5  14
ATOM     14  N   UNL     1       5.510   4.433  17.203  0.00  0.00    +0.000 N 
ATOM     15  H   UNL     1       5.434   3.494  17.595  0.00  0.00    +0.000 HD
BRANCH  14  20
ATOM     16  C   UNL     1       7.189   3.993  11.828  0.00  0.00    +0.000 C 
ATOM     17  N   UNL     1       6.711   4.193  13.205  0.00  0.00    +0.000 N 
ATOM     18  C   UNL     1       7.481   4.839  14.108  0.00  0.00    +0.000 A 
ATOM     19  C   UNL     1       7.079   4.938  15.435  0.00  0.00    +0.000 A 
ATOM     20  C   UNL     1       5.863   4.388  15.839  0.00  0.00    +0.000 A 
ATOM     21  C   UNL     1       5.070   3.766  14.877  0.00  0.00    +0.000 A 
ATOM     22  C   UNL     1       5.514   3.678  13.563  0.00  0.00    +0.000 A 
ENDBRANCH  14  20
ENDBRANCH   5  14
ENDBRANCH   1   8
BRANCH   3  23
ATOM     23  C   UNL     1       0.691  10.235  19.500  0.00  0.00    +0.000 A 
ATOM     24  C   UNL     1       0.782  11.512  18.953  0.00  0.00    +0.000 A 
ATOM     25  C   UNL     1      -0.101  12.519  19.346  0.00  0.00    +0.000 A 
ATOM     26  C   UNL     1      -1.106  12.262  20.278  0.00  0.00    +0.000 A 
ATOM     27  C   UNL     1      -1.088  11.035  20.948  0.00  0.00    +0.000 A 
ATOM     28  C   UNL     1      -0.193  10.027  20.564  0.00  0.00    +0.000 A 
BRANCH  26  29
ATOM     29  N   UNL     1      -2.148  13.174  20.508  0.00  0.00    +0.000 N 
ATOM     30  H   UNL     1      -1.837  14.024  20.979  0.00  0.00    +0.000 HD
BRANCH  29  31
ATOM     31  C   UNL     1      -3.532  12.935  20.668  0.00  0.00    +0.000 A 
ATOM     32  C   UNL     1      -4.214  12.418  19.556  0.00  0.00    +0.000 A 
ATOM     33  C   UNL     1      -5.598  12.324  19.578  0.00  0.00    +0.000 A 
ATOM     34  N   UNL     1      -6.270  12.586  20.709  0.00  0.00    +0.000 N 
ATOM     35  C   UNL     1      -7.696  12.972  20.663  0.00  0.00    +0.000 C 
ATOM     36  C   UNL     1      -5.604  12.784  21.877  0.00  0.00    +0.000 A 
ATOM     37  C   UNL     1      -6.305  12.736  23.076  0.00  0.00    +0.000 A 
ATOM     38  C   UNL     1      -6.165  13.845  23.879  0.00  0.00    +0.000 A 
ATOM     39  C   UNL     1      -4.919  14.460  23.874  0.00  0.00    +0.000 A 
ATOM     40  C   UNL     1      -3.932  14.058  22.948  0.00  0.00    +0.000 A 
ATOM     41  C   UNL     1      -4.286  13.224  21.845  0.00  0.00    +0.000 A 
BRANCH  38  42
ATOM     42  N   UNL     1      -7.339  14.540  24.179  0.00  0.00    +0.000 N 
ATOM     43  H   UNL     1      -7.951  14.700  23.381  0.00  0.00    +0.000 HD
ATOM     44  H   UNL     1      -7.863  14.206  24.982  0.00  0.00    +0.000 HD
ENDBRANCH  38  42
ENDBRANCH  29  31
ENDBRANCH  26  29
ENDBRANCH   3  23
TORSDOF 8
ENDMDL
