MODEL 1
REMARK VINA RESULT:      -9.3      0.000      0.000
REMARK  Name = 
REMARK  5 active torsions:
REMARK  status: ('A' for Active; 'I' for Inactive)
REMARK    1  A    between atoms: C_4  and  C_5
REMARK    2  A    between atoms: N_7  and  C_8
REMARK    3  A    between atoms: C_8  and  C_9
REMARK    4  A    between atoms: N_23  and  C_24
REMARK    5  A    between atoms: C_24  and  C_25
REMARK                            x       y       z     vdW  Elec       q    Type
REMARK                         _______ _______ _______ _____ _____    ______ ____
ROOT
ATOM      1  C   UNL     1       2.773   6.183  19.722  0.00  0.00    +0.000 A 
ATOM      2  N   UNL     1       4.073   6.105  19.362  0.00  0.00    +0.000 NA
ATOM      3  N   UNL     1       4.326   4.765  19.348  0.00  0.00    +0.000 N 
ATOM      4  C   UNL     1       3.218   4.003  19.617  0.00  0.00    +0.000 A 
ATOM      5  N   UNL     1       3.135   2.655  19.586  0.00  0.00    +0.000 NA
ATOM      6  C   UNL     1       1.902   2.194  19.900  0.00  0.00    +0.000 A 
ATOM      7  C   UNL     1       0.811   2.974  20.254  0.00  0.00    +0.000 A 
ATOM      8  C   UNL     1       0.950   4.362  20.273  0.00  0.00    +0.000 A 
ATOM      9  C   UNL     1       2.202   4.895  19.920  0.00  0.00    +0.000 A 
ENDROOT
BRANCH   1  13
ATOM     10  O   UNL     1       1.044  10.384  18.578  0.00  0.00    +0.000 OA
ATOM     11  C   UNL     1       1.285   9.372  19.209  0.00  0.00    +0.000 A 
ATOM     12  N   UNL     1       1.904   8.245  18.750  0.00  0.00    +0.000 N 
ATOM     13  C   UNL     1       2.089   7.457  19.832  0.00  0.00    +0.000 A 
ATOM     14  N   UNL     1       1.611   7.936  20.945  0.00  0.00    +0.000 NA
ATOM     15  N   UNL     1       1.055   9.141  20.567  0.00  0.00    +0.000 N 
ATOM     16  H   UNL     1       2.242   8.073  17.820  0.00  0.00    +0.000 HD
BRANCH  15  17
ATOM     17  C   UNL     1       0.607  10.126  21.529  0.00  0.00    +0.000 C 
BRANCH  17  18
ATOM     18  C   UNL     1      -0.295   9.591  22.636  0.00  0.00    +0.000 C 
ATOM     19  F   UNL     1       0.360   9.331  23.787  0.00  0.00    +0.000 F 
ATOM     20  F   UNL     1      -1.265  10.496  22.928  0.00  0.00    +0.000 F 
ATOM     21  F   UNL     1      -0.924   8.457  22.250  0.00  0.00    +0.000 F 
ENDBRANCH  17  18
ENDBRANCH  15  17
ENDBRANCH   1  13
BRANCH   3  22
ATOM     22  C   UNL     1       5.600   4.249  18.861  0.00  0.00    +0.000 C 
BRANCH  22  23
ATOM     23  C   UNL     1       5.794   4.311  17.364  0.00  0.00    +0.000 A 
ATOM     24  C   UNL     1       4.723   4.317  16.456  0.00  0.00    +0.000 A 
ATOM     25  C   UNL     1       4.943   4.572  15.096  0.00  0.00    +0.000 A 
ATOM     26  C   UNL     1       6.229   4.828  14.623  0.00  0.00    +0.000 A 
ATOM     27  C   UNL     1       7.303   4.803  15.507  0.00  0.00    +0.000 A 
ATOM     28  C   UNL     1       7.079   4.548  16.859  0.00  0.00    +0.000 A 
ATOM     29  F   UNL     1       8.129   4.572  17.692  0.00  0.00    +0.000 F 
ENDBRANCH  22  23
ENDBRANCH   3  22
TORSDOF 5
ENDMDL
MODEL 2
REMARK VINA RESULT:      -9.1      1.747      2.154
REMARK  Name = 
REMARK  5 active torsions:
REMARK  status: ('A' for Active; 'I' for Inactive)
REMARK    1  A    between atoms: C_4  and  C_5
REMARK    2  A    between atoms: N_7  and  C_8
REMARK    3  A    between atoms: C_8  and  C_9
REMARK    4  A    between atoms: N_23  and  C_24
REMARK    5  A    between atoms: C_24  and  C_25
REMARK                            x       y       z     vdW  Elec       q    Type
REMARK                         _______ _______ _______ _____ _____    ______ ____
ROOT
ATOM      1  C   UNL     1       2.771   6.100  19.730  0.00  0.00    +0.000 A 
ATOM      2  N   UNL     1       4.077   6.009  19.395  0.00  0.00    +0.000 NA
ATOM      3  N   UNL     1       4.294   4.666  19.298  0.00  0.00    +0.000 N 
ATOM      4  C   UNL     1       3.161   3.919  19.492  0.00  0.00    +0.000 A 
ATOM      5  N   UNL     1       3.042   2.580  19.369  0.00  0.00    +0.000 NA
ATOM      6  C   UNL     1       1.790   2.134  19.624  0.00  0.00    +0.000 A 
ATOM      7  C   UNL     1       0.712   2.920  20.004  0.00  0.00    +0.000 A 
ATOM      8  C   UNL     1       0.888   4.299  20.117  0.00  0.00    +0.000 A 
ATOM      9  C   UNL     1       2.162   4.818  19.829  0.00  0.00    +0.000 A 
ENDROOT
BRANCH   1  13
ATOM     10  O   UNL     1       0.319   9.579  21.687  0.00  0.00    +0.000 OA
ATOM     11  C   UNL     1       1.010   8.959  20.902  0.00  0.00    +0.000 A 
ATOM     12  N   UNL     1       1.577   7.732  21.096  0.00  0.00    +0.000 N 
ATOM     13  C   UNL     1       2.119   7.383  19.908  0.00  0.00    +0.000 A 
ATOM     14  N   UNL     1       2.004   8.279  18.969  0.00  0.00    +0.000 NA
ATOM     15  N   UNL     1       1.334   9.314  19.590  0.00  0.00    +0.000 N 
ATOM     16  H   UNL     1       1.523   7.161  21.919  0.00  0.00    +0.000 HD
BRANCH  15  17
ATOM     17  C   UNL     1       0.787  10.436  18.857  0.00  0.00    +0.000 C 
BRANCH  17  18
ATOM     18  C   UNL     1      -0.610  10.221  18.285  0.00  0.00    +0.000 C 
ATOM     19  F   UNL     1      -1.500   9.764  19.191  0.00  0.00    +0.000 F 
ATOM     20  F   UNL     1      -1.103  11.391  17.802  0.00  0.00    +0.000 F 
ATOM     21  F   UNL     1      -0.587   9.351  17.248  0.00  0.00    +0.000 F 
ENDBRANCH  17  18
ENDBRANCH  15  17
ENDBRANCH   1  13
BRANCH   3  22
ATOM     22  C   UNL     1       5.566   4.147  18.807  0.00  0.00    +0.000 C 
BRANCH  22  23
ATOM     23  C   UNL     1       5.782   4.267  17.317  0.00  0.00    +0.000 A 
ATOM     24  C   UNL     1       4.725   4.301  16.394  0.00  0.00    +0.000 A 
ATOM     25  C   UNL     1       4.964   4.608  15.048  0.00  0.00    +0.000 A 
ATOM     26  C   UNL     1       6.255   4.889  14.604  0.00  0.00    +0.000 A 
ATOM     27  C   UNL     1       7.315   4.837  15.503  0.00  0.00    +0.000 A 
ATOM     28  C   UNL     1       7.073   4.529  16.841  0.00  0.00    +0.000 A 
ATOM     29  F   UNL     1       8.110   4.527  17.690  0.00  0.00    +0.000 F 
ENDBRANCH  22  23
ENDBRANCH   3  22
TORSDOF 5
ENDMDL
MODEL 3
REMARK VINA RESULT:      -9.1      0.902      1.452
REMARK  Name = 
REMARK  5 active torsions:
REMARK  status: ('A' for Active; 'I' for Inactive)
REMARK    1  A    between atoms: C_4  and  C_5
REMARK    2  A    between atoms: N_7  and  C_8
REMARK    3  A    between atoms: C_8  and  C_9
REMARK    4  A    between atoms: N_23  and  C_24
REMARK    5  A    between atoms: C_24  and  C_25
REMARK                            x       y       z     vdW  Elec       q    Type
REMARK                         _______ _______ _______ _____ _____    ______ ____
ROOT
ATOM      1  C   UNL     1       2.800   6.176  19.651  0.00  0.00    +0.000 A 
ATOM      2  N   UNL     1       4.066   6.068  19.191  0.00  0.00    +0.000 NA
ATOM      3  N   UNL     1       4.323   4.731  19.261  0.00  0.00    +0.000 N 
ATOM      4  C   UNL     1       3.246   3.994  19.682  0.00  0.00    +0.000 A 
ATOM      5  N   UNL     1       3.166   2.648  19.764  0.00  0.00    +0.000 NA
ATOM      6  C   UNL     1       1.967   2.216  20.215  0.00  0.00    +0.000 A 
ATOM      7  C   UNL     1       0.905   3.023  20.597  0.00  0.00    +0.000 A 
ATOM      8  C   UNL     1       1.039   4.408  20.494  0.00  0.00    +0.000 A 
ATOM      9  C   UNL     1       2.254   4.909  19.997  0.00  0.00    +0.000 A 
ENDROOT
BRANCH   1  13
ATOM     10  O   UNL     1       1.146  10.372  18.382  0.00  0.00    +0.000 OA
ATOM     11  C   UNL     1       1.356   9.367  19.036  0.00  0.00    +0.000 A 
ATOM     12  N   UNL     1       1.984   8.230  18.617  0.00  0.00    +0.000 N 
ATOM     13  C   UNL     1       2.122   7.456  19.716  0.00  0.00    +0.000 A 
ATOM     14  N   UNL     1       1.604   7.954  20.803  0.00  0.00    +0.000 NA
ATOM     15  N   UNL     1       1.072   9.157  20.387  0.00  0.00    +0.000 N 
ATOM     16  H   UNL     1       2.357   8.043  17.703  0.00  0.00    +0.000 HD
BRANCH  15  17
ATOM     17  C   UNL     1       0.593  10.159  21.317  0.00  0.00    +0.000 C 
BRANCH  17  18
ATOM     18  C   UNL     1      -0.242   9.624  22.476  0.00  0.00    +0.000 C 
ATOM     19  F   UNL     1      -0.875   8.466  22.196  0.00  0.00    +0.000 F 
ATOM     20  F   UNL     1       0.550   9.391  23.554  0.00  0.00    +0.000 F 
ATOM     21  F   UNL     1      -1.173  10.525  22.865  0.00  0.00    +0.000 F 
ENDBRANCH  17  18
ENDBRANCH  15  17
ENDBRANCH   1  13
BRANCH   3  22
ATOM     22  C   UNL     1       5.555   4.175  18.712  0.00  0.00    +0.000 C 
BRANCH  22  23
ATOM     23  C   UNL     1       5.843   4.537  17.274  0.00  0.00    +0.000 A 
ATOM     24  C   UNL     1       7.065   5.090  16.857  0.00  0.00    +0.000 A 
ATOM     25  C   UNL     1       7.357   5.228  15.494  0.00  0.00    +0.000 A 
ATOM     26  C   UNL     1       6.440   4.813  14.528  0.00  0.00    +0.000 A 
ATOM     27  C   UNL     1       5.217   4.283  14.927  0.00  0.00    +0.000 A 
ATOM     28  C   UNL     1       4.931   4.151  16.284  0.00  0.00    +0.000 A 
ATOM     29  F   UNL     1       3.761   3.599  16.635  0.00  0.00    +0.000 F 
ENDBRANCH  22  23
ENDBRANCH   3  22
TORSDOF 5
ENDMDL
MODEL 4
REMARK VINA RESULT:      -8.9      1.960      2.496
REMARK  Name = 
REMARK  5 active torsions:
REMARK  status: ('A' for Active; 'I' for Inactive)
REMARK    1  A    between atoms: C_4  and  C_5
REMARK    2  A    between atoms: N_7  and  C_8
REMARK    3  A    between atoms: C_8  and  C_9
REMARK    4  A    between atoms: N_23  and  C_24
REMARK    5  A    between atoms: C_24  and  C_25
REMARK                            x       y       z     vdW  Elec       q    Type
REMARK                         _______ _______ _______ _____ _____    ______ ____
ROOT
ATOM      1  C   UNL     1       2.780   6.150  19.695  0.00  0.00    +0.000 A 
ATOM      2  N   UNL     1       4.056   6.019  19.270  0.00  0.00    +0.000 NA
ATOM      3  N   UNL     1       4.255   4.670  19.250  0.00  0.00    +0.000 N 
ATOM      4  C   UNL     1       3.133   3.953  19.579  0.00  0.00    +0.000 A 
ATOM      5  N   UNL     1       2.995   2.610  19.559  0.00  0.00    +0.000 NA
ATOM      6  C   UNL     1       1.762   2.200  19.937  0.00  0.00    +0.000 A 
ATOM      7  C   UNL     1       0.722   3.024  20.342  0.00  0.00    +0.000 A 
ATOM      8  C   UNL     1       0.917   4.405  20.346  0.00  0.00    +0.000 A 
ATOM      9  C   UNL     1       2.170   4.887  19.928  0.00  0.00    +0.000 A 
ENDROOT
BRANCH   1  13
ATOM     10  O   UNL     1       0.484   9.775  21.575  0.00  0.00    +0.000 OA
ATOM     11  C   UNL     1       1.122   9.099  20.790  0.00  0.00    +0.000 A 
ATOM     12  N   UNL     1       1.686   7.879  21.025  0.00  0.00    +0.000 N 
ATOM     13  C   UNL     1       2.154   7.451  19.832  0.00  0.00    +0.000 A 
ATOM     14  N   UNL     1       1.994   8.291  18.849  0.00  0.00    +0.000 NA
ATOM     15  N   UNL     1       1.373   9.371  19.443  0.00  0.00    +0.000 N 
ATOM     16  H   UNL     1       1.673   7.358  21.884  0.00  0.00    +0.000 HD
BRANCH  15  17
ATOM     17  C   UNL     1       0.797  10.455  18.676  0.00  0.00    +0.000 C 
BRANCH  17  18
ATOM     18  C   UNL     1      -0.647  10.243  18.233  0.00  0.00    +0.000 C 
ATOM     19  F   UNL     1      -1.451   9.784  19.214  0.00  0.00    +0.000 F 
ATOM     20  F   UNL     1      -1.180  11.415  17.800  0.00  0.00    +0.000 F 
ATOM     21  F   UNL     1      -0.719   9.377  17.196  0.00  0.00    +0.000 F 
ENDBRANCH  17  18
ENDBRANCH  15  17
ENDBRANCH   1  13
BRANCH   3  22
ATOM     22  C   UNL     1       5.482   4.102  18.703  0.00  0.00    +0.000 C 
BRANCH  22  23
ATOM     23  C   UNL     1       5.806   4.508  17.284  0.00  0.00    +0.000 A 
ATOM     24  C   UNL     1       7.039   5.069  16.915  0.00  0.00    +0.000 A 
ATOM     25  C   UNL     1       7.365   5.248  15.564  0.00  0.00    +0.000 A 
ATOM     26  C   UNL     1       6.471   4.867  14.564  0.00  0.00    +0.000 A 
ATOM     27  C   UNL     1       5.236   4.331  14.916  0.00  0.00    +0.000 A 
ATOM     28  C   UNL     1       4.917   4.157  16.261  0.00  0.00    +0.000 A 
ATOM     29  F   UNL     1       3.737   3.599  16.566  0.00  0.00    +0.000 F 
ENDBRANCH  22  23
ENDBRANCH   3  22
TORSDOF 5
ENDMDL
MODEL 5
REMARK VINA RESULT:      -8.9      1.979      2.334
REMARK  Name = 
REMARK  5 active torsions:
REMARK  status: ('A' for Active; 'I' for Inactive)
REMARK    1  A    between atoms: C_4  and  C_5
REMARK    2  A    between atoms: N_7  and  C_8
REMARK    3  A    between atoms: C_8  and  C_9
REMARK    4  A    between atoms: N_23  and  C_24
REMARK    5  A    between atoms: C_24  and  C_25
REMARK                            x       y       z     vdW  Elec       q    Type
REMARK                         _______ _______ _______ _____ _____    ______ ____
ROOT
ATOM      1  C   UNL     1       2.784   6.116  19.756  0.00  0.00    +0.000 A 
ATOM      2  N   UNL     1       4.087   6.049  19.404  0.00  0.00    +0.000 NA
ATOM      3  N   UNL     1       4.330   4.710  19.318  0.00  0.00    +0.000 N 
ATOM      4  C   UNL     1       3.215   3.942  19.534  0.00  0.00    +0.000 A 
ATOM      5  N   UNL     1       3.122   2.599  19.427  0.00  0.00    +0.000 NA
ATOM      6  C   UNL     1       1.883   2.131  19.703  0.00  0.00    +0.000 A 
ATOM      7  C   UNL     1       0.794   2.898  20.089  0.00  0.00    +0.000 A 
ATOM      8  C   UNL     1       0.943   4.282  20.186  0.00  0.00    +0.000 A 
ATOM      9  C   UNL     1       2.202   4.824  19.876  0.00  0.00    +0.000 A 
ENDROOT
BRANCH   1  13
ATOM     10  O   UNL     1       0.392   9.616  21.751  0.00  0.00    +0.000 OA
ATOM     11  C   UNL     1       1.035   8.978  20.939  0.00  0.00    +0.000 A 
ATOM     12  N   UNL     1       1.655   7.779  21.140  0.00  0.00    +0.000 N 
ATOM     13  C   UNL     1       2.108   7.388  19.929  0.00  0.00    +0.000 A 
ATOM     14  N   UNL     1       1.886   8.234  18.963  0.00  0.00    +0.000 NA
ATOM     15  N   UNL     1       1.238   9.278  19.590  0.00  0.00    +0.000 N 
ATOM     16  H   UNL     1       1.688   7.246  21.991  0.00  0.00    +0.000 HD
BRANCH  15  17
ATOM     17  C   UNL     1       0.596  10.348  18.855  0.00  0.00    +0.000 C 
BRANCH  17  18
ATOM     18  C   UNL     1       1.358  11.669  18.828  0.00  0.00    +0.000 C 
ATOM     19  F   UNL     1       1.707  12.115  20.053  0.00  0.00    +0.000 F 
ATOM     20  F   UNL     1       2.506  11.531  18.116  0.00  0.00    +0.000 F 
ATOM     21  F   UNL     1       0.637  12.639  18.221  0.00  0.00    +0.000 F 
ENDBRANCH  17  18
ENDBRANCH  15  17
ENDBRANCH   1  13
BRANCH   3  22
ATOM     22  C   UNL     1       5.606   4.211  18.815  0.00  0.00    +0.000 C 
BRANCH  22  23
ATOM     23  C   UNL     1       5.785   4.286  17.317  0.00  0.00    +0.000 A 
ATOM     24  C   UNL     1       4.705   4.359  16.423  0.00  0.00    +0.000 A 
ATOM     25  C   UNL     1       4.920   4.622  15.064  0.00  0.00    +0.000 A 
ATOM     26  C   UNL     1       6.212   4.820  14.578  0.00  0.00    +0.000 A 
ATOM     27  C   UNL     1       7.294   4.728  15.448  0.00  0.00    +0.000 A 
ATOM     28  C   UNL     1       7.073   4.465  16.799  0.00  0.00    +0.000 A 
ATOM     29  F   UNL     1       8.133   4.424  17.619  0.00  0.00    +0.000 F 
ENDBRANCH  22  23
ENDBRANCH   3  22
TORSDOF 5
ENDMDL
MODEL 6
REMARK VINA RESULT:      -8.9      2.994      7.784
REMARK  Name = 
REMARK  5 active torsions:
REMARK  status: ('A' for Active; 'I' for Inactive)
REMARK    1  A    between atoms: C_4  and  C_5
REMARK    2  A    between atoms: N_7  and  C_8
REMARK    3  A    between atoms: C_8  and  C_9
REMARK    4  A    between atoms: N_23  and  C_24
REMARK    5  A    between atoms: C_24  and  C_25
REMARK                            x       y       z     vdW  Elec       q    Type
REMARK                         _______ _______ _______ _____ _____    ______ ____
ROOT
ATOM      1  C   UNL     1       3.822   4.996  18.243  0.00  0.00    +0.000 A 
ATOM      2  N   UNL     1       3.634   6.150  18.920  0.00  0.00    +0.000 NA
ATOM      3  N   UNL     1       2.476   5.938  19.607  0.00  0.00    +0.000 N 
ATOM      4  C   UNL     1       1.971   4.674  19.441  0.00  0.00    +0.000 A 
ATOM      5  N   UNL     1       0.896   4.142  20.060  0.00  0.00    +0.000 NA
ATOM      6  C   UNL     1       0.646   2.867  19.686  0.00  0.00    +0.000 A 
ATOM      7  C   UNL     1       1.367   2.142  18.748  0.00  0.00    +0.000 A 
ATOM      8  C   UNL     1       2.470   2.737  18.136  0.00  0.00    +0.000 A 
ATOM      9  C   UNL     1       2.793   4.051  18.515  0.00  0.00    +0.000 A 
ENDROOT
BRANCH   1  13
ATOM     10  O   UNL     1       8.240   4.190  16.911  0.00  0.00    +0.000 OA
ATOM     11  C   UNL     1       7.038   4.371  16.861  0.00  0.00    +0.000 A 
ATOM     12  N   UNL     1       6.170   4.420  17.913  0.00  0.00    +0.000 N 
ATOM     13  C   UNL     1       4.979   4.792  17.393  0.00  0.00    +0.000 A 
ATOM     14  N   UNL     1       4.971   4.946  16.100  0.00  0.00    +0.000 NA
ATOM     15  N   UNL     1       6.266   4.642  15.730  0.00  0.00    +0.000 N 
ATOM     16  H   UNL     1       6.387   4.301  18.886  0.00  0.00    +0.000 HD
BRANCH  15  17
ATOM     17  C   UNL     1       6.775   4.902  14.399  0.00  0.00    +0.000 C 
BRANCH  17  18
ATOM     18  C   UNL     1       6.232   3.989  13.305  0.00  0.00    +0.000 C 
ATOM     19  F   UNL     1       4.929   4.199  13.024  0.00  0.00    +0.000 F 
ATOM     20  F   UNL     1       6.921   4.181  12.151  0.00  0.00    +0.000 F 
ATOM     21  F   UNL     1       6.382   2.685  13.635  0.00  0.00    +0.000 F 
ENDBRANCH  17  18
ENDBRANCH  15  17
ENDBRANCH   1  13
BRANCH   3  22
ATOM     22  C   UNL     1       1.997   6.909  20.585  0.00  0.00    +0.000 C 
BRANCH  22  23
ATOM     23  C   UNL     1       1.513   8.220  20.011  0.00  0.00    +0.000 A 
ATOM     24  C   UNL     1       1.745   8.601  18.680  0.00  0.00    +0.000 A 
ATOM     25  C   UNL     1       1.114   9.731  18.141  0.00  0.00    +0.000 A 
ATOM     26  C   UNL     1       0.242  10.492  18.919  0.00  0.00    +0.000 A 
ATOM     27  C   UNL     1       0.021  10.139  20.246  0.00  0.00    +0.000 A 
ATOM     28  C   UNL     1       0.652   9.016  20.777  0.00  0.00    +0.000 A 
ATOM     29  F   UNL     1       0.386   8.679  22.047  0.00  0.00    +0.000 F 
ENDBRANCH  22  23
ENDBRANCH   3  22
TORSDOF 5
ENDMDL
MODEL 7
REMARK VINA RESULT:      -8.7      2.198      2.673
REMARK  Name = 
REMARK  5 active torsions:
REMARK  status: ('A' for Active; 'I' for Inactive)
REMARK    1  A    between atoms: C_4  and  C_5
REMARK    2  A    between atoms: N_7  and  C_8
REMARK    3  A    between atoms: C_8  and  C_9
REMARK    4  A    between atoms: N_23  and  C_24
REMARK    5  A    between atoms: C_24  and  C_25
REMARK                            x       y       z     vdW  Elec       q    Type
REMARK                         _______ _______ _______ _____ _____    ______ ____
ROOT
ATOM      1  C   UNL     1       2.798   6.131  19.710  0.00  0.00    +0.000 A 
ATOM      2  N   UNL     1       4.071   6.030  19.269  0.00  0.00    +0.000 NA
ATOM      3  N   UNL     1       4.310   4.687  19.271  0.00  0.00    +0.000 N 
ATOM      4  C   UNL     1       3.215   3.944  19.630  0.00  0.00    +0.000 A 
ATOM      5  N   UNL     1       3.116   2.597  19.636  0.00  0.00    +0.000 NA
ATOM      6  C   UNL     1       1.903   2.157  20.040  0.00  0.00    +0.000 A 
ATOM      7  C   UNL     1       0.844   2.958  20.445  0.00  0.00    +0.000 A 
ATOM      8  C   UNL     1       0.998   4.344  20.421  0.00  0.00    +0.000 A 
ATOM      9  C   UNL     1       2.229   4.854  19.975  0.00  0.00    +0.000 A 
ENDROOT
BRANCH   1  13
ATOM     10  O   UNL     1       0.348   9.685  21.530  0.00  0.00    +0.000 OA
ATOM     11  C   UNL     1       1.030   9.031  20.764  0.00  0.00    +0.000 A 
ATOM     12  N   UNL     1       1.615   7.823  21.011  0.00  0.00    +0.000 N 
ATOM     13  C   UNL     1       2.135   7.415  19.832  0.00  0.00    +0.000 A 
ATOM     14  N   UNL     1       1.989   8.257  18.850  0.00  0.00    +0.000 NA
ATOM     15  N   UNL     1       1.321   9.317  19.428  0.00  0.00    +0.000 N 
ATOM     16  H   UNL     1       1.585   7.296  21.866  0.00  0.00    +0.000 HD
BRANCH  15  17
ATOM     17  C   UNL     1       0.745  10.392  18.647  0.00  0.00    +0.000 C 
BRANCH  17  18
ATOM     18  C   UNL     1       1.495  11.718  18.712  0.00  0.00    +0.000 C 
ATOM     19  F   UNL     1       2.641  11.725  18.000  0.00  0.00    +0.000 F 
ATOM     20  F   UNL     1       0.719  12.719  18.221  0.00  0.00    +0.000 F 
ATOM     21  F   UNL     1       1.795  12.049  19.989  0.00  0.00    +0.000 F 
ENDBRANCH  17  18
ENDBRANCH  15  17
ENDBRANCH   1  13
BRANCH   3  22
ATOM     22  C   UNL     1       5.545   4.145  18.715  0.00  0.00    +0.000 C 
BRANCH  22  23
ATOM     23  C   UNL     1       5.835   4.531  17.284  0.00  0.00    +0.000 A 
ATOM     24  C   UNL     1       7.043   5.125  16.884  0.00  0.00    +0.000 A 
ATOM     25  C   UNL     1       7.343   5.285  15.525  0.00  0.00    +0.000 A 
ATOM     26  C   UNL     1       6.447   4.855  14.547  0.00  0.00    +0.000 A 
ATOM     27  C   UNL     1       5.237   4.285  14.929  0.00  0.00    +0.000 A 
ATOM     28  C   UNL     1       4.943   4.130  16.282  0.00  0.00    +0.000 A 
ATOM     29  F   UNL     1       3.786   3.540  16.617  0.00  0.00    +0.000 F 
ENDBRANCH  22  23
ENDBRANCH   3  22
TORSDOF 5
ENDMDL
MODEL 8
REMARK VINA RESULT:      -8.7      1.339      1.607
REMARK  Name = 
REMARK  5 active torsions:
REMARK  status: ('A' for Active; 'I' for Inactive)
REMARK    1  A    between atoms: C_4  and  C_5
REMARK    2  A    between atoms: N_7  and  C_8
REMARK    3  A    between atoms: C_8  and  C_9
REMARK    4  A    between atoms: N_23  and  C_24
REMARK    5  A    between atoms: C_24  and  C_25
REMARK                            x       y       z     vdW  Elec       q    Type
REMARK                         _______ _______ _______ _____ _____    ______ ____
ROOT
ATOM      1  C   UNL     1       2.944   6.206  19.272  0.00  0.00    +0.000 A 
ATOM      2  N   UNL     1       4.190   5.957  18.810  0.00  0.00    +0.000 NA
ATOM      3  N   UNL     1       4.381   4.637  19.089  0.00  0.00    +0.000 N 
ATOM      4  C   UNL     1       3.280   4.036  19.643  0.00  0.00    +0.000 A 
ATOM      5  N   UNL     1       3.134   2.726  19.940  0.00  0.00    +0.000 NA
ATOM      6  C   UNL     1       1.927   2.437  20.478  0.00  0.00    +0.000 A 
ATOM      7  C   UNL     1       0.919   3.352  20.745  0.00  0.00    +0.000 A 
ATOM      8  C   UNL     1       1.119   4.693  20.420  0.00  0.00    +0.000 A 
ATOM      9  C   UNL     1       2.345   5.042  19.826  0.00  0.00    +0.000 A 
ENDROOT
BRANCH   1  13
ATOM     10  O   UNL     1       1.767  10.381  17.500  0.00  0.00    +0.000 OA
ATOM     11  C   UNL     1       1.804   9.411  18.234  0.00  0.00    +0.000 A 
ATOM     12  N   UNL     1       2.436   8.225  17.998  0.00  0.00    +0.000 N 
ATOM     13  C   UNL     1       2.334   7.516  19.144  0.00  0.00    +0.000 A 
ATOM     14  N   UNL     1       1.658   8.101  20.091  0.00  0.00    +0.000 NA
ATOM     15  N   UNL     1       1.273   9.298  19.521  0.00  0.00    +0.000 N 
ATOM     16  H   UNL     1       2.954   7.965  17.178  0.00  0.00    +0.000 HD
BRANCH  15  17
ATOM     17  C   UNL     1       0.690  10.375  20.294  0.00  0.00    +0.000 C 
BRANCH  17  18
ATOM     18  C   UNL     1      -0.676  10.855  19.815  0.00  0.00    +0.000 C 
ATOM     19  F   UNL     1      -1.388   9.905  19.174  0.00  0.00    +0.000 F 
ATOM     20  F   UNL     1      -1.425  11.265  20.871  0.00  0.00    +0.000 F 
ATOM     21  F   UNL     1      -0.559  11.918  18.986  0.00  0.00    +0.000 F 
ENDBRANCH  17  18
ENDBRANCH  15  17
ENDBRANCH   1  13
BRANCH   3  22
ATOM     22  C   UNL     1       5.568   3.934  18.612  0.00  0.00    +0.000 C 
BRANCH  22  23
ATOM     23  C   UNL     1       5.884   4.119  17.147  0.00  0.00    +0.000 A 
ATOM     24  C   UNL     1       4.906   4.049  16.142  0.00  0.00    +0.000 A 
ATOM     25  C   UNL     1       5.210   4.418  14.824  0.00  0.00    +0.000 A 
ATOM     26  C   UNL     1       6.488   4.864  14.492  0.00  0.00    +0.000 A 
ATOM     27  C   UNL     1       7.472   4.918  15.473  0.00  0.00    +0.000 A 
ATOM     28  C   UNL     1       7.165   4.548  16.781  0.00  0.00    +0.000 A 
ATOM     29  F   UNL     1       8.125   4.650  17.712  0.00  0.00    +0.000 F 
ENDBRANCH  22  23
ENDBRANCH   3  22
TORSDOF 5
ENDMDL
MODEL 9
REMARK VINA RESULT:      -8.7      1.361      1.793
REMARK  Name = 
REMARK  5 active torsions:
REMARK  status: ('A' for Active; 'I' for Inactive)
REMARK    1  A    between atoms: C_4  and  C_5
REMARK    2  A    between atoms: N_7  and  C_8
REMARK    3  A    between atoms: C_8  and  C_9
REMARK    4  A    between atoms: N_23  and  C_24
REMARK    5  A    between atoms: C_24  and  C_25
REMARK                            x       y       z     vdW  Elec       q    Type
REMARK                         _______ _______ _______ _____ _____    ______ ____
ROOT
ATOM      1  C   UNL     1       2.684   6.326  19.791  0.00  0.00    +0.000 A 
ATOM      2  N   UNL     1       3.956   6.280  19.336  0.00  0.00    +0.000 NA
ATOM      3  N   UNL     1       4.248   4.948  19.326  0.00  0.00    +0.000 N 
ATOM      4  C   UNL     1       3.187   4.159  19.689  0.00  0.00    +0.000 A 
ATOM      5  N   UNL     1       3.142   2.809  19.686  0.00  0.00    +0.000 NA
ATOM      6  C   UNL     1       1.951   2.318  20.098  0.00  0.00    +0.000 A 
ATOM      7  C   UNL     1       0.866   3.073  20.519  0.00  0.00    +0.000 A 
ATOM      8  C   UNL     1       0.963   4.464  20.504  0.00  0.00    +0.000 A 
ATOM      9  C   UNL     1       2.169   5.027  20.051  0.00  0.00    +0.000 A 
ENDROOT
BRANCH   1  13
ATOM     10  O   UNL     1       0.867  10.516  18.746  0.00  0.00    +0.000 OA
ATOM     11  C   UNL     1       1.129   9.494  19.351  0.00  0.00    +0.000 A 
ATOM     12  N   UNL     1       1.774   8.394  18.867  0.00  0.00    +0.000 N 
ATOM     13  C   UNL     1       1.972   7.582  19.929  0.00  0.00    +0.000 A 
ATOM     14  N   UNL     1       1.479   8.021  21.052  0.00  0.00    +0.000 NA
ATOM     15  N   UNL     1       0.898   9.223  20.702  0.00  0.00    +0.000 N 
ATOM     16  H   UNL     1       2.120   8.253  17.935  0.00  0.00    +0.000 HD
BRANCH  15  17
ATOM     17  C   UNL     1       0.423  10.173  21.687  0.00  0.00    +0.000 C 
BRANCH  17  18
ATOM     18  C   UNL     1      -0.383   9.573  22.834  0.00  0.00    +0.000 C 
ATOM     19  F   UNL     1      -1.022   8.432  22.505  0.00  0.00    +0.000 F 
ATOM     20  F   UNL     1       0.436   9.281  23.878  0.00  0.00    +0.000 F 
ATOM     21  F   UNL     1      -1.305  10.449  23.296  0.00  0.00    +0.000 F 
ENDBRANCH  17  18
ENDBRANCH  15  17
ENDBRANCH   1  13
BRANCH   3  22
ATOM     22  C   UNL     1       5.499   4.460  18.754  0.00  0.00    +0.000 C 
BRANCH  22  23
ATOM     23  C   UNL     1       6.432   5.527  18.234  0.00  0.00    +0.000 A 
ATOM     24  C   UNL     1       6.219   6.200  17.020  0.00  0.00    +0.000 A 
ATOM     25  C   UNL     1       7.000   7.312  16.675  0.00  0.00    +0.000 A 
ATOM     26  C   UNL     1       7.998   7.770  17.534  0.00  0.00    +0.000 A 
ATOM     27  C   UNL     1       8.235   7.099  18.729  0.00  0.00    +0.000 A 
ATOM     28  C   UNL     1       7.457   5.993  19.067  0.00  0.00    +0.000 A 
ATOM     29  F   UNL     1       7.682   5.394  20.245  0.00  0.00    +0.000 F 
ENDBRANCH  22  23
ENDBRANCH   3  22
TORSDOF 5
ENDMDL
