MODEL 1
REMARK VINA RESULT:      -7.2      0.000      0.000
REMARK  Name = 
REMARK  9 active torsions:
REMARK  status: ('A' for Active; 'I' for Inactive)
REMARK    1  A    between atoms: C_1  and  C_2
REMARK    2  A    between atoms: C_2  and  C_3
REMARK    3  A    between atoms: C_2  and  C_4
REMARK    4  A    between atoms: C_9  and  N_10
REMARK    5  A    between atoms: C_11  and  C_13
REMARK    6  A    between atoms: C_13  and  O_14
REMARK    7  A    between atoms: O_14  and  C_15
REMARK    8  A    between atoms: C_15  and  C_17
REMARK    9  A    between atoms: C_17  and  C_18
REMARK                            x       y       z     vdW  Elec       q    Type
REMARK                         _______ _______ _______ _____ _____    ______ ____
ROOT
ATOM      1  N   UNL     1       4.307   5.515  17.982  0.00  0.00    +0.000 N 
ATOM      2  C   UNL     1       3.549   6.673  18.131  0.00  0.00    +0.000 C 
ATOM      3  O   UNL     1       3.435   7.582  17.312  0.00  0.00    +0.000 OA
ATOM      4  H   UNL     1       4.164   4.792  18.671  0.00  0.00    +0.000 HD
ENDROOT
BRANCH   1  10
ATOM      5  C   UNL     1       6.517   5.814  16.916  0.00  0.00    +0.000 A 
ATOM      6  C   UNL     1       7.386   5.481  15.852  0.00  0.00    +0.000 A 
ATOM      7  C   UNL     1       6.996   4.621  14.827  0.00  0.00    +0.000 A 
ATOM      8  C   UNL     1       5.726   4.070  14.841  0.00  0.00    +0.000 A 
ATOM      9  C   UNL     1       4.848   4.376  15.881  0.00  0.00    +0.000 A 
ATOM     10  C   UNL     1       5.221   5.225  16.931  0.00  0.00    +0.000 A 
BRANCH   5  12
ATOM     11  C   UNL     1       7.916   5.848  18.990  0.00  0.00    +0.000 C 
ATOM     12  C   UNL     1       7.044   6.691  18.053  0.00  0.00    +0.000 C 
ATOM     13  C   UNL     1       7.830   7.939  17.617  0.00  0.00    +0.000 C 
ENDBRANCH   5  12
ENDBRANCH   1  10
BRANCH   2  14
ATOM     14  C   UNL     1       2.771   6.718  19.454  0.00  0.00    +0.000 C 
BRANCH  14  15
ATOM     15  O   UNL     1       2.958   5.557  20.264  0.00  0.00    +0.000 OA
BRANCH  15  16
ATOM     16  C   UNL     1       1.856   4.772  20.378  0.00  0.00    +0.000 C 
ATOM     17  O   UNL     1       0.749   5.138  20.749  0.00  0.00    +0.000 OA
BRANCH  16  18
ATOM     18  C   UNL     1       2.124   3.372  19.933  0.00  0.00    +0.000 C 
ATOM     19  C   UNL     1       3.278   2.692  20.633  0.00  0.00    +0.000 C 
ATOM     20  C   UNL     1       0.929   2.516  19.532  0.00  0.00    +0.000 C 
ATOM     21  C   UNL     1       1.871   3.023  18.474  0.00  0.00    +0.000 C 
ATOM     22 CL   UNL     1       1.234   4.226  17.353  0.00  0.00    +0.000 Cl
ATOM     23 CL   UNL     1       2.841   1.796  17.651  0.00  0.00    +0.000 Cl
ENDBRANCH  16  18
ENDBRANCH  15  16
ENDBRANCH  14  15
ENDBRANCH   2  14
TORSDOF 6
ENDMDL
MODEL 2
REMARK VINA RESULT:      -6.9      2.845      5.898
REMARK  Name = 
REMARK  9 active torsions:
REMARK  status: ('A' for Active; 'I' for Inactive)
REMARK    1  A    between atoms: C_1  and  C_2
REMARK    2  A    between atoms: C_2  and  C_3
REMARK    3  A    between atoms: C_2  and  C_4
REMARK    4  A    between atoms: C_9  and  N_10
REMARK    5  A    between atoms: C_11  and  C_13
REMARK    6  A    between atoms: C_13  and  O_14
REMARK    7  A    between atoms: O_14  and  C_15
REMARK    8  A    between atoms: C_15  and  C_17
REMARK    9  A    between atoms: C_17  and  C_18
REMARK                            x       y       z     vdW  Elec       q    Type
REMARK                         _______ _______ _______ _____ _____    ______ ____
ROOT
ATOM      1  N   UNL     1       4.768   5.499  18.684  0.00  0.00    +0.000 N 
ATOM      2  C   UNL     1       6.090   5.479  19.119  0.00  0.00    +0.000 C 
ATOM      3  O   UNL     1       6.548   4.798  20.033  0.00  0.00    +0.000 OA
ATOM      4  H   UNL     1       4.586   5.983  17.818  0.00  0.00    +0.000 HD
ENDROOT
BRANCH   1  10
ATOM      5  C   UNL     1       2.585   5.637  19.835  0.00  0.00    +0.000 A 
ATOM      6  C   UNL     1       1.504   4.951  20.434  0.00  0.00    +0.000 A 
ATOM      7  C   UNL     1       1.479   3.561  20.530  0.00  0.00    +0.000 A 
ATOM      8  C   UNL     1       2.537   2.820  20.030  0.00  0.00    +0.000 A 
ATOM      9  C   UNL     1       3.615   3.469  19.430  0.00  0.00    +0.000 A 
ATOM     10  C   UNL     1       3.657   4.864  19.306  0.00  0.00    +0.000 A 
BRANCH   5  12
ATOM     11  C   UNL     1       2.097   7.506  18.246  0.00  0.00    +0.000 C 
ATOM     12  C   UNL     1       2.502   7.156  19.682  0.00  0.00    +0.000 C 
ATOM     13  C   UNL     1       1.556   7.871  20.663  0.00  0.00    +0.000 C 
ENDBRANCH   5  12
ENDBRANCH   1  10
BRANCH   2  14
ATOM     14  C   UNL     1       7.011   6.385  18.290  0.00  0.00    +0.000 C 
BRANCH  14  15
ATOM     15  O   UNL     1       6.886   6.189  16.881  0.00  0.00    +0.000 OA
BRANCH  15  16
ATOM     16  C   UNL     1       7.171   4.927  16.466  0.00  0.00    +0.000 C 
ATOM     17  O   UNL     1       8.106   4.240  16.849  0.00  0.00    +0.000 OA
BRANCH  16  18
ATOM     18  C   UNL     1       6.155   4.420  15.496  0.00  0.00    +0.000 C 
ATOM     19  C   UNL     1       5.383   3.206  15.960  0.00  0.00    +0.000 C 
ATOM     20  C   UNL     1       5.423   5.444  14.637  0.00  0.00    +0.000 C 
ATOM     21  C   UNL     1       6.456   4.547  14.010  0.00  0.00    +0.000 C 
ATOM     22 CL   UNL     1       7.942   5.314  13.450  0.00  0.00    +0.000 Cl
ATOM     23 CL   UNL     1       5.847   3.357  12.854  0.00  0.00    +0.000 Cl
ENDBRANCH  16  18
ENDBRANCH  15  16
ENDBRANCH  14  15
ENDBRANCH   2  14
TORSDOF 6
ENDMDL
MODEL 3
REMARK VINA RESULT:      -6.6      2.912      6.051
REMARK  Name = 
REMARK  9 active torsions:
REMARK  status: ('A' for Active; 'I' for Inactive)
REMARK    1  A    between atoms: C_1  and  C_2
REMARK    2  A    between atoms: C_2  and  C_3
REMARK    3  A    between atoms: C_2  and  C_4
REMARK    4  A    between atoms: C_9  and  N_10
REMARK    5  A    between atoms: C_11  and  C_13
REMARK    6  A    between atoms: C_13  and  O_14
REMARK    7  A    between atoms: O_14  and  C_15
REMARK    8  A    between atoms: C_15  and  C_17
REMARK    9  A    between atoms: C_17  and  C_18
REMARK                            x       y       z     vdW  Elec       q    Type
REMARK                         _______ _______ _______ _____ _____    ______ ____
ROOT
ATOM      1  N   UNL     1       4.770   5.809  18.487  0.00  0.00    +0.000 N 
ATOM      2  C   UNL     1       6.079   5.730  18.954  0.00  0.00    +0.000 C 
ATOM      3  O   UNL     1       6.450   5.222  20.009  0.00  0.00    +0.000 OA
ATOM      4  H   UNL     1       4.651   6.105  17.530  0.00  0.00    +0.000 HD
ENDROOT
BRANCH   1  10
ATOM      5  C   UNL     1       3.190   4.104  19.325  0.00  0.00    +0.000 A 
ATOM      6  C   UNL     1       2.012   3.821  20.054  0.00  0.00    +0.000 A 
ATOM      7  C   UNL     1       1.240   4.832  20.624  0.00  0.00    +0.000 A 
ATOM      8  C   UNL     1       1.628   6.154  20.480  0.00  0.00    +0.000 A 
ATOM      9  C   UNL     1       2.787   6.463  19.770  0.00  0.00    +0.000 A 
ATOM     10  C   UNL     1       3.589   5.465  19.201  0.00  0.00    +0.000 A 
BRANCH   5  12
ATOM     11  C   UNL     1       4.647   2.183  19.991  0.00  0.00    +0.000 C 
ATOM     12  C   UNL     1       4.035   2.939  18.807  0.00  0.00    +0.000 C 
ATOM     13  C   UNL     1       3.301   1.942  17.894  0.00  0.00    +0.000 C 
ENDBRANCH   5  12
ENDBRANCH   1  10
BRANCH   2  14
ATOM     14  C   UNL     1       7.105   6.313  17.972  0.00  0.00    +0.000 C 
BRANCH  14  15
ATOM     15  O   UNL     1       6.782   6.074  16.602  0.00  0.00    +0.000 OA
BRANCH  15  16
ATOM     16  C   UNL     1       7.154   4.850  16.145  0.00  0.00    +0.000 C 
ATOM     17  O   UNL     1       8.113   4.199  16.536  0.00  0.00    +0.000 OA
BRANCH  16  18
ATOM     18  C   UNL     1       6.205   4.330  15.117  0.00  0.00    +0.000 C 
ATOM     19  C   UNL     1       5.464   3.073  15.511  0.00  0.00    +0.000 C 
ATOM     20  C   UNL     1       5.471   5.348  14.252  0.00  0.00    +0.000 C 
ATOM     21  C   UNL     1       6.567   4.512  13.650  0.00  0.00    +0.000 C 
ATOM     22 CL   UNL     1       8.044   5.355  13.180  0.00  0.00    +0.000 Cl
ATOM     23 CL   UNL     1       6.061   3.332  12.435  0.00  0.00    +0.000 Cl
ENDBRANCH  16  18
ENDBRANCH  15  16
ENDBRANCH  14  15
ENDBRANCH   2  14
TORSDOF 6
ENDMDL
MODEL 4
REMARK VINA RESULT:      -6.4      2.156      3.748
REMARK  Name = 
REMARK  9 active torsions:
REMARK  status: ('A' for Active; 'I' for Inactive)
REMARK    1  A    between atoms: C_1  and  C_2
REMARK    2  A    between atoms: C_2  and  C_3
REMARK    3  A    between atoms: C_2  and  C_4
REMARK    4  A    between atoms: C_9  and  N_10
REMARK    5  A    between atoms: C_11  and  C_13
REMARK    6  A    between atoms: C_13  and  O_14
REMARK    7  A    between atoms: O_14  and  C_15
REMARK    8  A    between atoms: C_15  and  C_17
REMARK    9  A    between atoms: C_17  and  C_18
REMARK                            x       y       z     vdW  Elec       q    Type
REMARK                         _______ _______ _______ _____ _____    ______ ____
ROOT
ATOM      1  N   UNL     1       6.125   4.094  18.607  0.00  0.00    +0.000 N 
ATOM      2  C   UNL     1       5.108   3.857  19.526  0.00  0.00    +0.000 C 
ATOM      3  O   UNL     1       4.480   4.705  20.156  0.00  0.00    +0.000 OA
ATOM      4  H   UNL     1       6.424   3.305  18.053  0.00  0.00    +0.000 HD
ENDROOT
BRANCH   1  10
ATOM      5  C   UNL     1       6.404   6.079  17.161  0.00  0.00    +0.000 A 
ATOM      6  C   UNL     1       7.049   7.317  16.942  0.00  0.00    +0.000 A 
ATOM      7  C   UNL     1       8.013   7.809  17.821  0.00  0.00    +0.000 A 
ATOM      8  C   UNL     1       8.355   7.074  18.944  0.00  0.00    +0.000 A 
ATOM      9  C   UNL     1       7.732   5.852  19.188  0.00  0.00    +0.000 A 
ATOM     10  C   UNL     1       6.749   5.342  18.329  0.00  0.00    +0.000 A 
BRANCH   5  12
ATOM     11  C   UNL     1       4.757   6.870  15.453  0.00  0.00    +0.000 C 
ATOM     12  C   UNL     1       5.292   5.646  16.204  0.00  0.00    +0.000 C 
ATOM     13  C   UNL     1       5.679   4.558  15.187  0.00  0.00    +0.000 C 
ENDBRANCH   5  12
ENDBRANCH   1  10
BRANCH   2  14
ATOM     14  C   UNL     1       4.764   2.368  19.673  0.00  0.00    +0.000 C 
BRANCH  14  15
ATOM     15  O   UNL     1       3.364   2.117  19.797  0.00  0.00    +0.000 OA
BRANCH  15  16
ATOM     16  C   UNL     1       2.657   2.318  18.655  0.00  0.00    +0.000 C 
ATOM     17  O   UNL     1       2.726   1.640  17.639  0.00  0.00    +0.000 OA
BRANCH  16  18
ATOM     18  C   UNL     1       1.705   3.461  18.785  0.00  0.00    +0.000 C 
ATOM     19  C   UNL     1       1.907   4.574  17.783  0.00  0.00    +0.000 C 
ATOM     20  C   UNL     1       0.281   3.149  19.227  0.00  0.00    +0.000 C 
ATOM     21  C   UNL     1       1.223   3.836  20.178  0.00  0.00    +0.000 C 
ATOM     22 CL   UNL     1       1.737   2.916  21.593  0.00  0.00    +0.000 Cl
ATOM     23 CL   UNL     1       0.827   5.510  20.584  0.00  0.00    +0.000 Cl
ENDBRANCH  16  18
ENDBRANCH  15  16
ENDBRANCH  14  15
ENDBRANCH   2  14
TORSDOF 6
ENDMDL
MODEL 5
REMARK VINA RESULT:      -6.4      2.541      4.355
REMARK  Name = 
REMARK  9 active torsions:
REMARK  status: ('A' for Active; 'I' for Inactive)
REMARK    1  A    between atoms: C_1  and  C_2
REMARK    2  A    between atoms: C_2  and  C_3
REMARK    3  A    between atoms: C_2  and  C_4
REMARK    4  A    between atoms: C_9  and  N_10
REMARK    5  A    between atoms: C_11  and  C_13
REMARK    6  A    between atoms: C_13  and  O_14
REMARK    7  A    between atoms: O_14  and  C_15
REMARK    8  A    between atoms: C_15  and  C_17
REMARK    9  A    between atoms: C_17  and  C_18
REMARK                            x       y       z     vdW  Elec       q    Type
REMARK                         _______ _______ _______ _____ _____    ______ ____
ROOT
ATOM      1  N   UNL     1       5.523   3.916  14.936  0.00  0.00    +0.000 N 
ATOM      2  C   UNL     1       4.899   4.721  15.884  0.00  0.00    +0.000 C 
ATOM      3  O   UNL     1       4.884   5.950  15.904  0.00  0.00    +0.000 OA
ATOM      4  H   UNL     1       5.303   2.932  14.966  0.00  0.00    +0.000 HD
ENDROOT
BRANCH   1  10
ATOM      5  C   UNL     1       6.322   3.754  12.603  0.00  0.00    +0.000 A 
ATOM      6  C   UNL     1       7.207   4.225  11.607  0.00  0.00    +0.000 A 
ATOM      7  C   UNL     1       8.144   5.223  11.870  0.00  0.00    +0.000 A 
ATOM      8  C   UNL     1       8.219   5.776  13.137  0.00  0.00    +0.000 A 
ATOM      9  C   UNL     1       7.356   5.334  14.138  0.00  0.00    +0.000 A 
ATOM     10  C   UNL     1       6.395   4.344  13.896  0.00  0.00    +0.000 A 
BRANCH   5  12
ATOM     11  C   UNL     1       4.133   3.411  11.441  0.00  0.00    +0.000 C 
ATOM     12  C   UNL     1       5.260   2.722  12.219  0.00  0.00    +0.000 C 
ATOM     13  C   UNL     1       5.769   1.517  11.410  0.00  0.00    +0.000 C 
ENDBRANCH   5  12
ENDBRANCH   1  10
BRANCH   2  14
ATOM     14  C   UNL     1       4.137   3.919  16.948  0.00  0.00    +0.000 C 
BRANCH  14  15
ATOM     15  O   UNL     1       3.349   4.732  17.818  0.00  0.00    +0.000 OA
BRANCH  15  16
ATOM     16  C   UNL     1       2.074   4.294  17.990  0.00  0.00    +0.000 C 
ATOM     17  O   UNL     1       1.256   4.102  17.102  0.00  0.00    +0.000 OA
BRANCH  16  18
ATOM     18  C   UNL     1       1.776   4.004  19.424  0.00  0.00    +0.000 C 
ATOM     19  C   UNL     1       1.826   5.205  20.339  0.00  0.00    +0.000 C 
ATOM     20  C   UNL     1       0.751   2.918  19.728  0.00  0.00    +0.000 C 
ATOM     21  C   UNL     1       2.210   2.660  19.989  0.00  0.00    +0.000 C 
ATOM     22 CL   UNL     1       3.002   1.461  18.965  0.00  0.00    +0.000 Cl
ATOM     23 CL   UNL     1       2.675   2.494  21.686  0.00  0.00    +0.000 Cl
ENDBRANCH  16  18
ENDBRANCH  15  16
ENDBRANCH  14  15
ENDBRANCH   2  14
TORSDOF 6
ENDMDL
MODEL 6
REMARK VINA RESULT:      -6.3      3.539      6.666
REMARK  Name = 
REMARK  9 active torsions:
REMARK  status: ('A' for Active; 'I' for Inactive)
REMARK    1  A    between atoms: C_1  and  C_2
REMARK    2  A    between atoms: C_2  and  C_3
REMARK    3  A    between atoms: C_2  and  C_4
REMARK    4  A    between atoms: C_9  and  N_10
REMARK    5  A    between atoms: C_11  and  C_13
REMARK    6  A    between atoms: C_13  and  O_14
REMARK    7  A    between atoms: O_14  and  C_15
REMARK    8  A    between atoms: C_15  and  C_17
REMARK    9  A    between atoms: C_17  and  C_18
REMARK                            x       y       z     vdW  Elec       q    Type
REMARK                         _______ _______ _______ _____ _____    ______ ____
ROOT
ATOM      1  N   UNL     1       2.191   7.403  20.251  0.00  0.00    +0.000 N 
ATOM      2  C   UNL     1       1.978   6.028  20.303  0.00  0.00    +0.000 C 
ATOM      3  O   UNL     1       0.970   5.460  20.718  0.00  0.00    +0.000 OA
ATOM      4  H   UNL     1       2.997   7.713  19.730  0.00  0.00    +0.000 HD
ENDROOT
BRANCH   1  10
ATOM      5  C   UNL     1       0.758   9.397  19.972  0.00  0.00    +0.000 A 
ATOM      6  C   UNL     1      -0.063  10.373  20.580  0.00  0.00    +0.000 A 
ATOM      7  C   UNL     1      -0.273  10.402  21.958  0.00  0.00    +0.000 A 
ATOM      8  C   UNL     1       0.335   9.454  22.763  0.00  0.00    +0.000 A 
ATOM      9  C   UNL     1       1.147   8.476  22.191  0.00  0.00    +0.000 A 
ATOM     10  C   UNL     1       1.361   8.415  20.807  0.00  0.00    +0.000 A 
BRANCH   5  12
ATOM     11  C   UNL     1      -0.416   9.935  17.830  0.00  0.00    +0.000 C 
ATOM     12  C   UNL     1       0.869   9.371  18.447  0.00  0.00    +0.000 C 
ATOM     13  C   UNL     1       2.081  10.113  17.857  0.00  0.00    +0.000 C 
ENDBRANCH   5  12
ENDBRANCH   1  10
BRANCH   2  14
ATOM     14  C   UNL     1       3.142   5.215  19.721  0.00  0.00    +0.000 C 
BRANCH  14  15
ATOM     15  O   UNL     1       4.259   6.016  19.335  0.00  0.00    +0.000 OA
BRANCH  15  16
ATOM     16  C   UNL     1       5.314   5.310  18.851  0.00  0.00    +0.000 C 
ATOM     17  O   UNL     1       6.215   4.820  19.516  0.00  0.00    +0.000 OA
BRANCH  16  18
ATOM     18  C   UNL     1       5.230   5.134  17.371  0.00  0.00    +0.000 C 
ATOM     19  C   UNL     1       4.707   3.790  16.919  0.00  0.00    +0.000 C 
ATOM     20  C   UNL     1       4.877   6.355  16.531  0.00  0.00    +0.000 C 
ATOM     21  C   UNL     1       6.281   5.815  16.507  0.00  0.00    +0.000 C 
ATOM     22 CL   UNL     1       7.533   6.823  17.233  0.00  0.00    +0.000 Cl
ATOM     23 CL   UNL     1       6.808   5.099  14.980  0.00  0.00    +0.000 Cl
ENDBRANCH  16  18
ENDBRANCH  15  16
ENDBRANCH  14  15
ENDBRANCH   2  14
TORSDOF 6
ENDMDL
MODEL 7
REMARK VINA RESULT:      -6.3      2.004      2.592
REMARK  Name = 
REMARK  9 active torsions:
REMARK  status: ('A' for Active; 'I' for Inactive)
REMARK    1  A    between atoms: C_1  and  C_2
REMARK    2  A    between atoms: C_2  and  C_3
REMARK    3  A    between atoms: C_2  and  C_4
REMARK    4  A    between atoms: C_9  and  N_10
REMARK    5  A    between atoms: C_11  and  C_13
REMARK    6  A    between atoms: C_13  and  O_14
REMARK    7  A    between atoms: O_14  and  C_15
REMARK    8  A    between atoms: C_15  and  C_17
REMARK    9  A    between atoms: C_17  and  C_18
REMARK                            x       y       z     vdW  Elec       q    Type
REMARK                         _______ _______ _______ _____ _____    ______ ____
ROOT
ATOM      1  N   UNL     1       5.717   3.656  18.297  0.00  0.00    +0.000 N 
ATOM      2  C   UNL     1       4.645   2.826  18.610  0.00  0.00    +0.000 C 
ATOM      3  O   UNL     1       3.891   2.274  17.813  0.00  0.00    +0.000 OA
ATOM      4  H   UNL     1       6.339   3.894  19.055  0.00  0.00    +0.000 HD
ENDROOT
BRANCH   1  10
ATOM      5  C   UNL     1       6.642   5.450  16.870  0.00  0.00    +0.000 A 
ATOM      6  C   UNL     1       6.967   5.894  15.568  0.00  0.00    +0.000 A 
ATOM      7  C   UNL     1       6.710   5.115  14.441  0.00  0.00    +0.000 A 
ATOM      8  C   UNL     1       6.123   3.869  14.588  0.00  0.00    +0.000 A 
ATOM      9  C   UNL     1       5.795   3.403  15.860  0.00  0.00    +0.000 A 
ATOM     10  C   UNL     1       6.057   4.160  17.011  0.00  0.00    +0.000 A 
BRANCH   5  12
ATOM     11  C   UNL     1       8.013   5.548  18.960  0.00  0.00    +0.000 C 
ATOM     12  C   UNL     1       7.035   6.318  18.066  0.00  0.00    +0.000 C 
ATOM     13  C   UNL     1       7.640   7.690  17.719  0.00  0.00    +0.000 C 
ENDBRANCH   5  12
ENDBRANCH   1  10
BRANCH   2  14
ATOM     14  C   UNL     1       4.490   2.586  20.119  0.00  0.00    +0.000 C 
BRANCH  14  15
ATOM     15  O   UNL     1       3.216   2.055  20.482  0.00  0.00    +0.000 OA
BRANCH  15  16
ATOM     16  C   UNL     1       2.365   2.964  21.026  0.00  0.00    +0.000 C 
ATOM     17  O   UNL     1       2.332   3.303  22.200  0.00  0.00    +0.000 OA
BRANCH  16  18
ATOM     18  C   UNL     1       1.476   3.576  19.995  0.00  0.00    +0.000 C 
ATOM     19  C   UNL     1       0.746   2.587  19.115  0.00  0.00    +0.000 C 
ATOM     20  C   UNL     1       0.758   4.871  20.358  0.00  0.00    +0.000 C 
ATOM     21  C   UNL     1       1.899   4.901  19.378  0.00  0.00    +0.000 C 
ATOM     22 CL   UNL     1       3.376   5.711  19.901  0.00  0.00    +0.000 Cl
ATOM     23 CL   UNL     1       1.476   5.304  17.710  0.00  0.00    +0.000 Cl
ENDBRANCH  16  18
ENDBRANCH  15  16
ENDBRANCH  14  15
ENDBRANCH   2  14
TORSDOF 6
ENDMDL
MODEL 8
REMARK VINA RESULT:      -6.2      2.999      5.753
REMARK  Name = 
REMARK  9 active torsions:
REMARK  status: ('A' for Active; 'I' for Inactive)
REMARK    1  A    between atoms: C_1  and  C_2
REMARK    2  A    between atoms: C_2  and  C_3
REMARK    3  A    between atoms: C_2  and  C_4
REMARK    4  A    between atoms: C_9  and  N_10
REMARK    5  A    between atoms: C_11  and  C_13
REMARK    6  A    between atoms: C_13  and  O_14
REMARK    7  A    between atoms: O_14  and  C_15
REMARK    8  A    between atoms: C_15  and  C_17
REMARK    9  A    between atoms: C_17  and  C_18
REMARK                            x       y       z     vdW  Elec       q    Type
REMARK                         _______ _______ _______ _____ _____    ______ ____
ROOT
ATOM      1  N   UNL     1       2.724   6.695  19.873  0.00  0.00    +0.000 N 
ATOM      2  C   UNL     1       2.310   5.393  19.609  0.00  0.00    +0.000 C 
ATOM      3  O   UNL     1       1.465   5.046  18.788  0.00  0.00    +0.000 OA
ATOM      4  H   UNL     1       3.542   6.799  20.454  0.00  0.00    +0.000 HD
ENDROOT
BRANCH   1  10
ATOM      5  C   UNL     1       1.232   8.645  20.154  0.00  0.00    +0.000 A 
ATOM      6  C   UNL     1       0.697   9.831  19.600  0.00  0.00    +0.000 A 
ATOM      7  C   UNL     1       1.026  10.254  18.314  0.00  0.00    +0.000 A 
ATOM      8  C   UNL     1       1.901   9.503  17.548  0.00  0.00    +0.000 A 
ATOM      9  C   UNL     1       2.449   8.331  18.069  0.00  0.00    +0.000 A 
ATOM     10  C   UNL     1       2.146   7.892  19.365  0.00  0.00    +0.000 A 
BRANCH   5  12
ATOM     11  C   UNL     1       1.695   9.194  22.550  0.00  0.00    +0.000 C 
ATOM     12  C   UNL     1       0.897   8.291  21.604  0.00  0.00    +0.000 C 
ATOM     13  C   UNL     1      -0.594   8.359  21.976  0.00  0.00    +0.000 C 
ENDBRANCH   5  12
ENDBRANCH   1  10
BRANCH   2  14
ATOM     14  C   UNL     1       3.068   4.342  20.432  0.00  0.00    +0.000 C 
BRANCH  14  15
ATOM     15  O   UNL     1       3.814   3.422  19.634  0.00  0.00    +0.000 OA
BRANCH  15  16
ATOM     16  C   UNL     1       4.901   3.964  19.027  0.00  0.00    +0.000 C 
ATOM     17  O   UNL     1       5.941   4.296  19.579  0.00  0.00    +0.000 OA
BRANCH  16  18
ATOM     18  C   UNL     1       4.718   4.066  17.549  0.00  0.00    +0.000 C 
ATOM     19  C   UNL     1       3.655   3.158  16.975  0.00  0.00    +0.000 C 
ATOM     20  C   UNL     1       4.911   5.433  16.904  0.00  0.00    +0.000 C 
ATOM     21  C   UNL     1       5.942   4.357  16.693  0.00  0.00    +0.000 C 
ATOM     22 CL   UNL     1       7.522   4.614  17.432  0.00  0.00    +0.000 Cl
ATOM     23 CL   UNL     1       6.073   3.724  15.048  0.00  0.00    +0.000 Cl
ENDBRANCH  16  18
ENDBRANCH  15  16
ENDBRANCH  14  15
ENDBRANCH   2  14
TORSDOF 6
ENDMDL
MODEL 9
REMARK VINA RESULT:      -6.2      2.858      4.670
REMARK  Name = 
REMARK  9 active torsions:
REMARK  status: ('A' for Active; 'I' for Inactive)
REMARK    1  A    between atoms: C_1  and  C_2
REMARK    2  A    between atoms: C_2  and  C_3
REMARK    3  A    between atoms: C_2  and  C_4
REMARK    4  A    between atoms: C_9  and  N_10
REMARK    5  A    between atoms: C_11  and  C_13
REMARK    6  A    between atoms: C_13  and  O_14
REMARK    7  A    between atoms: O_14  and  C_15
REMARK    8  A    between atoms: C_15  and  C_17
REMARK    9  A    between atoms: C_17  and  C_18
REMARK                            x       y       z     vdW  Elec       q    Type
REMARK                         _______ _______ _______ _____ _____    ______ ____
ROOT
ATOM      1  N   UNL     1       5.910   3.668  14.972  0.00  0.00    +0.000 N 
ATOM      2  C   UNL     1       5.233   4.354  15.975  0.00  0.00    +0.000 C 
ATOM      3  O   UNL     1       5.005   5.561  16.010  0.00  0.00    +0.000 OA
ATOM      4  H   UNL     1       5.868   2.660  15.008  0.00  0.00    +0.000 HD
ENDROOT
BRANCH   1  10
ATOM      5  C   UNL     1       6.395   3.756  12.550  0.00  0.00    +0.000 A 
ATOM      6  C   UNL     1       7.110   4.367  11.495  0.00  0.00    +0.000 A 
ATOM      7  C   UNL     1       8.018   5.400  11.725  0.00  0.00    +0.000 A 
ATOM      8  C   UNL     1       8.233   5.848  13.018  0.00  0.00    +0.000 A 
ATOM      9  C   UNL     1       7.538   5.267  14.078  0.00  0.00    +0.000 A 
ATOM     10  C   UNL     1       6.609   4.238  13.872  0.00  0.00    +0.000 A 
BRANCH   5  12
ATOM     11  C   UNL     1       4.180   3.341  11.464  0.00  0.00    +0.000 C 
ATOM     12  C   UNL     1       5.349   2.692  12.213  0.00  0.00    +0.000 C 
ATOM     13  C   UNL     1       5.863   1.489  11.404  0.00  0.00    +0.000 C 
ENDBRANCH   5  12
ENDBRANCH   1  10
BRANCH   2  14
ATOM     14  C   UNL     1       4.709   3.433  17.086  0.00  0.00    +0.000 C 
BRANCH  14  15
ATOM     15  O   UNL     1       3.377   2.971  16.862  0.00  0.00    +0.000 OA
BRANCH  15  16
ATOM     16  C   UNL     1       2.777   2.439  17.958  0.00  0.00    +0.000 C 
ATOM     17  O   UNL     1       3.024   1.348  18.453  0.00  0.00    +0.000 OA
BRANCH  16  18
ATOM     18  C   UNL     1       1.787   3.380  18.561  0.00  0.00    +0.000 C 
ATOM     19  C   UNL     1       1.405   4.549  17.683  0.00  0.00    +0.000 C 
ATOM     20  C   UNL     1       0.715   2.792  19.471  0.00  0.00    +0.000 C 
ATOM     21  C   UNL     1       1.834   3.604  20.065  0.00  0.00    +0.000 C 
ATOM     22 CL   UNL     1       2.995   2.741  21.072  0.00  0.00    +0.000 Cl
ATOM     23 CL   UNL     1       1.372   5.159  20.767  0.00  0.00    +0.000 Cl
ENDBRANCH  16  18
ENDBRANCH  15  16
ENDBRANCH  14  15
ENDBRANCH   2  14
TORSDOF 6
ENDMDL
