MODEL 1
REMARK VINA RESULT:      -7.6      0.000      0.000
REMARK  Name = 
REMARK  3 active torsions:
REMARK  status: ('A' for Active; 'I' for Inactive)
REMARK    1  A    between atoms: C_1  and  C_2
REMARK    2  A    between atoms: C_2  and  N_3
REMARK    3  A    between atoms: N_3  and  C_4
REMARK                            x       y       z     vdW  Elec       q    Type
REMARK                         _______ _______ _______ _____ _____    ______ ____
ROOT
ATOM      1  C   UNL     1       0.993   8.939  20.498  0.00  0.00    +0.000 C 
ATOM      2  C   UNL     1       1.309  10.299  21.194  0.00  0.00    +0.000 C 
ATOM      3  N   UNL     1       0.114  10.756  21.907  0.00  0.00    +0.000 N 
ATOM      4  C   UNL     1      -0.308  12.056  21.851  0.00  0.00    +0.000 A 
ATOM      5  N   UNL     1       0.323  12.878  21.033  0.00  0.00    +0.000 NA
ATOM      6  C   UNL     1      -0.091  14.136  20.986  0.00  0.00    +0.000 A 
ATOM      7  N   UNL     1       0.583  15.002  20.149  0.00  0.00    +0.000 N 
ATOM      8  C   UNL     1       1.650  14.469  19.304  0.00  0.00    +0.000 C 
ATOM      9  C   UNL     1       2.550  15.568  18.730  0.00  0.00    +0.000 C 
ATOM     10  C   UNL     1       1.711  16.636  18.086  0.00  0.00    +0.000 A 
ATOM     11  C   UNL     1       2.088  17.251  16.888  0.00  0.00    +0.000 A 
ATOM     12  C   UNL     1       1.280  18.242  16.333  0.00  0.00    +0.000 A 
ATOM     13  C   UNL     1       0.106  18.630  16.977  0.00  0.00    +0.000 A 
ATOM     14  C   UNL     1      -0.266  18.033  18.182  0.00  0.00    +0.000 A 
ATOM     15  C   UNL     1       0.532  17.023  18.743  0.00  0.00    +0.000 A 
ATOM     16  C   UNL     1       0.172  16.394  20.074  0.00  0.00    +0.000 C 
ATOM     17  N   UNL     1      -1.116  14.577  21.706  0.00  0.00    +0.000 NA
ATOM     18  C   UNL     1      -1.746  13.690  22.471  0.00  0.00    +0.000 A 
ATOM     19  N   UNL     1      -2.849  14.099  23.209  0.00  0.00    +0.000 N 
ATOM     20  C   UNL     1      -3.285  15.483  23.054  0.00  0.00    +0.000 C 
ATOM     21  C   UNL     1      -4.409  15.829  24.037  0.00  0.00    +0.000 C 
ATOM     22  C   UNL     1      -5.554  14.875  23.834  0.00  0.00    +0.000 A 
ATOM     23  C   UNL     1      -6.887  15.296  23.887  0.00  0.00    +0.000 A 
ATOM     24  C   UNL     1      -7.916  14.380  23.677  0.00  0.00    +0.000 A 
ATOM     25  C   UNL     1      -7.621  13.041  23.426  0.00  0.00    +0.000 A 
ATOM     26  C   UNL     1      -6.291  12.613  23.395  0.00  0.00    +0.000 A 
ATOM     27  C   UNL     1      -5.247  13.525  23.590  0.00  0.00    +0.000 A 
ATOM     28  C   UNL     1      -3.801  13.058  23.598  0.00  0.00    +0.000 C 
ATOM     29  N   UNL     1      -1.354  12.426  22.573  0.00  0.00    +0.000 NA
ATOM     30  C   UNL     1      -0.450   9.796  22.848  0.00  0.00    +0.000 C 
ATOM     31  C   UNL     1      -0.697   8.479  22.098  0.00  0.00    +0.000 C 
ATOM     32  O   UNL     1       0.498   7.996  21.464  0.00  0.00    +0.000 OA
ENDROOT
BRANCH   1  33
ATOM     33  N   UNL     1       2.176   8.393  19.831  0.00  0.00    +0.000 NA
ATOM     34  H   UNL     1       2.981   8.979  20.053  0.00  0.00    +0.000 HD
BRANCH  33  36
ATOM     35  C   UNL     1       2.749   7.189  17.780  0.00  0.00    +0.000 C 
ATOM     36  C   UNL     1       1.992   8.362  18.380  0.00  0.00    +0.000 C 
ENDBRANCH  33  36
ENDBRANCH   1  33
TORSDOF 2
ENDMDL
MODEL 2
REMARK VINA RESULT:      -7.6      3.101      7.792
REMARK  Name = 
REMARK  3 active torsions:
REMARK  status: ('A' for Active; 'I' for Inactive)
REMARK    1  A    between atoms: C_1  and  C_2
REMARK    2  A    between atoms: C_2  and  N_3
REMARK    3  A    between atoms: N_3  and  C_4
REMARK                            x       y       z     vdW  Elec       q    Type
REMARK                         _______ _______ _______ _____ _____    ______ ____
ROOT
ATOM      1  C   UNL     1      -1.217  14.514  23.612  0.00  0.00    +0.000 C 
ATOM      2  C   UNL     1      -0.983  14.554  22.069  0.00  0.00    +0.000 C 
ATOM      3  N   UNL     1      -0.797  13.184  21.584  0.00  0.00    +0.000 N 
ATOM      4  C   UNL     1       0.188  12.863  20.690  0.00  0.00    +0.000 A 
ATOM      5  N   UNL     1       1.057  13.802  20.360  0.00  0.00    +0.000 NA
ATOM      6  C   UNL     1       2.006  13.483  19.493  0.00  0.00    +0.000 A 
ATOM      7  N   UNL     1       2.900  14.469  19.130  0.00  0.00    +0.000 N 
ATOM      8  C   UNL     1       2.804  15.774  19.780  0.00  0.00    +0.000 C 
ATOM      9  C   UNL     1       3.577  16.863  19.031  0.00  0.00    +0.000 C 
ATOM     10  C   UNL     1       4.980  16.401  18.753  0.00  0.00    +0.000 A 
ATOM     11  C   UNL     1       6.078  17.260  18.862  0.00  0.00    +0.000 A 
ATOM     12  C   UNL     1       7.360  16.786  18.587  0.00  0.00    +0.000 A 
ATOM     13  C   UNL     1       7.546  15.463  18.190  0.00  0.00    +0.000 A 
ATOM     14  C   UNL     1       6.452  14.605  18.061  0.00  0.00    +0.000 A 
ATOM     15  C   UNL     1       5.159  15.068  18.350  0.00  0.00    +0.000 A 
ATOM     16  C   UNL     1       3.951  14.169  18.172  0.00  0.00    +0.000 C 
ATOM     17  N   UNL     1       2.120  12.265  18.975  0.00  0.00    +0.000 NA
ATOM     18  C   UNL     1       1.249  11.347  19.386  0.00  0.00    +0.000 A 
ATOM     19  N   UNL     1       1.357  10.050  18.901  0.00  0.00    +0.000 N 
ATOM     20  C   UNL     1       2.468   9.760  18.002  0.00  0.00    +0.000 C 
ATOM     21  C   UNL     1       2.371   8.341  17.433  0.00  0.00    +0.000 C 
ATOM     22  C   UNL     1       2.323   7.355  18.568  0.00  0.00    +0.000 A 
ATOM     23  C   UNL     1       3.003   6.134  18.518  0.00  0.00    +0.000 A 
ATOM     24  C   UNL     1       2.943   5.258  19.601  0.00  0.00    +0.000 A 
ATOM     25  C   UNL     1       2.196   5.590  20.729  0.00  0.00    +0.000 A 
ATOM     26  C   UNL     1       1.497   6.799  20.773  0.00  0.00    +0.000 A 
ATOM     27  C   UNL     1       1.560   7.695  19.698  0.00  0.00    +0.000 A 
ATOM     28  C   UNL     1       0.769   8.992  19.723  0.00  0.00    +0.000 C 
ATOM     29  N   UNL     1       0.264  11.623  20.232  0.00  0.00    +0.000 NA
ATOM     30  C   UNL     1      -1.860  12.252  21.935  0.00  0.00    +0.000 C 
ATOM     31  C   UNL     1      -2.054  12.299  23.458  0.00  0.00    +0.000 C 
ATOM     32  O   UNL     1      -2.312  13.634  23.920  0.00  0.00    +0.000 OA
ENDROOT
BRANCH   1  33
ATOM     33  N   UNL     1      -1.488  15.851  24.145  0.00  0.00    +0.000 NA
ATOM     34  H   UNL     1      -0.628  16.398  24.119  0.00  0.00    +0.000 HD
BRANCH  33  36
ATOM     35  C   UNL     1      -0.816  16.001  26.492  0.00  0.00    +0.000 C 
ATOM     36  C   UNL     1      -1.967  15.776  25.525  0.00  0.00    +0.000 C 
ENDBRANCH  33  36
ENDBRANCH   1  33
TORSDOF 2
ENDMDL
MODEL 3
REMARK VINA RESULT:      -7.3      3.690      4.334
REMARK  Name = 
REMARK  3 active torsions:
REMARK  status: ('A' for Active; 'I' for Inactive)
REMARK    1  A    between atoms: C_1  and  C_2
REMARK    2  A    between atoms: C_2  and  N_3
REMARK    3  A    between atoms: N_3  and  C_4
REMARK                            x       y       z     vdW  Elec       q    Type
REMARK                         _______ _______ _______ _____ _____    ______ ____
ROOT
ATOM      1  C   UNL     1      -3.368  11.408  16.032  0.00  0.00    +0.000 C 
ATOM      2  C   UNL     1      -2.422  11.140  17.244  0.00  0.00    +0.000 C 
ATOM      3  N   UNL     1      -3.019  11.720  18.449  0.00  0.00    +0.000 N 
ATOM      4  C   UNL     1      -2.279  12.438  19.348  0.00  0.00    +0.000 A 
ATOM      5  N   UNL     1      -1.022  12.705  19.043  0.00  0.00    +0.000 NA
ATOM      6  C   UNL     1      -0.312  13.401  19.920  0.00  0.00    +0.000 A 
ATOM      7  N   UNL     1       1.008  13.660  19.614  0.00  0.00    +0.000 N 
ATOM      8  C   UNL     1       1.521  13.233  18.314  0.00  0.00    +0.000 C 
ATOM      9  C   UNL     1       3.052  13.233  18.257  0.00  0.00    +0.000 C 
ATOM     10  C   UNL     1       3.586  14.551  18.742  0.00  0.00    +0.000 A 
ATOM     11  C   UNL     1       4.675  15.179  18.131  0.00  0.00    +0.000 A 
ATOM     12  C   UNL     1       5.140  16.398  18.621  0.00  0.00    +0.000 A 
ATOM     13  C   UNL     1       4.527  16.985  19.728  0.00  0.00    +0.000 A 
ATOM     14  C   UNL     1       3.451  16.355  20.355  0.00  0.00    +0.000 A 
ATOM     15  C   UNL     1       2.966  15.134  19.860  0.00  0.00    +0.000 A 
ATOM     16  C   UNL     1       1.829  14.408  20.551  0.00  0.00    +0.000 C 
ATOM     17  N   UNL     1      -0.825  13.845  21.061  0.00  0.00    +0.000 NA
ATOM     18  C   UNL     1      -2.111  13.591  21.288  0.00  0.00    +0.000 A 
ATOM     19  N   UNL     1      -2.699  14.074  22.450  0.00  0.00    +0.000 N 
ATOM     20  C   UNL     1      -1.871  14.887  23.334  0.00  0.00    +0.000 C 
ATOM     21  C   UNL     1      -2.603  15.218  24.638  0.00  0.00    +0.000 C 
ATOM     22  C   UNL     1      -3.897  15.915  24.317  0.00  0.00    +0.000 A 
ATOM     23  C   UNL     1      -4.369  16.989  25.079  0.00  0.00    +0.000 A 
ATOM     24  C   UNL     1      -5.565  17.616  24.734  0.00  0.00    +0.000 A 
ATOM     25  C   UNL     1      -6.300  17.166  23.638  0.00  0.00    +0.000 A 
ATOM     26  C   UNL     1      -5.842  16.080  22.888  0.00  0.00    +0.000 A 
ATOM     27  C   UNL     1      -4.635  15.450  23.215  0.00  0.00    +0.000 A 
ATOM     28  C   UNL     1      -4.153  14.243  22.428  0.00  0.00    +0.000 C 
ATOM     29  N   UNL     1      -2.858  12.877  20.454  0.00  0.00    +0.000 NA
ATOM     30  C   UNL     1      -4.381  11.288  18.734  0.00  0.00    +0.000 C 
ATOM     31  C   UNL     1      -5.237  11.550  17.486  0.00  0.00    +0.000 C 
ATOM     32  O   UNL     1      -4.688  10.916  16.321  0.00  0.00    +0.000 OA
ENDROOT
BRANCH   1  33
ATOM     33  N   UNL     1      -2.860  10.783  14.809  0.00  0.00    +0.000 NA
ATOM     34  H   UNL     1      -2.493  11.509  14.195  0.00  0.00    +0.000 HD
BRANCH  33  36
ATOM     35  C   UNL     1      -3.479   9.706  12.702  0.00  0.00    +0.000 C 
ATOM     36  C   UNL     1      -3.922  10.057  14.113  0.00  0.00    +0.000 C 
ENDBRANCH  33  36
ENDBRANCH   1  33
TORSDOF 2
ENDMDL
MODEL 4
REMARK VINA RESULT:      -7.0      3.407      7.892
REMARK  Name = 
REMARK  3 active torsions:
REMARK  status: ('A' for Active; 'I' for Inactive)
REMARK    1  A    between atoms: C_1  and  C_2
REMARK    2  A    between atoms: C_2  and  N_3
REMARK    3  A    between atoms: N_3  and  C_4
REMARK                            x       y       z     vdW  Elec       q    Type
REMARK                         _______ _______ _______ _____ _____    ______ ____
ROOT
ATOM      1  C   UNL     1      -0.377  15.707  23.619  0.00  0.00    +0.000 C 
ATOM      2  C   UNL     1      -0.169  15.679  22.073  0.00  0.00    +0.000 C 
ATOM      3  N   UNL     1      -0.193  14.286  21.617  0.00  0.00    +0.000 N 
ATOM      4  C   UNL     1       0.718  13.806  20.717  0.00  0.00    +0.000 A 
ATOM      5  N   UNL     1       1.708  14.601  20.351  0.00  0.00    +0.000 NA
ATOM      6  C   UNL     1       2.584  14.127  19.477  0.00  0.00    +0.000 A 
ATOM      7  N   UNL     1       3.605  14.965  19.076  0.00  0.00    +0.000 N 
ATOM      8  C   UNL     1       3.712  16.284  19.696  0.00  0.00    +0.000 C 
ATOM      9  C   UNL     1       4.621  17.232  18.909  0.00  0.00    +0.000 C 
ATOM     10  C   UNL     1       5.937  16.565  18.621  0.00  0.00    +0.000 A 
ATOM     11  C   UNL     1       7.149  17.256  18.692  0.00  0.00    +0.000 A 
ATOM     12  C   UNL     1       8.343  16.595  18.409  0.00  0.00    +0.000 A 
ATOM     13  C   UNL     1       8.327  15.250  18.041  0.00  0.00    +0.000 A 
ATOM     14  C   UNL     1       7.119  14.558  17.949  0.00  0.00    +0.000 A 
ATOM     15  C   UNL     1       5.912  15.211  18.247  0.00  0.00    +0.000 A 
ATOM     16  C   UNL     1       4.583  14.494  18.110  0.00  0.00    +0.000 C 
ATOM     17  N   UNL     1       2.510  12.896  18.987  0.00  0.00    +0.000 NA
ATOM     18  C   UNL     1       1.523  12.124  19.433  0.00  0.00    +0.000 A 
ATOM     19  N   UNL     1       1.432  10.815  18.979  0.00  0.00    +0.000 N 
ATOM     20  C   UNL     1       2.472  10.346  18.069  0.00  0.00    +0.000 C 
ATOM     21  C   UNL     1       2.159   8.944  17.537  0.00  0.00    +0.000 C 
ATOM     22  C   UNL     1       1.989   8.001  18.696  0.00  0.00    +0.000 A 
ATOM     23  C   UNL     1       2.483   6.693  18.665  0.00  0.00    +0.000 A 
ATOM     24  C   UNL     1       2.317   5.859  19.769  0.00  0.00    +0.000 A 
ATOM     25  C   UNL     1       1.647   6.321  20.901  0.00  0.00    +0.000 A 
ATOM     26  C   UNL     1       1.132   7.619  20.926  0.00  0.00    +0.000 A 
ATOM     27  C   UNL     1       1.304   8.473  19.829  0.00  0.00    +0.000 A 
ATOM     28  C   UNL     1       0.711   9.871  19.835  0.00  0.00    +0.000 C 
ATOM     29  N   UNL     1       0.604  12.559  20.288  0.00  0.00    +0.000 NA
ATOM     30  C   UNL     1      -1.373  13.528  22.008  0.00  0.00    +0.000 C 
ATOM     31  C   UNL     1      -1.529  13.635  23.532  0.00  0.00    +0.000 C 
ATOM     32  O   UNL     1      -1.582  15.003  23.966  0.00  0.00    +0.000 OA
ENDROOT
BRANCH   1  33
ATOM     33  N   UNL     1      -0.440  17.081  24.124  0.00  0.00    +0.000 NA
ATOM     34  H   UNL     1      -0.115  17.093  25.090  0.00  0.00    +0.000 HD
BRANCH  33  36
ATOM     35  C   UNL     1      -2.208  18.160  25.425  0.00  0.00    +0.000 C 
ATOM     36  C   UNL     1      -1.809  17.594  24.072  0.00  0.00    +0.000 C 
ENDBRANCH  33  36
ENDBRANCH   1  33
TORSDOF 2
ENDMDL
MODEL 5
REMARK VINA RESULT:      -6.8      2.959      7.546
REMARK  Name = 
REMARK  3 active torsions:
REMARK  status: ('A' for Active; 'I' for Inactive)
REMARK    1  A    between atoms: C_1  and  C_2
REMARK    2  A    between atoms: C_2  and  N_3
REMARK    3  A    between atoms: N_3  and  C_4
REMARK                            x       y       z     vdW  Elec       q    Type
REMARK                         _______ _______ _______ _____ _____    ______ ____
ROOT
ATOM      1  C   UNL     1      -2.147  14.501  24.225  0.00  0.00    +0.000 C 
ATOM      2  C   UNL     1      -1.788  14.749  22.727  0.00  0.00    +0.000 C 
ATOM      3  N   UNL     1      -1.495  13.462  22.090  0.00  0.00    +0.000 N 
ATOM      4  C   UNL     1      -0.425  13.297  21.254  0.00  0.00    +0.000 A 
ATOM      5  N   UNL     1       0.421  14.302  21.123  0.00  0.00    +0.000 NA
ATOM      6  C   UNL     1       1.454  14.134  20.311  0.00  0.00    +0.000 A 
ATOM      7  N   UNL     1       2.325  15.193  20.155  0.00  0.00    +0.000 N 
ATOM      8  C   UNL     1       2.113  16.398  20.953  0.00  0.00    +0.000 C 
ATOM      9  C   UNL     1       2.891  17.603  20.419  0.00  0.00    +0.000 C 
ATOM     10  C   UNL     1       4.333  17.234  20.210  0.00  0.00    +0.000 A 
ATOM     11  C   UNL     1       5.375  18.112  20.524  0.00  0.00    +0.000 A 
ATOM     12  C   UNL     1       6.697  17.727  20.305  0.00  0.00    +0.000 A 
ATOM     13  C   UNL     1       6.979  16.474  19.762  0.00  0.00    +0.000 A 
ATOM     14  C   UNL     1       5.943  15.600  19.430  0.00  0.00    +0.000 A 
ATOM     15  C   UNL     1       4.609  15.971  19.659  0.00  0.00    +0.000 A 
ATOM     16  C   UNL     1       3.466  15.059  19.264  0.00  0.00    +0.000 C 
ATOM     17  N   UNL     1       1.669  12.999  19.655  0.00  0.00    +0.000 NA
ATOM     18  C   UNL     1       0.813  12.004  19.868  0.00  0.00    +0.000 A 
ATOM     19  N   UNL     1       1.023  10.786  19.236  0.00  0.00    +0.000 N 
ATOM     20  C   UNL     1       2.218  10.656  18.409  0.00  0.00    +0.000 C 
ATOM     21  C   UNL     1       2.238   9.320  17.659  0.00  0.00    +0.000 C 
ATOM     22  C   UNL     1       2.144   8.195  18.652  0.00  0.00    +0.000 A 
ATOM     23  C   UNL     1       2.884   7.017  18.509  0.00  0.00    +0.000 A 
ATOM     24  C   UNL     1       2.778   6.006  19.463  0.00  0.00    +0.000 A 
ATOM     25  C   UNL     1       1.924   6.161  20.554  0.00  0.00    +0.000 A 
ATOM     26  C   UNL     1       1.165   7.327  20.688  0.00  0.00    +0.000 A 
ATOM     27  C   UNL     1       1.273   8.356  19.745  0.00  0.00    +0.000 A 
ATOM     28  C   UNL     1       0.421   9.608  19.863  0.00  0.00    +0.000 C 
ATOM     29  N   UNL     1      -0.252  12.130  20.652  0.00  0.00    +0.000 NA
ATOM     30  C   UNL     1      -2.537  12.453  22.227  0.00  0.00    +0.000 C 
ATOM     31  C   UNL     1      -2.859  12.295  23.720  0.00  0.00    +0.000 C 
ATOM     32  O   UNL     1      -3.219  13.548  24.322  0.00  0.00    +0.000 OA
ENDROOT
BRANCH   1  33
ATOM     33  N   UNL     1      -2.525  15.746  24.896  0.00  0.00    +0.000 NA
ATOM     34  H   UNL     1      -2.469  16.513  24.227  0.00  0.00    +0.000 HD
BRANCH  33  36
ATOM     35  C   UNL     1      -0.446  16.852  25.557  0.00  0.00    +0.000 C 
ATOM     36  C   UNL     1      -1.634  16.025  26.022  0.00  0.00    +0.000 C 
ENDBRANCH  33  36
ENDBRANCH   1  33
TORSDOF 2
ENDMDL
MODEL 6
REMARK VINA RESULT:      -6.8      1.861      8.154
REMARK  Name = 
REMARK  3 active torsions:
REMARK  status: ('A' for Active; 'I' for Inactive)
REMARK    1  A    between atoms: C_1  and  C_2
REMARK    2  A    between atoms: C_2  and  N_3
REMARK    3  A    between atoms: N_3  and  C_4
REMARK                            x       y       z     vdW  Elec       q    Type
REMARK                         _______ _______ _______ _____ _____    ______ ____
ROOT
ATOM      1  C   UNL     1      -4.896  13.036  23.661  0.00  0.00    +0.000 C 
ATOM      2  C   UNL     1      -3.352  12.955  23.874  0.00  0.00    +0.000 C 
ATOM      3  N   UNL     1      -2.708  14.005  23.082  0.00  0.00    +0.000 N 
ATOM      4  C   UNL     1      -1.585  13.764  22.340  0.00  0.00    +0.000 A 
ATOM      5  N   UNL     1      -1.153  12.518  22.254  0.00  0.00    +0.000 NA
ATOM      6  C   UNL     1      -0.064  12.294  21.534  0.00  0.00    +0.000 A 
ATOM      7  N   UNL     1       0.401  10.997  21.464  0.00  0.00    +0.000 N 
ATOM      8  C   UNL     1      -0.375   9.939  22.108  0.00  0.00    +0.000 C 
ATOM      9  C   UNL     1       0.426   8.646  22.285  0.00  0.00    +0.000 C 
ATOM     10  C   UNL     1       1.064   8.253  20.982  0.00  0.00    +0.000 A 
ATOM     11  C   UNL     1       1.131   6.921  20.563  0.00  0.00    +0.000 A 
ATOM     12  C   UNL     1       1.739   6.605  19.349  0.00  0.00    +0.000 A 
ATOM     13  C   UNL     1       2.293   7.613  18.561  0.00  0.00    +0.000 A 
ATOM     14  C   UNL     1       2.246   8.943  18.982  0.00  0.00    +0.000 A 
ATOM     15  C   UNL     1       1.622   9.274  20.196  0.00  0.00    +0.000 A 
ATOM     16  C   UNL     1       1.600  10.704  20.697  0.00  0.00    +0.000 C 
ATOM     17  N   UNL     1       0.580  13.262  20.893  0.00  0.00    +0.000 NA
ATOM     18  C   UNL     1       0.067  14.487  20.972  0.00  0.00    +0.000 A 
ATOM     19  N   UNL     1       0.684  15.522  20.282  0.00  0.00    +0.000 N 
ATOM     20  C   UNL     1       1.840  15.185  19.458  0.00  0.00    +0.000 C 
ATOM     21  C   UNL     1       2.503  16.441  18.883  0.00  0.00    +0.000 C 
ATOM     22  C   UNL     1       1.486  17.220  18.094  0.00  0.00    +0.000 A 
ATOM     23  C   UNL     1       1.808  17.847  16.886  0.00  0.00    +0.000 A 
ATOM     24  C   UNL     1       0.829  18.545  16.181  0.00  0.00    +0.000 A 
ATOM     25  C   UNL     1      -0.468  18.631  16.684  0.00  0.00    +0.000 A 
ATOM     26  C   UNL     1      -0.786  18.025  17.902  0.00  0.00    +0.000 A 
ATOM     27  C   UNL     1       0.183  17.308  18.614  0.00  0.00    +0.000 A 
ATOM     28  C   UNL     1      -0.147  16.682  19.958  0.00  0.00    +0.000 C 
ATOM     29  N   UNL     1      -1.006  14.768  21.700  0.00  0.00    +0.000 NA
ATOM     30  C   UNL     1      -3.207  15.353  23.320  0.00  0.00    +0.000 C 
ATOM     31  C   UNL     1      -4.730  15.342  23.128  0.00  0.00    +0.000 C 
ATOM     32  O   UNL     1      -5.364  14.361  23.964  0.00  0.00    +0.000 OA
ENDROOT
BRANCH   1  33
ATOM     33  N   UNL     1      -5.601  12.057  24.491  0.00  0.00    +0.000 NA
ATOM     34  H   UNL     1      -5.397  11.120  24.143  0.00  0.00    +0.000 HD
BRANCH  33  36
ATOM     35  C   UNL     1      -7.600  11.867  23.093  0.00  0.00    +0.000 C 
ATOM     36  C   UNL     1      -7.047  12.280  24.447  0.00  0.00    +0.000 C 
ENDBRANCH  33  36
ENDBRANCH   1  33
TORSDOF 2
ENDMDL
MODEL 7
REMARK VINA RESULT:      -6.6      7.130      9.385
REMARK  Name = 
REMARK  3 active torsions:
REMARK  status: ('A' for Active; 'I' for Inactive)
REMARK    1  A    between atoms: C_1  and  C_2
REMARK    2  A    between atoms: C_2  and  N_3
REMARK    3  A    between atoms: N_3  and  C_4
REMARK                            x       y       z     vdW  Elec       q    Type
REMARK                         _______ _______ _______ _____ _____    ______ ____
ROOT
ATOM      1  C   UNL     1       7.556  13.460  26.680  0.00  0.00    +0.000 C 
ATOM      2  C   UNL     1       7.631  14.563  25.578  0.00  0.00    +0.000 C 
ATOM      3  N   UNL     1       6.378  14.561  24.820  0.00  0.00    +0.000 N 
ATOM      4  C   UNL     1       6.360  14.644  23.454  0.00  0.00    +0.000 A 
ATOM      5  N   UNL     1       7.515  14.607  22.815  0.00  0.00    +0.000 NA
ATOM      6  C   UNL     1       7.489  14.690  21.493  0.00  0.00    +0.000 A 
ATOM      7  N   UNL     1       8.697  14.674  20.826  0.00  0.00    +0.000 N 
ATOM      8  C   UNL     1       9.921  14.480  21.600  0.00  0.00    +0.000 C 
ATOM      9  C   UNL     1      11.180  14.861  20.815  0.00  0.00    +0.000 C 
ATOM     10  C   UNL     1      11.173  14.188  19.471  0.00  0.00    +0.000 A 
ATOM     11  C   UNL     1      12.333  13.653  18.905  0.00  0.00    +0.000 A 
ATOM     12  C   UNL     1      12.278  13.045  17.651  0.00  0.00    +0.000 A 
ATOM     13  C   UNL     1      11.070  12.982  16.958  0.00  0.00    +0.000 A 
ATOM     14  C   UNL     1       9.911  13.530  17.510  0.00  0.00    +0.000 A 
ATOM     15  C   UNL     1       9.953  14.132  18.777  0.00  0.00    +0.000 A 
ATOM     16  C   UNL     1       8.718  14.775  19.376  0.00  0.00    +0.000 C 
ATOM     17  N   UNL     1       6.356  14.786  20.806  0.00  0.00    +0.000 NA
ATOM     18  C   UNL     1       5.222  14.766  21.501  0.00  0.00    +0.000 A 
ATOM     19  N   UNL     1       4.013  14.822  20.820  0.00  0.00    +0.000 N 
ATOM     20  C   UNL     1       4.064  14.845  19.362  0.00  0.00    +0.000 C 
ATOM     21  C   UNL     1       2.672  15.060  18.758  0.00  0.00    +0.000 C 
ATOM     22  C   UNL     1       1.747  13.981  19.249  0.00  0.00    +0.000 A 
ATOM     23  C   UNL     1       0.799  13.382  18.414  0.00  0.00    +0.000 A 
ATOM     24  C   UNL     1      -0.027  12.373  18.908  0.00  0.00    +0.000 A 
ATOM     25  C   UNL     1       0.081  11.970  20.238  0.00  0.00    +0.000 A 
ATOM     26  C   UNL     1       1.012  12.582  21.081  0.00  0.00    +0.000 A 
ATOM     27  C   UNL     1       1.858  13.586  20.594  0.00  0.00    +0.000 A 
ATOM     28  C   UNL     1       2.843  14.284  21.516  0.00  0.00    +0.000 C 
ATOM     29  N   UNL     1       5.196  14.710  22.827  0.00  0.00    +0.000 NA
ATOM     30  C   UNL     1       5.169  14.693  25.621  0.00  0.00    +0.000 C 
ATOM     31  C   UNL     1       5.188  13.602  26.701  0.00  0.00    +0.000 C 
ATOM     32  O   UNL     1       6.386  13.656  27.492  0.00  0.00    +0.000 OA
ENDROOT
BRANCH   1  33
ATOM     33  N   UNL     1       8.753  13.466  27.523  0.00  0.00    +0.000 NA
ATOM     34  H   UNL     1       8.468  13.506  28.501  0.00  0.00    +0.000 HD
BRANCH  33  36
ATOM     35  C   UNL     1      10.678  14.771  28.283  0.00  0.00    +0.000 C 
ATOM     36  C   UNL     1       9.599  14.621  27.223  0.00  0.00    +0.000 C 
ENDBRANCH  33  36
ENDBRANCH   1  33
TORSDOF 2
ENDMDL
MODEL 8
REMARK VINA RESULT:      -6.5      2.940      7.132
REMARK  Name = 
REMARK  3 active torsions:
REMARK  status: ('A' for Active; 'I' for Inactive)
REMARK    1  A    between atoms: C_1  and  C_2
REMARK    2  A    between atoms: C_2  and  N_3
REMARK    3  A    between atoms: N_3  and  C_4
REMARK                            x       y       z     vdW  Elec       q    Type
REMARK                         _______ _______ _______ _____ _____    ______ ____
ROOT
ATOM      1  C   UNL     1       4.919  15.168  18.283  0.00  0.00    +0.000 C 
ATOM      2  C   UNL     1       3.658  14.379  17.813  0.00  0.00    +0.000 C 
ATOM      3  N   UNL     1       2.544  14.687  18.713  0.00  0.00    +0.000 N 
ATOM      4  C   UNL     1       1.711  13.712  19.191  0.00  0.00    +0.000 A 
ATOM      5  N   UNL     1       2.006  12.454  18.916  0.00  0.00    +0.000 NA
ATOM      6  C   UNL     1       1.193  11.517  19.381  0.00  0.00    +0.000 A 
ATOM      7  N   UNL     1       1.488  10.204  19.074  0.00  0.00    +0.000 N 
ATOM      8  C   UNL     1       2.715   9.917  18.336  0.00  0.00    +0.000 C 
ATOM      9  C   UNL     1       2.727   8.506  17.740  0.00  0.00    +0.000 C 
ATOM     10  C   UNL     1       2.378   7.496  18.797  0.00  0.00    +0.000 A 
ATOM     11  C   UNL     1       3.024   6.260  18.882  0.00  0.00    +0.000 A 
ATOM     12  C   UNL     1       2.661   5.353  19.877  0.00  0.00    +0.000 A 
ATOM     13  C   UNL     1       1.646   5.673  20.777  0.00  0.00    +0.000 A 
ATOM     14  C   UNL     1       0.985   6.899  20.687  0.00  0.00    +0.000 A 
ATOM     15  C   UNL     1       1.352   7.825  19.699  0.00  0.00    +0.000 A 
ATOM     16  C   UNL     1       0.618   9.143  19.552  0.00  0.00    +0.000 C 
ATOM     17  N   UNL     1       0.125  11.800  20.118  0.00  0.00    +0.000 NA
ATOM     18  C   UNL     1      -0.091  13.080  20.406  0.00  0.00    +0.000 A 
ATOM     19  N   UNL     1      -1.173  13.417  21.209  0.00  0.00    +0.000 N 
ATOM     20  C   UNL     1      -1.983  12.325  21.737  0.00  0.00    +0.000 C 
ATOM     21  C   UNL     1      -3.220  12.851  22.473  0.00  0.00    +0.000 C 
ATOM     22  C   UNL     1      -2.783  13.781  23.572  0.00  0.00    +0.000 A 
ATOM     23  C   UNL     1      -3.405  13.789  24.825  0.00  0.00    +0.000 A 
ATOM     24  C   UNL     1      -2.956  14.657  25.819  0.00  0.00    +0.000 A 
ATOM     25  C   UNL     1      -1.896  15.526  25.564  0.00  0.00    +0.000 A 
ATOM     26  C   UNL     1      -1.288  15.535  24.306  0.00  0.00    +0.000 A 
ATOM     27  C   UNL     1      -1.719  14.659  23.303  0.00  0.00    +0.000 A 
ATOM     28  C   UNL     1      -1.089  14.694  21.921  0.00  0.00    +0.000 C 
ATOM     29  N   UNL     1       0.678  14.058  19.943  0.00  0.00    +0.000 NA
ATOM     30  C   UNL     1       2.253  16.105  18.876  0.00  0.00    +0.000 C 
ATOM     31  C   UNL     1       3.547  16.814  19.301  0.00  0.00    +0.000 C 
ATOM     32  O   UNL     1       4.616  16.571  18.373  0.00  0.00    +0.000 OA
ENDROOT
BRANCH   1  33
ATOM     33  N   UNL     1       6.048  14.961  17.373  0.00  0.00    +0.000 NA
ATOM     34  H   UNL     1       5.835  14.179  16.755  0.00  0.00    +0.000 HD
BRANCH  33  36
ATOM     35  C   UNL     1       7.864  13.345  17.650  0.00  0.00    +0.000 C 
ATOM     36  C   UNL     1       7.272  14.665  18.118  0.00  0.00    +0.000 C 
ENDBRANCH  33  36
ENDBRANCH   1  33
TORSDOF 2
ENDMDL
MODEL 9
REMARK VINA RESULT:      -6.5      6.949      9.351
REMARK  Name = 
REMARK  3 active torsions:
REMARK  status: ('A' for Active; 'I' for Inactive)
REMARK    1  A    between atoms: C_1  and  C_2
REMARK    2  A    between atoms: C_2  and  N_3
REMARK    3  A    between atoms: N_3  and  C_4
REMARK                            x       y       z     vdW  Elec       q    Type
REMARK                         _______ _______ _______ _____ _____    ______ ____
ROOT
ATOM      1  C   UNL     1       6.999  15.426  26.735  0.00  0.00    +0.000 C 
ATOM      2  C   UNL     1       7.191  16.097  25.340  0.00  0.00    +0.000 C 
ATOM      3  N   UNL     1       5.947  15.966  24.576  0.00  0.00    +0.000 N 
ATOM      4  C   UNL     1       5.945  15.602  23.257  0.00  0.00    +0.000 A 
ATOM      5  N   UNL     1       7.094  15.249  22.709  0.00  0.00    +0.000 NA
ATOM      6  C   UNL     1       7.083  14.899  21.431  0.00  0.00    +0.000 A 
ATOM      7  N   UNL     1       8.286  14.553  20.851  0.00  0.00    +0.000 N 
ATOM      8  C   UNL     1       9.480  14.507  21.691  0.00  0.00    +0.000 C 
ATOM      9  C   UNL     1      10.775  14.491  20.874  0.00  0.00    +0.000 C 
ATOM     10  C   UNL     1      10.707  13.422  19.821  0.00  0.00    +0.000 A 
ATOM     11  C   UNL     1      11.810  12.625  19.502  0.00  0.00    +0.000 A 
ATOM     12  C   UNL     1      11.700  11.649  18.512  0.00  0.00    +0.000 A 
ATOM     13  C   UNL     1      10.495  11.478  17.831  0.00  0.00    +0.000 A 
ATOM     14  C   UNL     1       9.395  12.282  18.132  0.00  0.00    +0.000 A 
ATOM     15  C   UNL     1       9.491  13.258  19.137  0.00  0.00    +0.000 A 
ATOM     16  C   UNL     1       8.325  14.174  19.448  0.00  0.00    +0.000 C 
ATOM     17  N   UNL     1       5.969  14.873  20.708  0.00  0.00    +0.000 NA
ATOM     18  C   UNL     1       4.835  15.187  21.328  0.00  0.00    +0.000 A 
ATOM     19  N   UNL     1       3.642  15.132  20.621  0.00  0.00    +0.000 N 
ATOM     20  C   UNL     1       3.702  14.674  19.237  0.00  0.00    +0.000 C 
ATOM     21  C   UNL     1       2.342  14.810  18.543  0.00  0.00    +0.000 C 
ATOM     22  C   UNL     1       1.310  14.042  19.322  0.00  0.00    +0.000 A 
ATOM     23  C   UNL     1       0.310  13.295  18.690  0.00  0.00    +0.000 A 
ATOM     24  C   UNL     1      -0.616  12.586  19.453  0.00  0.00    +0.000 A 
ATOM     25  C   UNL     1      -0.556  12.629  20.845  0.00  0.00    +0.000 A 
ATOM     26  C   UNL     1       0.427  13.392  21.478  0.00  0.00    +0.000 A 
ATOM     27  C   UNL     1       1.373  14.099  20.725  0.00  0.00    +0.000 A 
ATOM     28  C   UNL     1       2.419  14.963  21.408  0.00  0.00    +0.000 C 
ATOM     29  N   UNL     1       4.797  15.569  22.599  0.00  0.00    +0.000 NA
ATOM     30  C   UNL     1       4.754  16.466  25.245  0.00  0.00    +0.000 C 
ATOM     31  C   UNL     1       4.657  15.789  26.620  0.00  0.00    +0.000 C 
ATOM     32  O   UNL     1       5.850  15.985  27.395  0.00  0.00    +0.000 OA
ENDROOT
BRANCH   1  33
ATOM     33  N   UNL     1       8.186  15.593  27.576  0.00  0.00    +0.000 NA
ATOM     34  H   UNL     1       8.799  16.287  27.148  0.00  0.00    +0.000 HD
BRANCH  33  36
ATOM     35  C   UNL     1      10.407  14.568  27.574  0.00  0.00    +0.000 C 
ATOM     36  C   UNL     1       8.912  14.331  27.713  0.00  0.00    +0.000 C 
ENDBRANCH  33  36
ENDBRANCH   1  33
TORSDOF 2
ENDMDL
