MODEL 1
REMARK VINA RESULT:      -6.8      0.000      0.000
REMARK  Name = 
REMARK  9 active torsions:
REMARK  status: ('A' for Active; 'I' for Inactive)
REMARK    1  A    between atoms: N_1  and  S_2
REMARK    2  A    between atoms: S_2  and  C_5
REMARK    3  A    between atoms: C_8  and  N_9
REMARK    4  A    between atoms: C_13  and  C_14
REMARK    5  A    between atoms: N_16  and  C_17
REMARK    6  A    between atoms: C_17  and  C_18
REMARK    7  A    between atoms: C_18  and  C_19
REMARK    8  A    between atoms: C_19  and  O_20
REMARK    9  A    between atoms: C_21  and  C_22
REMARK                            x       y       z     vdW  Elec       q    Type
REMARK                         _______ _______ _______ _____ _____    ______ ____
ROOT
ATOM      1  N   UNL     1       0.155  11.127  19.836  0.00  0.00    +0.000 N 
ATOM      2  C   UNL     1       0.671  12.155  20.628  0.00  0.00    +0.000 C 
ATOM      3  O   UNL     1       1.826  12.327  20.992  0.00  0.00    +0.000 OA
ATOM      4  C   UNL     1      -0.472  13.023  21.086  0.00  0.00    +0.000 C 
ATOM      5  C   UNL     1      -1.618  12.638  20.164  0.00  0.00    +0.000 C 
ATOM      6  C   UNL     1      -1.290  11.195  19.758  0.00  0.00    +0.000 C 
ENDROOT
BRANCH   6   7
ATOM      7  C   UNL     1      -1.841  10.890  18.369  0.00  0.00    +0.000 A 
ATOM      8  C   UNL     1      -1.814  11.847  17.338  0.00  0.00    +0.000 A 
ATOM      9  C   UNL     1      -2.432  11.590  16.111  0.00  0.00    +0.000 A 
ATOM     10  C   UNL     1      -3.062  10.366  15.898  0.00  0.00    +0.000 A 
ATOM     11 CL   UNL     1      -3.864  10.067  14.405  0.00  0.00    +0.000 Cl
ATOM     12  C   UNL     1      -3.060   9.391  16.891  0.00  0.00    +0.000 A 
ATOM     13  C   UNL     1      -2.455   9.653  18.122  0.00  0.00    +0.000 A 
ENDBRANCH   6   7
BRANCH   1  17
ATOM     14  C   UNL     1       2.345   7.640  18.935  0.00  0.00    +0.000 A 
ATOM     15  C   UNL     1       1.786   7.787  20.204  0.00  0.00    +0.000 A 
ATOM     16  C   UNL     1       1.042   8.934  20.495  0.00  0.00    +0.000 A 
ATOM     17  C   UNL     1       0.896   9.955  19.544  0.00  0.00    +0.000 A 
ATOM     18  C   UNL     1       1.496   9.806  18.289  0.00  0.00    +0.000 A 
ATOM     19  C   UNL     1       2.206   8.644  17.976  0.00  0.00    +0.000 A 
BRANCH  14  20
ATOM     20  S   UNL     1       3.262   6.183  18.536  0.00  0.00    +0.000 S 
ATOM     21  O   UNL     1       3.739   5.571  19.752  0.00  0.00    +0.000 OA
ATOM     22  O   UNL     1       4.127   6.458  17.410  0.00  0.00    +0.000 OA
BRANCH  20  23
ATOM     23  N   UNL     1       2.053   5.180  17.948  0.00  0.00    +0.000 NA
ATOM     24  H   UNL     1       1.157   5.458  18.346  0.00  0.00    +0.000 HD
ATOM     25  H   UNL     1       2.292   4.197  18.108  0.00  0.00    +0.000 HD
ENDBRANCH  20  23
ENDBRANCH  14  20
ENDBRANCH   1  17
BRANCH   5  26
ATOM     26  C   UNL     1      -2.964  12.717  20.848  0.00  0.00    +0.000 C 
ATOM     27  O   UNL     1      -3.143  12.419  22.026  0.00  0.00    +0.000 OA
ATOM     28  N   UNL     1      -3.996  13.100  20.020  0.00  0.00    +0.000 N 
ATOM     29  H   UNL     1      -3.835  13.217  19.026  0.00  0.00    +0.000 HD
BRANCH  28  30
ATOM     30  C   UNL     1      -5.361  13.200  20.506  0.00  0.00    +0.000 C 
BRANCH  30  31
ATOM     31  C   UNL     1      -6.296  12.171  19.874  0.00  0.00    +0.000 C 
BRANCH  31  32
ATOM     32  C   UNL     1      -5.812  11.606  18.543  0.00  0.00    +0.000 C 
BRANCH  32  33
ATOM     33  O   UNL     1      -5.439  12.647  17.655  0.00  0.00    +0.000 OA
ATOM     34  H   UNL     1      -4.478  12.541  17.484  0.00  0.00    +0.000 HD
ENDBRANCH  32  33
ENDBRANCH  31  32
ENDBRANCH  30  31
ENDBRANCH  28  30
ENDBRANCH   5  26
TORSDOF 9
ENDMDL
MODEL 2
REMARK VINA RESULT:      -6.8      0.689      1.176
REMARK  Name = 
REMARK  9 active torsions:
REMARK  status: ('A' for Active; 'I' for Inactive)
REMARK    1  A    between atoms: N_1  and  S_2
REMARK    2  A    between atoms: S_2  and  C_5
REMARK    3  A    between atoms: C_8  and  N_9
REMARK    4  A    between atoms: C_13  and  C_14
REMARK    5  A    between atoms: N_16  and  C_17
REMARK    6  A    between atoms: C_17  and  C_18
REMARK    7  A    between atoms: C_18  and  C_19
REMARK    8  A    between atoms: C_19  and  O_20
REMARK    9  A    between atoms: C_21  and  C_22
REMARK                            x       y       z     vdW  Elec       q    Type
REMARK                         _______ _______ _______ _____ _____    ______ ____
ROOT
ATOM      1  N   UNL     1       0.200  11.140  19.786  0.00  0.00    +0.000 N 
ATOM      2  C   UNL     1       0.764  12.166  20.548  0.00  0.00    +0.000 C 
ATOM      3  O   UNL     1       1.933  12.317  20.873  0.00  0.00    +0.000 OA
ATOM      4  C   UNL     1      -0.344  13.066  21.030  0.00  0.00    +0.000 C 
ATOM      5  C   UNL     1      -1.527  12.695  20.149  0.00  0.00    +0.000 C 
ATOM      6  C   UNL     1      -1.245  11.240  19.752  0.00  0.00    +0.000 C 
ENDROOT
BRANCH   6   7
ATOM      7  C   UNL     1      -1.845  10.930  18.386  0.00  0.00    +0.000 A 
ATOM      8  C   UNL     1      -1.783  11.852  17.325  0.00  0.00    +0.000 A 
ATOM      9  C   UNL     1      -2.445  11.600  16.121  0.00  0.00    +0.000 A 
ATOM     10  C   UNL     1      -3.154  10.412  15.959  0.00  0.00    +0.000 A 
ATOM     11 CL   UNL     1      -4.007  10.121  14.493  0.00  0.00    +0.000 Cl
ATOM     12  C   UNL     1      -3.189   9.468  16.981  0.00  0.00    +0.000 A 
ATOM     13  C   UNL     1      -2.541   9.727  18.190  0.00  0.00    +0.000 A 
ENDBRANCH   6   7
BRANCH   1  17
ATOM     14  C   UNL     1       2.317   7.597  18.929  0.00  0.00    +0.000 A 
ATOM     15  C   UNL     1       2.156   8.555  17.929  0.00  0.00    +0.000 A 
ATOM     16  C   UNL     1       1.471   9.740  18.220  0.00  0.00    +0.000 A 
ATOM     17  C   UNL     1       0.906   9.949  19.487  0.00  0.00    +0.000 A 
ATOM     18  C   UNL     1       1.046   8.959  20.466  0.00  0.00    +0.000 A 
ATOM     19  C   UNL     1       1.763   7.791  20.195  0.00  0.00    +0.000 A 
BRANCH  14  20
ATOM     20  S   UNL     1       3.205   6.108  18.591  0.00  0.00    +0.000 S 
ATOM     21  O   UNL     1       4.488   6.436  18.018  0.00  0.00    +0.000 OA
ATOM     22  O   UNL     1       2.308   5.143  17.993  0.00  0.00    +0.000 OA
BRANCH  20  23
ATOM     23  N   UNL     1       3.512   5.545  20.141  0.00  0.00    +0.000 NA
ATOM     24  H   UNL     1       4.338   4.949  20.129  0.00  0.00    +0.000 HD
ATOM     25  H   UNL     1       2.679   5.094  20.531  0.00  0.00    +0.000 HD
ENDBRANCH  20  23
ENDBRANCH  14  20
ENDBRANCH   1  17
BRANCH   5  26
ATOM     26  C   UNL     1      -2.849  12.813  20.874  0.00  0.00    +0.000 C 
ATOM     27  O   UNL     1      -3.038  12.390  22.011  0.00  0.00    +0.000 OA
ATOM     28  N   UNL     1      -3.852  13.391  20.126  0.00  0.00    +0.000 N 
ATOM     29  H   UNL     1      -3.696  13.613  19.150  0.00  0.00    +0.000 HD
BRANCH  28  30
ATOM     30  C   UNL     1      -5.193  13.555  20.658  0.00  0.00    +0.000 C 
BRANCH  30  31
ATOM     31  C   UNL     1      -6.269  12.935  19.767  0.00  0.00    +0.000 C 
BRANCH  31  32
ATOM     32  C   UNL     1      -5.738  11.988  18.697  0.00  0.00    +0.000 C 
BRANCH  32  33
ATOM     33  O   UNL     1      -5.381  12.699  17.521  0.00  0.00    +0.000 OA
ATOM     34  H   UNL     1      -5.543  13.650  17.707  0.00  0.00    +0.000 HD
ENDBRANCH  32  33
ENDBRANCH  31  32
ENDBRANCH  30  31
ENDBRANCH  28  30
ENDBRANCH   5  26
TORSDOF 9
ENDMDL
MODEL 3
REMARK VINA RESULT:      -6.7      0.856      1.569
REMARK  Name = 
REMARK  9 active torsions:
REMARK  status: ('A' for Active; 'I' for Inactive)
REMARK    1  A    between atoms: N_1  and  S_2
REMARK    2  A    between atoms: S_2  and  C_5
REMARK    3  A    between atoms: C_8  and  N_9
REMARK    4  A    between atoms: C_13  and  C_14
REMARK    5  A    between atoms: N_16  and  C_17
REMARK    6  A    between atoms: C_17  and  C_18
REMARK    7  A    between atoms: C_18  and  C_19
REMARK    8  A    between atoms: C_19  and  O_20
REMARK    9  A    between atoms: C_21  and  C_22
REMARK                            x       y       z     vdW  Elec       q    Type
REMARK                         _______ _______ _______ _____ _____    ______ ____
ROOT
ATOM      1  N   UNL     1       0.093  11.110  19.950  0.00  0.00    +0.000 N 
ATOM      2  C   UNL     1       0.646  12.108  20.756  0.00  0.00    +0.000 C 
ATOM      3  O   UNL     1       1.819  12.283  21.051  0.00  0.00    +0.000 OA
ATOM      4  C   UNL     1      -0.477  12.935  21.327  0.00  0.00    +0.000 C 
ATOM      5  C   UNL     1      -1.675  12.574  20.463  0.00  0.00    +0.000 C 
ATOM      6  C   UNL     1      -1.355  11.158  19.969  0.00  0.00    +0.000 C 
ENDROOT
BRANCH   6   7
ATOM      7  C   UNL     1      -1.991  10.909  18.605  0.00  0.00    +0.000 A 
ATOM      8  C   UNL     1      -2.631   9.695  18.298  0.00  0.00    +0.000 A 
ATOM      9  C   UNL     1      -3.099   9.441  17.007  0.00  0.00    +0.000 A 
ATOM     10  C   UNL     1      -2.952  10.410  16.017  0.00  0.00    +0.000 A 
ATOM     11 CL   UNL     1      -3.486  10.081  14.415  0.00  0.00    +0.000 Cl
ATOM     12  C   UNL     1      -2.361  11.635  16.313  0.00  0.00    +0.000 A 
ATOM     13  C   UNL     1      -1.880  11.883  17.600  0.00  0.00    +0.000 A 
ENDBRANCH   6   7
BRANCH   1  17
ATOM     14  C   UNL     1       2.303   7.708  18.807  0.00  0.00    +0.000 A 
ATOM     15  C   UNL     1       2.068   8.715  17.872  0.00  0.00    +0.000 A 
ATOM     16  C   UNL     1       1.352   9.853  18.258  0.00  0.00    +0.000 A 
ATOM     17  C   UNL     1       0.829   9.966  19.555  0.00  0.00    +0.000 A 
ATOM     18  C   UNL     1       1.043   8.928  20.467  0.00  0.00    +0.000 A 
ATOM     19  C   UNL     1       1.792   7.806  20.102  0.00  0.00    +0.000 A 
BRANCH  14  20
ATOM     20  S   UNL     1       3.231   6.277  18.349  0.00  0.00    +0.000 S 
ATOM     21  O   UNL     1       4.416   6.683  17.633  0.00  0.00    +0.000 OA
ATOM     22  O   UNL     1       2.329   5.262  17.850  0.00  0.00    +0.000 OA
BRANCH  20  23
ATOM     23  N   UNL     1       3.753   5.726  19.845  0.00  0.00    +0.000 NA
ATOM     24  H   UNL     1       3.268   4.860  20.076  0.00  0.00    +0.000 HD
ATOM     25  H   UNL     1       3.652   6.460  20.553  0.00  0.00    +0.000 HD
ENDBRANCH  20  23
ENDBRANCH  14  20
ENDBRANCH   1  17
BRANCH   5  26
ATOM     26  C   UNL     1      -2.975  12.599  21.236  0.00  0.00    +0.000 C 
ATOM     27  O   UNL     1      -3.049  12.389  22.444  0.00  0.00    +0.000 OA
ATOM     28  N   UNL     1      -4.090  12.823  20.458  0.00  0.00    +0.000 N 
ATOM     29  H   UNL     1      -4.006  12.867  19.449  0.00  0.00    +0.000 HD
BRANCH  28  30
ATOM     30  C   UNL     1      -5.422  12.849  21.034  0.00  0.00    +0.000 C 
BRANCH  30  31
ATOM     31  C   UNL     1      -6.482  12.243  20.115  0.00  0.00    +0.000 C 
BRANCH  31  32
ATOM     32  C   UNL     1      -5.930  11.335  19.022  0.00  0.00    +0.000 C 
BRANCH  32  33
ATOM     33  O   UNL     1      -6.975  10.618  18.381  0.00  0.00    +0.000 OA
ATOM     34  H   UNL     1      -6.553  10.068  17.685  0.00  0.00    +0.000 HD
ENDBRANCH  32  33
ENDBRANCH  31  32
ENDBRANCH  30  31
ENDBRANCH  28  30
ENDBRANCH   5  26
TORSDOF 9
ENDMDL
MODEL 4
REMARK VINA RESULT:      -6.7      1.073      1.458
REMARK  Name = 
REMARK  9 active torsions:
REMARK  status: ('A' for Active; 'I' for Inactive)
REMARK    1  A    between atoms: N_1  and  S_2
REMARK    2  A    between atoms: S_2  and  C_5
REMARK    3  A    between atoms: C_8  and  N_9
REMARK    4  A    between atoms: C_13  and  C_14
REMARK    5  A    between atoms: N_16  and  C_17
REMARK    6  A    between atoms: C_17  and  C_18
REMARK    7  A    between atoms: C_18  and  C_19
REMARK    8  A    between atoms: C_19  and  O_20
REMARK    9  A    between atoms: C_21  and  C_22
REMARK                            x       y       z     vdW  Elec       q    Type
REMARK                         _______ _______ _______ _____ _____    ______ ____
ROOT
ATOM      1  N   UNL     1       0.100  11.172  19.885  0.00  0.00    +0.000 N 
ATOM      2  C   UNL     1       0.645  12.192  20.668  0.00  0.00    +0.000 C 
ATOM      3  O   UNL     1       1.812  12.361  20.990  0.00  0.00    +0.000 OA
ATOM      4  C   UNL     1      -0.481  13.054  21.178  0.00  0.00    +0.000 C 
ATOM      5  C   UNL     1      -1.660  12.677  20.294  0.00  0.00    +0.000 C 
ATOM      6  C   UNL     1      -1.347  11.239  19.861  0.00  0.00    +0.000 C 
ENDROOT
BRANCH   6   7
ATOM      7  C   UNL     1      -1.948  10.948  18.491  0.00  0.00    +0.000 A 
ATOM      8  C   UNL     1      -2.522   9.701  18.185  0.00  0.00    +0.000 A 
ATOM      9  C   UNL     1      -2.957   9.414  16.889  0.00  0.00    +0.000 A 
ATOM     10  C   UNL     1      -2.843  10.381  15.893  0.00  0.00    +0.000 A 
ATOM     11 CL   UNL     1      -3.335  10.013  14.285  0.00  0.00    +0.000 Cl
ATOM     12  C   UNL     1      -2.319  11.636  16.187  0.00  0.00    +0.000 A 
ATOM     13  C   UNL     1      -1.871  11.918  17.479  0.00  0.00    +0.000 A 
ENDBRANCH   6   7
BRANCH   1  17
ATOM     14  C   UNL     1       2.257   7.696  18.867  0.00  0.00    +0.000 A 
ATOM     15  C   UNL     1       1.740   7.827  20.155  0.00  0.00    +0.000 A 
ATOM     16  C   UNL     1       1.007   8.970  20.486  0.00  0.00    +0.000 A 
ATOM     17  C   UNL     1       0.831  10.004  19.554  0.00  0.00    +0.000 A 
ATOM     18  C   UNL     1       1.389   9.872  18.278  0.00  0.00    +0.000 A 
ATOM     19  C   UNL     1       2.089   8.714  17.927  0.00  0.00    +0.000 A 
BRANCH  14  20
ATOM     20  S   UNL     1       3.160   6.245  18.420  0.00  0.00    +0.000 S 
ATOM     21  O   UNL     1       4.374   6.628  17.741  0.00  0.00    +0.000 OA
ATOM     22  O   UNL     1       2.245   5.260  17.885  0.00  0.00    +0.000 OA
BRANCH  20  23
ATOM     23  N   UNL     1       3.625   5.666  19.924  0.00  0.00    +0.000 NA
ATOM     24  H   UNL     1       2.907   5.039  20.283  0.00  0.00    +0.000 HD
ATOM     25  H   UNL     1       3.852   6.442  20.553  0.00  0.00    +0.000 HD
ENDBRANCH  20  23
ENDBRANCH  14  20
ENDBRANCH   1  17
BRANCH   5  26
ATOM     26  C   UNL     1      -2.980  12.748  21.029  0.00  0.00    +0.000 C 
ATOM     27  O   UNL     1      -3.122  12.407  22.200  0.00  0.00    +0.000 OA
ATOM     28  N   UNL     1      -4.035  13.177  20.253  0.00  0.00    +0.000 N 
ATOM     29  H   UNL     1      -3.908  13.329  19.259  0.00  0.00    +0.000 HD
BRANCH  28  30
ATOM     30  C   UNL     1      -5.380  13.275  20.792  0.00  0.00    +0.000 C 
BRANCH  30  31
ATOM     31  C   UNL     1      -6.463  13.018  19.744  0.00  0.00    +0.000 C 
BRANCH  31  32
ATOM     32  C   UNL     1      -7.376  11.837  20.052  0.00  0.00    +0.000 C 
BRANCH  32  33
ATOM     33  O   UNL     1      -6.881  11.084  21.147  0.00  0.00    +0.000 OA
ATOM     34  H   UNL     1      -7.459  10.294  21.231  0.00  0.00    +0.000 HD
ENDBRANCH  32  33
ENDBRANCH  31  32
ENDBRANCH  30  31
ENDBRANCH  28  30
ENDBRANCH   5  26
TORSDOF 9
ENDMDL
MODEL 5
REMARK VINA RESULT:      -6.6      1.706      2.650
REMARK  Name = 
REMARK  9 active torsions:
REMARK  status: ('A' for Active; 'I' for Inactive)
REMARK    1  A    between atoms: N_1  and  S_2
REMARK    2  A    between atoms: S_2  and  C_5
REMARK    3  A    between atoms: C_8  and  N_9
REMARK    4  A    between atoms: C_13  and  C_14
REMARK    5  A    between atoms: N_16  and  C_17
REMARK    6  A    between atoms: C_17  and  C_18
REMARK    7  A    between atoms: C_18  and  C_19
REMARK    8  A    between atoms: C_19  and  O_20
REMARK    9  A    between atoms: C_21  and  C_22
REMARK                            x       y       z     vdW  Elec       q    Type
REMARK                         _______ _______ _______ _____ _____    ______ ____
ROOT
ATOM      1  N   UNL     1       0.144  11.139  19.946  0.00  0.00    +0.000 N 
ATOM      2  C   UNL     1       0.705  12.146  20.736  0.00  0.00    +0.000 C 
ATOM      3  O   UNL     1       1.877  12.308  21.041  0.00  0.00    +0.000 OA
ATOM      4  C   UNL     1      -0.410  13.002  21.277  0.00  0.00    +0.000 C 
ATOM      5  C   UNL     1      -1.605  12.642  20.408  0.00  0.00    +0.000 C 
ATOM      6  C   UNL     1      -1.302  11.210  19.948  0.00  0.00    +0.000 C 
ENDROOT
BRANCH   6   7
ATOM      7  C   UNL     1      -1.928  10.942  18.583  0.00  0.00    +0.000 A 
ATOM      8  C   UNL     1      -2.534   9.710  18.277  0.00  0.00    +0.000 A 
ATOM      9  C   UNL     1      -2.991   9.442  16.984  0.00  0.00    +0.000 A 
ATOM     10  C   UNL     1      -2.868  10.413  15.993  0.00  0.00    +0.000 A 
ATOM     11 CL   UNL     1      -3.388  10.067  14.390  0.00  0.00    +0.000 Cl
ATOM     12  C   UNL     1      -2.311  11.654  16.289  0.00  0.00    +0.000 A 
ATOM     13  C   UNL     1      -1.840  11.917  17.576  0.00  0.00    +0.000 A 
ENDBRANCH   6   7
BRANCH   1  17
ATOM     14  C   UNL     1       2.276   7.676  18.838  0.00  0.00    +0.000 A 
ATOM     15  C   UNL     1       1.797   7.795  20.141  0.00  0.00    +0.000 A 
ATOM     16  C   UNL     1       1.071   8.935  20.502  0.00  0.00    +0.000 A 
ATOM     17  C   UNL     1       0.867   9.976  19.584  0.00  0.00    +0.000 A 
ATOM     18  C   UNL     1       1.388   9.854  18.291  0.00  0.00    +0.000 A 
ATOM     19  C   UNL     1       2.079   8.700  17.911  0.00  0.00    +0.000 A 
BRANCH  14  20
ATOM     20  S   UNL     1       3.167   6.230  18.352  0.00  0.00    +0.000 S 
ATOM     21  O   UNL     1       4.329   6.617  17.589  0.00  0.00    +0.000 OA
ATOM     22  O   UNL     1       2.233   5.225  17.893  0.00  0.00    +0.000 OA
BRANCH  20  23
ATOM     23  N   UNL     1       3.738   5.679  19.830  0.00  0.00    +0.000 NA
ATOM     24  H   UNL     1       4.289   4.835  19.688  0.00  0.00    +0.000 HD
ATOM     25  H   UNL     1       2.965   5.565  20.493  0.00  0.00    +0.000 HD
ENDBRANCH  20  23
ENDBRANCH  14  20
ENDBRANCH   1  17
BRANCH   5  26
ATOM     26  C   UNL     1      -2.912  12.704  21.166  0.00  0.00    +0.000 C 
ATOM     27  O   UNL     1      -4.002  12.868  20.624  0.00  0.00    +0.000 OA
ATOM     28  N   UNL     1      -2.776  12.615  22.534  0.00  0.00    +0.000 N 
ATOM     29  H   UNL     1      -1.854  12.606  22.954  0.00  0.00    +0.000 HD
BRANCH  28  30
ATOM     30  C   UNL     1      -3.927  12.685  23.416  0.00  0.00    +0.000 C 
BRANCH  30  31
ATOM     31  C   UNL     1      -3.719  13.637  24.593  0.00  0.00    +0.000 C 
BRANCH  31  32
ATOM     32  C   UNL     1      -3.615  15.109  24.209  0.00  0.00    +0.000 C 
BRANCH  32  33
ATOM     33  O   UNL     1      -4.429  15.912  25.049  0.00  0.00    +0.000 OA
ATOM     34  H   UNL     1      -4.549  15.413  25.887  0.00  0.00    +0.000 HD
ENDBRANCH  32  33
ENDBRANCH  31  32
ENDBRANCH  30  31
ENDBRANCH  28  30
ENDBRANCH   5  26
TORSDOF 9
ENDMDL
MODEL 6
REMARK VINA RESULT:      -6.6      1.498      2.106
REMARK  Name = 
REMARK  9 active torsions:
REMARK  status: ('A' for Active; 'I' for Inactive)
REMARK    1  A    between atoms: N_1  and  S_2
REMARK    2  A    between atoms: S_2  and  C_5
REMARK    3  A    between atoms: C_8  and  N_9
REMARK    4  A    between atoms: C_13  and  C_14
REMARK    5  A    between atoms: N_16  and  C_17
REMARK    6  A    between atoms: C_17  and  C_18
REMARK    7  A    between atoms: C_18  and  C_19
REMARK    8  A    between atoms: C_19  and  O_20
REMARK    9  A    between atoms: C_21  and  C_22
REMARK                            x       y       z     vdW  Elec       q    Type
REMARK                         _______ _______ _______ _____ _____    ______ ____
ROOT
ATOM      1  N   UNL     1       0.169  11.109  19.834  0.00  0.00    +0.000 N 
ATOM      2  C   UNL     1       0.704  12.132  20.621  0.00  0.00    +0.000 C 
ATOM      3  O   UNL     1       1.867  12.302  20.957  0.00  0.00    +0.000 OA
ATOM      4  C   UNL     1      -0.428  12.995  21.114  0.00  0.00    +0.000 C 
ATOM      5  C   UNL     1      -1.596  12.616  20.217  0.00  0.00    +0.000 C 
ATOM      6  C   UNL     1      -1.277  11.176  19.793  0.00  0.00    +0.000 C 
ENDROOT
BRANCH   6   7
ATOM      7  C   UNL     1      -1.862  10.881  18.416  0.00  0.00    +0.000 A 
ATOM      8  C   UNL     1      -1.834  11.834  17.381  0.00  0.00    +0.000 A 
ATOM      9  C   UNL     1      -2.482  11.589  16.168  0.00  0.00    +0.000 A 
ATOM     10  C   UNL     1      -3.143  10.379  15.970  0.00  0.00    +0.000 A 
ATOM     11 CL   UNL     1      -3.980  10.095  14.494  0.00  0.00    +0.000 Cl
ATOM     12  C   UNL     1      -3.143   9.407  16.966  0.00  0.00    +0.000 A 
ATOM     13  C   UNL     1      -2.509   9.657  18.184  0.00  0.00    +0.000 A 
ENDBRANCH   6   7
BRANCH   1  17
ATOM     14  C   UNL     1       2.339   7.631  18.855  0.00  0.00    +0.000 A 
ATOM     15  C   UNL     1       1.827   7.776  20.143  0.00  0.00    +0.000 A 
ATOM     16  C   UNL     1       1.089   8.921  20.461  0.00  0.00    +0.000 A 
ATOM     17  C   UNL     1       0.904   9.941  19.516  0.00  0.00    +0.000 A 
ATOM     18  C   UNL     1       1.458   9.794  18.240  0.00  0.00    +0.000 A 
ATOM     19  C   UNL     1       2.161   8.635  17.901  0.00  0.00    +0.000 A 
BRANCH  14  20
ATOM     20  S   UNL     1       3.247   6.178  18.423  0.00  0.00    +0.000 S 
ATOM     21  O   UNL     1       4.480   6.559  17.778  0.00  0.00    +0.000 OA
ATOM     22  O   UNL     1       2.342   5.200  17.859  0.00  0.00    +0.000 OA
BRANCH  20  23
ATOM     23  N   UNL     1       3.669   5.588  19.935  0.00  0.00    +0.000 NA
ATOM     24  H   UNL     1       4.653   5.784  20.113  0.00  0.00    +0.000 HD
ATOM     25  H   UNL     1       3.421   4.598  20.017  0.00  0.00    +0.000 HD
ENDBRANCH  20  23
ENDBRANCH  14  20
ENDBRANCH   1  17
BRANCH   5  26
ATOM     26  C   UNL     1      -2.925  12.688  20.935  0.00  0.00    +0.000 C 
ATOM     27  O   UNL     1      -3.995  12.873  20.362  0.00  0.00    +0.000 OA
ATOM     28  N   UNL     1      -2.832  12.584  22.306  0.00  0.00    +0.000 N 
ATOM     29  H   UNL     1      -1.924  12.559  22.754  0.00  0.00    +0.000 HD
BRANCH  28  30
ATOM     30  C   UNL     1      -4.009  12.662  23.153  0.00  0.00    +0.000 C 
BRANCH  30  31
ATOM     31  C   UNL     1      -3.936  13.798  24.172  0.00  0.00    +0.000 C 
BRANCH  31  32
ATOM     32  C   UNL     1      -4.156  15.190  23.590  0.00  0.00    +0.000 C 
BRANCH  32  33
ATOM     33  O   UNL     1      -4.815  15.117  22.335  0.00  0.00    +0.000 OA
ATOM     34  H   UNL     1      -4.128  15.262  21.647  0.00  0.00    +0.000 HD
ENDBRANCH  32  33
ENDBRANCH  31  32
ENDBRANCH  30  31
ENDBRANCH  28  30
ENDBRANCH   5  26
TORSDOF 9
ENDMDL
MODEL 7
REMARK VINA RESULT:      -6.5      0.972      1.417
REMARK  Name = 
REMARK  9 active torsions:
REMARK  status: ('A' for Active; 'I' for Inactive)
REMARK    1  A    between atoms: N_1  and  S_2
REMARK    2  A    between atoms: S_2  and  C_5
REMARK    3  A    between atoms: C_8  and  N_9
REMARK    4  A    between atoms: C_13  and  C_14
REMARK    5  A    between atoms: N_16  and  C_17
REMARK    6  A    between atoms: C_17  and  C_18
REMARK    7  A    between atoms: C_18  and  C_19
REMARK    8  A    between atoms: C_19  and  O_20
REMARK    9  A    between atoms: C_21  and  C_22
REMARK                            x       y       z     vdW  Elec       q    Type
REMARK                         _______ _______ _______ _____ _____    ______ ____
ROOT
ATOM      1  N   UNL     1       0.078  11.093  19.901  0.00  0.00    +0.000 N 
ATOM      2  C   UNL     1       0.599  12.118  20.694  0.00  0.00    +0.000 C 
ATOM      3  O   UNL     1       1.752  12.278  21.068  0.00  0.00    +0.000 OA
ATOM      4  C   UNL     1      -0.537  13.003  21.136  0.00  0.00    +0.000 C 
ATOM      5  C   UNL     1      -1.679  12.628  20.203  0.00  0.00    +0.000 C 
ATOM      6  C   UNL     1      -1.365  11.179  19.807  0.00  0.00    +0.000 C 
ENDROOT
BRANCH   6   7
ATOM      7  C   UNL     1      -1.905  10.875  18.415  0.00  0.00    +0.000 A 
ATOM      8  C   UNL     1      -1.848  11.822  17.376  0.00  0.00    +0.000 A 
ATOM      9  C   UNL     1      -2.456  11.568  16.145  0.00  0.00    +0.000 A 
ATOM     10  C   UNL     1      -3.108  10.355  15.933  0.00  0.00    +0.000 A 
ATOM     11 CL   UNL     1      -3.897  10.061  14.433  0.00  0.00    +0.000 Cl
ATOM     12  C   UNL     1      -3.136   9.388  16.934  0.00  0.00    +0.000 A 
ATOM     13  C   UNL     1      -2.541   9.647  18.170  0.00  0.00    +0.000 A 
ENDBRANCH   6   7
BRANCH   1  17
ATOM     14  C   UNL     1       2.266   7.580  19.104  0.00  0.00    +0.000 A 
ATOM     15  C   UNL     1       2.082   8.515  18.087  0.00  0.00    +0.000 A 
ATOM     16  C   UNL     1       1.374   9.690  18.357  0.00  0.00    +0.000 A 
ATOM     17  C   UNL     1       0.807   9.911  19.622  0.00  0.00    +0.000 A 
ATOM     18  C   UNL     1       0.970   8.943  20.619  0.00  0.00    +0.000 A 
ATOM     19  C   UNL     1       1.711   7.785  20.368  0.00  0.00    +0.000 A 
BRANCH  14  20
ATOM     20  S   UNL     1       3.184   6.103  18.792  0.00  0.00    +0.000 S 
ATOM     21  O   UNL     1       3.410   5.408  20.036  0.00  0.00    +0.000 OA
ATOM     22  O   UNL     1       4.249   6.392  17.856  0.00  0.00    +0.000 OA
BRANCH  20  23
ATOM     23  N   UNL     1       2.064   5.190  17.940  0.00  0.00    +0.000 NA
ATOM     24  H   UNL     1       1.716   4.439  18.534  0.00  0.00    +0.000 HD
ATOM     25  H   UNL     1       2.464   4.867  17.053  0.00  0.00    +0.000 HD
ENDBRANCH  20  23
ENDBRANCH  14  20
ENDBRANCH   1  17
BRANCH   5  26
ATOM     26  C   UNL     1      -3.031  12.727  20.873  0.00  0.00    +0.000 C 
ATOM     27  O   UNL     1      -3.247  12.350  22.022  0.00  0.00    +0.000 OA
ATOM     28  N   UNL     1      -4.026  13.229  20.063  0.00  0.00    +0.000 N 
ATOM     29  H   UNL     1      -3.842  13.412  19.084  0.00  0.00    +0.000 HD
BRANCH  28  30
ATOM     30  C   UNL     1      -5.392  13.365  20.537  0.00  0.00    +0.000 C 
BRANCH  30  31
ATOM     31  C   UNL     1      -6.250  12.136  20.244  0.00  0.00    +0.000 C 
BRANCH  31  32
ATOM     32  C   UNL     1      -7.564  12.079  21.015  0.00  0.00    +0.000 C 
BRANCH  32  33
ATOM     33  O   UNL     1      -7.410  11.362  22.230  0.00  0.00    +0.000 OA
ATOM     34  H   UNL     1      -7.347  10.411  21.989  0.00  0.00    +0.000 HD
ENDBRANCH  32  33
ENDBRANCH  31  32
ENDBRANCH  30  31
ENDBRANCH  28  30
ENDBRANCH   5  26
TORSDOF 9
ENDMDL
MODEL 8
REMARK VINA RESULT:      -6.5      1.032      1.793
REMARK  Name = 
REMARK  9 active torsions:
REMARK  status: ('A' for Active; 'I' for Inactive)
REMARK    1  A    between atoms: N_1  and  S_2
REMARK    2  A    between atoms: S_2  and  C_5
REMARK    3  A    between atoms: C_8  and  N_9
REMARK    4  A    between atoms: C_13  and  C_14
REMARK    5  A    between atoms: N_16  and  C_17
REMARK    6  A    between atoms: C_17  and  C_18
REMARK    7  A    between atoms: C_18  and  C_19
REMARK    8  A    between atoms: C_19  and  O_20
REMARK    9  A    between atoms: C_21  and  C_22
REMARK                            x       y       z     vdW  Elec       q    Type
REMARK                         _______ _______ _______ _____ _____    ______ ____
ROOT
ATOM      1  N   UNL     1       0.124  11.104  19.939  0.00  0.00    +0.000 N 
ATOM      2  C   UNL     1       0.675  12.100  20.750  0.00  0.00    +0.000 C 
ATOM      3  O   UNL     1       1.845  12.267  21.058  0.00  0.00    +0.000 OA
ATOM      4  C   UNL     1      -0.449  12.934  21.309  0.00  0.00    +0.000 C 
ATOM      5  C   UNL     1      -1.641  12.579  20.433  0.00  0.00    +0.000 C 
ATOM      6  C   UNL     1      -1.324  11.160  19.943  0.00  0.00    +0.000 C 
ENDROOT
BRANCH   6   7
ATOM      7  C   UNL     1      -1.946  10.914  18.573  0.00  0.00    +0.000 A 
ATOM      8  C   UNL     1      -2.573   9.695  18.254  0.00  0.00    +0.000 A 
ATOM      9  C   UNL     1      -3.028   9.446  16.958  0.00  0.00    +0.000 A 
ATOM     10  C   UNL     1      -2.883  10.421  15.974  0.00  0.00    +0.000 A 
ATOM     11 CL   UNL     1      -3.401  10.097  14.366  0.00  0.00    +0.000 Cl
ATOM     12  C   UNL     1      -2.306  11.650  16.283  0.00  0.00    +0.000 A 
ATOM     13  C   UNL     1      -1.837  11.895  17.575  0.00  0.00    +0.000 A 
ENDBRANCH   6   7
BRANCH   1  17
ATOM     14  C   UNL     1       2.326   7.688  18.823  0.00  0.00    +0.000 A 
ATOM     15  C   UNL     1       2.097   8.690  17.882  0.00  0.00    +0.000 A 
ATOM     16  C   UNL     1       1.385   9.833  18.259  0.00  0.00    +0.000 A 
ATOM     17  C   UNL     1       0.858   9.955  19.554  0.00  0.00    +0.000 A 
ATOM     18  C   UNL     1       1.066   8.922  20.473  0.00  0.00    +0.000 A 
ATOM     19  C   UNL     1       1.812   7.795  20.116  0.00  0.00    +0.000 A 
BRANCH  14  20
ATOM     20  S   UNL     1       3.251   6.251  18.376  0.00  0.00    +0.000 S 
ATOM     21  O   UNL     1       4.464   6.652  17.706  0.00  0.00    +0.000 OA
ATOM     22  O   UNL     1       2.353   5.255  17.833  0.00  0.00    +0.000 OA
BRANCH  20  23
ATOM     23  N   UNL     1       3.715   5.673  19.882  0.00  0.00    +0.000 NA
ATOM     24  H   UNL     1       4.232   6.397  20.378  0.00  0.00    +0.000 HD
ATOM     25  H   UNL     1       4.224   4.789  19.786  0.00  0.00    +0.000 HD
ENDBRANCH  20  23
ENDBRANCH  14  20
ENDBRANCH   1  17
BRANCH   5  26
ATOM     26  C   UNL     1      -2.948  12.612  21.192  0.00  0.00    +0.000 C 
ATOM     27  O   UNL     1      -3.044  12.348  22.387  0.00  0.00    +0.000 OA
ATOM     28  N   UNL     1      -4.045  12.911  20.413  0.00  0.00    +0.000 N 
ATOM     29  H   UNL     1      -3.947  13.000  19.409  0.00  0.00    +0.000 HD
BRANCH  28  30
ATOM     30  C   UNL     1      -5.383  12.956  20.976  0.00  0.00    +0.000 C 
BRANCH  30  31
ATOM     31  C   UNL     1      -5.806  14.363  21.396  0.00  0.00    +0.000 C 
BRANCH  31  32
ATOM     32  C   UNL     1      -6.413  15.205  20.280  0.00  0.00    +0.000 C 
BRANCH  32  33
ATOM     33  O   UNL     1      -5.798  14.915  19.034  0.00  0.00    +0.000 OA
ATOM     34  H   UNL     1      -4.829  15.003  19.170  0.00  0.00    +0.000 HD
ENDBRANCH  32  33
ENDBRANCH  31  32
ENDBRANCH  30  31
ENDBRANCH  28  30
ENDBRANCH   5  26
TORSDOF 9
ENDMDL
MODEL 9
REMARK VINA RESULT:      -6.5      1.646      2.610
REMARK  Name = 
REMARK  9 active torsions:
REMARK  status: ('A' for Active; 'I' for Inactive)
REMARK    1  A    between atoms: N_1  and  S_2
REMARK    2  A    between atoms: S_2  and  C_5
REMARK    3  A    between atoms: C_8  and  N_9
REMARK    4  A    between atoms: C_13  and  C_14
REMARK    5  A    between atoms: N_16  and  C_17
REMARK    6  A    between atoms: C_17  and  C_18
REMARK    7  A    between atoms: C_18  and  C_19
REMARK    8  A    between atoms: C_19  and  O_20
REMARK    9  A    between atoms: C_21  and  C_22
REMARK                            x       y       z     vdW  Elec       q    Type
REMARK                         _______ _______ _______ _____ _____    ______ ____
ROOT
ATOM      1  N   UNL     1       0.154  11.076  19.802  0.00  0.00    +0.000 N 
ATOM      2  C   UNL     1       0.682  12.086  20.608  0.00  0.00    +0.000 C 
ATOM      3  O   UNL     1       1.843  12.258  20.948  0.00  0.00    +0.000 OA
ATOM      4  C   UNL     1      -0.456  12.934  21.116  0.00  0.00    +0.000 C 
ATOM      5  C   UNL     1      -1.622  12.564  20.211  0.00  0.00    +0.000 C 
ATOM      6  C   UNL     1      -1.293  11.134  19.760  0.00  0.00    +0.000 C 
ENDROOT
BRANCH   6   7
ATOM      7  C   UNL     1      -1.875  10.862  18.378  0.00  0.00    +0.000 A 
ATOM      8  C   UNL     1      -1.839  11.829  17.357  0.00  0.00    +0.000 A 
ATOM      9  C   UNL     1      -2.484  11.604  16.138  0.00  0.00    +0.000 A 
ATOM     10  C   UNL     1      -3.151  10.401  15.922  0.00  0.00    +0.000 A 
ATOM     11 CL   UNL     1      -3.985  10.142  14.439  0.00  0.00    +0.000 Cl
ATOM     12  C   UNL     1      -3.160   9.414  16.904  0.00  0.00    +0.000 A 
ATOM     13  C   UNL     1      -2.527   9.644  18.127  0.00  0.00    +0.000 A 
ENDBRANCH   6   7
BRANCH   1  17
ATOM     14  C   UNL     1       2.381   7.633  18.822  0.00  0.00    +0.000 A 
ATOM     15  C   UNL     1       2.181   8.616  17.854  0.00  0.00    +0.000 A 
ATOM     16  C   UNL     1       1.460   9.767  18.185  0.00  0.00    +0.000 A 
ATOM     17  C   UNL     1       0.896   9.918  19.462  0.00  0.00    +0.000 A 
ATOM     18  C   UNL     1       1.076   8.904  20.408  0.00  0.00    +0.000 A 
ATOM     19  C   UNL     1       1.829   7.769  20.097  0.00  0.00    +0.000 A 
BRANCH  14  20
ATOM     20  S   UNL     1       3.315   6.186  18.433  0.00  0.00    +0.000 S 
ATOM     21  O   UNL     1       4.566   6.573  17.826  0.00  0.00    +0.000 OA
ATOM     22  O   UNL     1       2.439   5.195  17.848  0.00  0.00    +0.000 OA
BRANCH  20  23
ATOM     23  N   UNL     1       3.693   5.613  19.964  0.00  0.00    +0.000 NA
ATOM     24  H   UNL     1       4.702   5.648  20.100  0.00  0.00    +0.000 HD
ATOM     25  H   UNL     1       3.286   4.684  20.110  0.00  0.00    +0.000 HD
ENDBRANCH  20  23
ENDBRANCH  14  20
ENDBRANCH   1  17
BRANCH   5  26
ATOM     26  C   UNL     1      -2.951  12.614  20.930  0.00  0.00    +0.000 C 
ATOM     27  O   UNL     1      -4.028  12.737  20.353  0.00  0.00    +0.000 OA
ATOM     28  N   UNL     1      -2.853  12.566  22.303  0.00  0.00    +0.000 N 
ATOM     29  H   UNL     1      -1.944  12.591  22.749  0.00  0.00    +0.000 HD
BRANCH  28  30
ATOM     30  C   UNL     1      -4.031  12.633  23.150  0.00  0.00    +0.000 C 
BRANCH  30  31
ATOM     31  C   UNL     1      -3.824  13.498  24.393  0.00  0.00    +0.000 C 
BRANCH  31  32
ATOM     32  C   UNL     1      -3.609  14.980  24.107  0.00  0.00    +0.000 C 
BRANCH  32  33
ATOM     33  O   UNL     1      -4.031  15.775  25.204  0.00  0.00    +0.000 OA
ATOM     34  H   UNL     1      -3.558  16.633  25.129  0.00  0.00    +0.000 HD
ENDBRANCH  32  33
ENDBRANCH  31  32
ENDBRANCH  30  31
ENDBRANCH  28  30
ENDBRANCH   5  26
TORSDOF 9
ENDMDL
