MODEL 1
REMARK VINA RESULT:      -7.3      0.000      0.000
REMARK  Name = 
REMARK  7 active torsions:
REMARK  status: ('A' for Active; 'I' for Inactive)
REMARK    1  A    between atoms: C_1  and  C_2
REMARK    2  A    between atoms: C_7  and  O_8
REMARK    3  A    between atoms: O_8  and  C_9
REMARK    4  A    between atoms: C_13  and  C_14
REMARK    5  A    between atoms: N_18  and  C_19
REMARK    6  A    between atoms: C_19  and  C_20
REMARK    7  A    between atoms: N_24  and  C_25
REMARK                            x       y       z     vdW  Elec       q    Type
REMARK                         _______ _______ _______ _____ _____    ______ ____
ROOT
ATOM      1  C   UNL     1       1.933   8.393  18.931  0.00  0.00    +0.000 A 
ATOM      2  C   UNL     1       1.652   8.228  20.279  0.00  0.00    +0.000 A 
ATOM      3  N   UNL     1       1.674   7.011  20.896  0.00  0.00    +0.000 NA
ATOM      4  C   UNL     1       1.975   5.946  20.105  0.00  0.00    +0.000 A 
ATOM      5  C   UNL     1       2.283   6.075  18.754  0.00  0.00    +0.000 A 
ATOM      6  N   UNL     1       2.295   7.318  18.172  0.00  0.00    +0.000 NA
ENDROOT
BRANCH   5   7
ATOM      7  C   UNL     1       2.508   4.831  17.872  0.00  0.00    +0.000 C 
ATOM      8  C   UNL     1       1.976   3.571  18.560  0.00  0.00    +0.000 C 
ATOM      9  C   UNL     1       2.624   2.438  17.810  0.00  0.00    +0.000 C 
ATOM     10  C   UNL     1       3.954   2.999  17.346  0.00  0.00    +0.000 C 
ATOM     11  N   UNL     1       3.922   4.478  17.415  0.00  0.00    +0.000 NA
BRANCH  11  12
ATOM     12  C   UNL     1       4.897   4.982  18.385  0.00  0.00    +0.000 C 
BRANCH  12  13
ATOM     13  C   UNL     1       6.019   5.908  18.039  0.00  0.00    +0.000 A 
ATOM     14  C   UNL     1       5.986   6.746  16.935  0.00  0.00    +0.000 A 
ATOM     15  N   UNL     1       7.056   7.582  16.903  0.00  0.00    +0.000 NA
ATOM     16  C   UNL     1       7.774   7.254  17.943  0.00  0.00    +0.000 A 
ATOM     17  N   UNL     1       7.238   6.187  18.615  0.00  0.00    +0.000 N 
ATOM     18  C   UNL     1       7.954   5.518  19.670  0.00  0.00    +0.000 C 
ENDBRANCH  12  13
ENDBRANCH  11  12
ENDBRANCH   5   7
BRANCH   1  19
ATOM     19  O   UNL     1       1.769   9.679  18.364  0.00  0.00    +0.000 OA
BRANCH  19  26
ATOM     20  C   UNL     1       1.212  11.972  20.264  0.00  0.00    +0.000 C 
ATOM     21  C   UNL     1       0.279  11.429  19.220  0.00  0.00    +0.000 A 
ATOM     22  N   UNL     1      -0.915  12.098  19.179  0.00  0.00    +0.000 NA
ATOM     23  C   UNL     1      -1.901  11.621  18.397  0.00  0.00    +0.000 A 
ATOM     24  C   UNL     1      -1.787  10.451  17.693  0.00  0.00    +0.000 A 
ATOM     25  C   UNL     1      -0.583   9.765  17.778  0.00  0.00    +0.000 A 
ATOM     26  C   UNL     1       0.519  10.293  18.441  0.00  0.00    +0.000 A 
ENDBRANCH  19  26
ENDBRANCH   1  19
TORSDOF 5
ENDMDL
MODEL 2
REMARK VINA RESULT:      -7.1      3.181      7.306
REMARK  Name = 
REMARK  7 active torsions:
REMARK  status: ('A' for Active; 'I' for Inactive)
REMARK    1  A    between atoms: C_1  and  C_2
REMARK    2  A    between atoms: C_7  and  O_8
REMARK    3  A    between atoms: O_8  and  C_9
REMARK    4  A    between atoms: C_13  and  C_14
REMARK    5  A    between atoms: N_18  and  C_19
REMARK    6  A    between atoms: C_19  and  C_20
REMARK    7  A    between atoms: N_24  and  C_25
REMARK                            x       y       z     vdW  Elec       q    Type
REMARK                         _______ _______ _______ _____ _____    ______ ____
ROOT
ATOM      1  C   UNL     1       6.387   5.061  16.356  0.00  0.00    +0.000 A 
ATOM      2  C   UNL     1       7.449   5.025  17.249  0.00  0.00    +0.000 A 
ATOM      3  N   UNL     1       7.327   4.557  18.525  0.00  0.00    +0.000 NA
ATOM      4  C   UNL     1       6.086   4.134  18.890  0.00  0.00    +0.000 A 
ATOM      5  C   UNL     1       5.004   4.134  18.016  0.00  0.00    +0.000 A 
ATOM      6  N   UNL     1       5.168   4.571  16.725  0.00  0.00    +0.000 NA
ENDROOT
BRANCH   5   7
ATOM      7  C   UNL     1       3.592   3.753  18.505  0.00  0.00    +0.000 C 
ATOM      8  C   UNL     1       2.574   3.856  17.366  0.00  0.00    +0.000 C 
ATOM      9  C   UNL     1       1.239   3.874  18.062  0.00  0.00    +0.000 C 
ATOM     10  C   UNL     1       1.515   4.537  19.397  0.00  0.00    +0.000 C 
ATOM     11  N   UNL     1       2.970   4.513  19.675  0.00  0.00    +0.000 NA
BRANCH  11  12
ATOM     12  C   UNL     1       3.519   5.870  19.733  0.00  0.00    +0.000 C 
BRANCH  12  13
ATOM     13  C   UNL     1       2.864   7.063  19.116  0.00  0.00    +0.000 A 
ATOM     14  C   UNL     1       3.143   7.489  17.826  0.00  0.00    +0.000 A 
ATOM     15  N   UNL     1       2.332   8.510  17.445  0.00  0.00    +0.000 NA
ATOM     16  C   UNL     1       1.582   8.755  18.486  0.00  0.00    +0.000 A 
ATOM     17  N   UNL     1       1.923   7.969  19.554  0.00  0.00    +0.000 N 
ATOM     18  C   UNL     1       1.378   8.195  20.867  0.00  0.00    +0.000 C 
ENDBRANCH  12  13
ENDBRANCH  11  12
ENDBRANCH   5   7
BRANCH   1  19
ATOM     19  O   UNL     1       6.590   5.672  15.097  0.00  0.00    +0.000 OA
BRANCH  19  26
ATOM     20  C   UNL     1       8.568   5.905  12.814  0.00  0.00    +0.000 C 
ATOM     21  C   UNL     1       7.464   4.896  12.940  0.00  0.00    +0.000 A 
ATOM     22  N   UNL     1       7.421   4.025  11.885  0.00  0.00    +0.000 NA
ATOM     23  C   UNL     1       6.388   3.165  11.792  0.00  0.00    +0.000 A 
ATOM     24  C   UNL     1       5.338   3.173  12.671  0.00  0.00    +0.000 A 
ATOM     25  C   UNL     1       5.379   4.091  13.713  0.00  0.00    +0.000 A 
ATOM     26  C   UNL     1       6.493   4.889  13.946  0.00  0.00    +0.000 A 
ENDBRANCH  19  26
ENDBRANCH   1  19
TORSDOF 5
ENDMDL
MODEL 3
REMARK VINA RESULT:      -7.0      0.559      1.422
REMARK  Name = 
REMARK  7 active torsions:
REMARK  status: ('A' for Active; 'I' for Inactive)
REMARK    1  A    between atoms: C_1  and  C_2
REMARK    2  A    between atoms: C_7  and  O_8
REMARK    3  A    between atoms: O_8  and  C_9
REMARK    4  A    between atoms: C_13  and  C_14
REMARK    5  A    between atoms: N_18  and  C_19
REMARK    6  A    between atoms: C_19  and  C_20
REMARK    7  A    between atoms: N_24  and  C_25
REMARK                            x       y       z     vdW  Elec       q    Type
REMARK                         _______ _______ _______ _____ _____    ______ ____
ROOT
ATOM      1  C   UNL     1       1.854   8.521  18.770  0.00  0.00    +0.000 A 
ATOM      2  C   UNL     1       1.626   8.409  20.134  0.00  0.00    +0.000 A 
ATOM      3  N   UNL     1       1.704   7.222  20.802  0.00  0.00    +0.000 NA
ATOM      4  C   UNL     1       2.005   6.131  20.048  0.00  0.00    +0.000 A 
ATOM      5  C   UNL     1       2.261   6.207  18.683  0.00  0.00    +0.000 A 
ATOM      6  N   UNL     1       2.217   7.423  18.046  0.00  0.00    +0.000 NA
ENDROOT
BRANCH   5   7
ATOM      7  C   UNL     1       2.487   4.931  17.847  0.00  0.00    +0.000 C 
ATOM      8  C   UNL     1       1.928   3.702  18.568  0.00  0.00    +0.000 C 
ATOM      9  C   UNL     1       2.576   2.536  17.870  0.00  0.00    +0.000 C 
ATOM     10  C   UNL     1       3.921   3.066  17.413  0.00  0.00    +0.000 C 
ATOM     11  N   UNL     1       3.906   4.547  17.431  0.00  0.00    +0.000 NA
BRANCH  11  12
ATOM     12  C   UNL     1       4.868   5.073  18.402  0.00  0.00    +0.000 C 
BRANCH  12  13
ATOM     13  C   UNL     1       6.011   5.969  18.045  0.00  0.00    +0.000 A 
ATOM     14  C   UNL     1       5.990   6.806  16.940  0.00  0.00    +0.000 A 
ATOM     15  N   UNL     1       7.082   7.613  16.898  0.00  0.00    +0.000 NA
ATOM     16  C   UNL     1       7.801   7.266  17.931  0.00  0.00    +0.000 A 
ATOM     17  N   UNL     1       7.243   6.215  18.609  0.00  0.00    +0.000 N 
ATOM     18  C   UNL     1       7.949   5.527  19.658  0.00  0.00    +0.000 C 
ENDBRANCH  12  13
ENDBRANCH  11  12
ENDBRANCH   5   7
BRANCH   1  19
ATOM     19  O   UNL     1       1.634   9.775  18.154  0.00  0.00    +0.000 OA
BRANCH  19  26
ATOM     20  C   UNL     1      -1.321   9.878  17.494  0.00  0.00    +0.000 C 
ATOM     21  C   UNL     1      -0.616  10.661  18.563  0.00  0.00    +0.000 A 
ATOM     22  N   UNL     1      -1.465  11.468  19.273  0.00  0.00    +0.000 NA
ATOM     23  C   UNL     1      -0.945  12.339  20.159  0.00  0.00    +0.000 A 
ATOM     24  C   UNL     1       0.404  12.504  20.331  0.00  0.00    +0.000 A 
ATOM     25  C   UNL     1       1.250  11.704  19.573  0.00  0.00    +0.000 A 
ATOM     26  C   UNL     1       0.767  10.682  18.764  0.00  0.00    +0.000 A 
ENDBRANCH  19  26
ENDBRANCH   1  19
TORSDOF 5
ENDMDL
MODEL 4
REMARK VINA RESULT:      -7.0      1.147      1.493
REMARK  Name = 
REMARK  7 active torsions:
REMARK  status: ('A' for Active; 'I' for Inactive)
REMARK    1  A    between atoms: C_1  and  C_2
REMARK    2  A    between atoms: C_7  and  O_8
REMARK    3  A    between atoms: O_8  and  C_9
REMARK    4  A    between atoms: C_13  and  C_14
REMARK    5  A    between atoms: N_18  and  C_19
REMARK    6  A    between atoms: C_19  and  C_20
REMARK    7  A    between atoms: N_24  and  C_25
REMARK                            x       y       z     vdW  Elec       q    Type
REMARK                         _______ _______ _______ _____ _____    ______ ____
ROOT
ATOM      1  C   UNL     1       1.827   8.429  18.957  0.00  0.00    +0.000 A 
ATOM      2  C   UNL     1       1.618   8.418  20.329  0.00  0.00    +0.000 A 
ATOM      3  N   UNL     1       1.561   7.267  21.059  0.00  0.00    +0.000 NA
ATOM      4  C   UNL     1       1.705   6.109  20.361  0.00  0.00    +0.000 A 
ATOM      5  C   UNL     1       1.938   6.081  18.989  0.00  0.00    +0.000 A 
ATOM      6  N   UNL     1       2.033   7.257  18.288  0.00  0.00    +0.000 NA
ENDROOT
BRANCH   5   7
ATOM      7  C   UNL     1       1.983   4.744  18.222  0.00  0.00    +0.000 C 
ATOM      8  C   UNL     1       1.253   3.645  18.999  0.00  0.00    +0.000 C 
ATOM      9  C   UNL     1       1.731   2.365  18.366  0.00  0.00    +0.000 C 
ATOM     10  C   UNL     1       3.139   2.675  17.895  0.00  0.00    +0.000 C 
ATOM     11  N   UNL     1       3.333   4.143  17.838  0.00  0.00    +0.000 NA
BRANCH  11  12
ATOM     12  C   UNL     1       4.358   4.576  18.791  0.00  0.00    +0.000 C 
BRANCH  12  13
ATOM     13  C   UNL     1       5.807   4.720  18.451  0.00  0.00    +0.000 A 
ATOM     14  C   UNL     1       6.736   5.248  19.335  0.00  0.00    +0.000 A 
ATOM     15  N   UNL     1       8.002   5.155  18.853  0.00  0.00    +0.000 NA
ATOM     16  C   UNL     1       7.876   4.619  17.668  0.00  0.00    +0.000 A 
ATOM     17  N   UNL     1       6.562   4.418  17.339  0.00  0.00    +0.000 N 
ATOM     18  C   UNL     1       6.163   4.029  16.012  0.00  0.00    +0.000 C 
ENDBRANCH  12  13
ENDBRANCH  11  12
ENDBRANCH   5   7
BRANCH   1  19
ATOM     19  O   UNL     1       1.752   9.667  18.277  0.00  0.00    +0.000 OA
BRANCH  19  26
ATOM     20  C   UNL     1       1.454  12.251  19.830  0.00  0.00    +0.000 C 
ATOM     21  C   UNL     1       0.434  11.634  18.917  0.00  0.00    +0.000 A 
ATOM     22  N   UNL     1      -0.709  12.381  18.821  0.00  0.00    +0.000 NA
ATOM     23  C   UNL     1      -1.765  11.871  18.158  0.00  0.00    +0.000 A 
ATOM     24  C   UNL     1      -1.769  10.605  17.634  0.00  0.00    +0.000 A 
ATOM     25  C   UNL     1      -0.613   9.848  17.775  0.00  0.00    +0.000 A 
ATOM     26  C   UNL     1       0.555  10.381  18.308  0.00  0.00    +0.000 A 
ENDBRANCH  19  26
ENDBRANCH   1  19
TORSDOF 5
ENDMDL
MODEL 5
REMARK VINA RESULT:      -6.9      2.124      8.415
REMARK  Name = 
REMARK  7 active torsions:
REMARK  status: ('A' for Active; 'I' for Inactive)
REMARK    1  A    between atoms: C_1  and  C_2
REMARK    2  A    between atoms: C_7  and  O_8
REMARK    3  A    between atoms: O_8  and  C_9
REMARK    4  A    between atoms: C_13  and  C_14
REMARK    5  A    between atoms: N_18  and  C_19
REMARK    6  A    between atoms: C_19  and  C_20
REMARK    7  A    between atoms: N_24  and  C_25
REMARK                            x       y       z     vdW  Elec       q    Type
REMARK                         _______ _______ _______ _____ _____    ______ ____
ROOT
ATOM      1  C   UNL     1       2.056   7.644  19.273  0.00  0.00    +0.000 A 
ATOM      2  C   UNL     1       2.370   7.961  17.959  0.00  0.00    +0.000 A 
ATOM      3  N   UNL     1       2.149   9.197  17.424  0.00  0.00    +0.000 NA
ATOM      4  C   UNL     1       1.580  10.113  18.252  0.00  0.00    +0.000 A 
ATOM      5  C   UNL     1       1.272   9.838  19.581  0.00  0.00    +0.000 A 
ATOM      6  N   UNL     1       1.546   8.599  20.103  0.00  0.00    +0.000 NA
ENDROOT
BRANCH   5   7
ATOM      7  C   UNL     1       0.527  10.871  20.450  0.00  0.00    +0.000 C 
ATOM      8  C   UNL     1       0.272  10.317  21.855  0.00  0.00    +0.000 C 
ATOM      9  C   UNL     1      -0.791  11.221  22.422  0.00  0.00    +0.000 C 
ATOM     10  C   UNL     1      -1.597  11.664  21.216  0.00  0.00    +0.000 C 
ATOM     11  N   UNL     1      -0.820  11.418  19.979  0.00  0.00    +0.000 NA
BRANCH  11  12
ATOM     12  C   UNL     1      -1.485  10.432  19.125  0.00  0.00    +0.000 C 
BRANCH  12  13
ATOM     13  C   UNL     1      -2.422  10.785  18.015  0.00  0.00    +0.000 A 
ATOM     14  C   UNL     1      -2.134  10.533  16.682  0.00  0.00    +0.000 A 
ATOM     15  N   UNL     1      -3.188  10.821  15.875  0.00  0.00    +0.000 NA
ATOM     16  C   UNL     1      -4.111  11.286  16.673  0.00  0.00    +0.000 A 
ATOM     17  N   UNL     1      -3.669  11.369  17.967  0.00  0.00    +0.000 N 
ATOM     18  C   UNL     1      -4.432  12.038  18.988  0.00  0.00    +0.000 C 
ENDBRANCH  12  13
ENDBRANCH  11  12
ENDBRANCH   5   7
BRANCH   1  19
ATOM     19  O   UNL     1       2.217   6.303  19.695  0.00  0.00    +0.000 OA
BRANCH  19  26
ATOM     20  C   UNL     1       1.443   4.184  17.673  0.00  0.00    +0.000 C 
ATOM     21  C   UNL     1       2.837   4.610  18.033  0.00  0.00    +0.000 A 
ATOM     22  N   UNL     1       3.795   3.936  17.324  0.00  0.00    +0.000 NA
ATOM     23  C   UNL     1       5.090   4.108  17.654  0.00  0.00    +0.000 A 
ATOM     24  C   UNL     1       5.487   4.875  18.716  0.00  0.00    +0.000 A 
ATOM     25  C   UNL     1       4.499   5.520  19.448  0.00  0.00    +0.000 A 
ATOM     26  C   UNL     1       3.165   5.505  19.056  0.00  0.00    +0.000 A 
ENDBRANCH  19  26
ENDBRANCH   1  19
TORSDOF 5
ENDMDL
MODEL 6
REMARK VINA RESULT:      -6.9      0.864      1.937
REMARK  Name = 
REMARK  7 active torsions:
REMARK  status: ('A' for Active; 'I' for Inactive)
REMARK    1  A    between atoms: C_1  and  C_2
REMARK    2  A    between atoms: C_7  and  O_8
REMARK    3  A    between atoms: O_8  and  C_9
REMARK    4  A    between atoms: C_13  and  C_14
REMARK    5  A    between atoms: N_18  and  C_19
REMARK    6  A    between atoms: C_19  and  C_20
REMARK    7  A    between atoms: N_24  and  C_25
REMARK                            x       y       z     vdW  Elec       q    Type
REMARK                         _______ _______ _______ _____ _____    ______ ____
ROOT
ATOM      1  C   UNL     1       2.021   8.286  18.361  0.00  0.00    +0.000 A 
ATOM      2  C   UNL     1       1.832   8.379  19.733  0.00  0.00    +0.000 A 
ATOM      3  N   UNL     1       1.862   7.293  20.559  0.00  0.00    +0.000 NA
ATOM      4  C   UNL     1       2.075   6.091  19.957  0.00  0.00    +0.000 A 
ATOM      5  C   UNL     1       2.290   5.962  18.589  0.00  0.00    +0.000 A 
ATOM      6  N   UNL     1       2.297   7.078  17.790  0.00  0.00    +0.000 NA
ENDROOT
BRANCH   5   7
ATOM      7  C   UNL     1       2.414   4.571  17.936  0.00  0.00    +0.000 C 
ATOM      8  C   UNL     1       1.615   3.527  18.721  0.00  0.00    +0.000 C 
ATOM      9  C   UNL     1       2.157   2.207  18.239  0.00  0.00    +0.000 C 
ATOM     10  C   UNL     1       3.603   2.494  17.887  0.00  0.00    +0.000 C 
ATOM     11  N   UNL     1       3.798   3.955  17.735  0.00  0.00    +0.000 NA
BRANCH  11  12
ATOM     12  C   UNL     1       4.723   4.472  18.746  0.00  0.00    +0.000 C 
BRANCH  12  13
ATOM     13  C   UNL     1       5.863   5.391  18.445  0.00  0.00    +0.000 A 
ATOM     14  C   UNL     1       6.931   5.570  19.311  0.00  0.00    +0.000 A 
ATOM     15  N   UNL     1       7.901   6.348  18.763  0.00  0.00    +0.000 NA
ATOM     16  C   UNL     1       7.439   6.690  17.590  0.00  0.00    +0.000 A 
ATOM     17  N   UNL     1       6.172   6.212  17.383  0.00  0.00    +0.000 N 
ATOM     18  C   UNL     1       5.380   6.626  16.255  0.00  0.00    +0.000 C 
ENDBRANCH  12  13
ENDBRANCH  11  12
ENDBRANCH   5   7
BRANCH   1  19
ATOM     19  O   UNL     1       1.855   9.454  17.581  0.00  0.00    +0.000 OA
BRANCH  19  26
ATOM     20  C   UNL     1      -1.134   9.913  17.760  0.00  0.00    +0.000 C 
ATOM     21  C   UNL     1      -0.061  10.761  18.380  0.00  0.00    +0.000 A 
ATOM     22  N   UNL     1      -0.566  11.818  19.089  0.00  0.00    +0.000 NA
ATOM     23  C   UNL     1       0.286  12.745  19.569  0.00  0.00    +0.000 A 
ATOM     24  C   UNL     1       1.631  12.715  19.317  0.00  0.00    +0.000 A 
ATOM     25  C   UNL     1       2.120  11.656  18.562  0.00  0.00    +0.000 A 
ATOM     26  C   UNL     1       1.312  10.591  18.179  0.00  0.00    +0.000 A 
ENDBRANCH  19  26
ENDBRANCH   1  19
TORSDOF 5
ENDMDL
MODEL 7
REMARK VINA RESULT:      -6.9      3.082      7.408
REMARK  Name = 
REMARK  7 active torsions:
REMARK  status: ('A' for Active; 'I' for Inactive)
REMARK    1  A    between atoms: C_1  and  C_2
REMARK    2  A    between atoms: C_7  and  O_8
REMARK    3  A    between atoms: O_8  and  C_9
REMARK    4  A    between atoms: C_13  and  C_14
REMARK    5  A    between atoms: N_18  and  C_19
REMARK    6  A    between atoms: C_19  and  C_20
REMARK    7  A    between atoms: N_24  and  C_25
REMARK                            x       y       z     vdW  Elec       q    Type
REMARK                         _______ _______ _______ _____ _____    ______ ____
ROOT
ATOM      1  C   UNL     1       6.455   5.212  16.462  0.00  0.00    +0.000 A 
ATOM      2  C   UNL     1       7.497   5.352  17.367  0.00  0.00    +0.000 A 
ATOM      3  N   UNL     1       7.410   4.940  18.665  0.00  0.00    +0.000 NA
ATOM      4  C   UNL     1       6.223   4.391  19.039  0.00  0.00    +0.000 A 
ATOM      5  C   UNL     1       5.164   4.214  18.155  0.00  0.00    +0.000 A 
ATOM      6  N   UNL     1       5.296   4.599  16.844  0.00  0.00    +0.000 NA
ENDROOT
BRANCH   5   7
ATOM      7  C   UNL     1       3.800   3.690  18.648  0.00  0.00    +0.000 C 
ATOM      8  C   UNL     1       2.919   3.269  17.469  0.00  0.00    +0.000 C 
ATOM      9  C   UNL     1       1.532   3.193  18.051  0.00  0.00    +0.000 C 
ATOM     10  C   UNL     1       1.525   4.232  19.156  0.00  0.00    +0.000 C 
ATOM     11  N   UNL     1       2.918   4.588  19.514  0.00  0.00    +0.000 NA
BRANCH  11  12
ATOM     12  C   UNL     1       3.197   5.994  19.215  0.00  0.00    +0.000 C 
BRANCH  12  13
ATOM     13  C   UNL     1       2.322   7.129  19.643  0.00  0.00    +0.000 A 
ATOM     14  C   UNL     1       1.701   7.171  20.882  0.00  0.00    +0.000 A 
ATOM     15  N   UNL     1       1.068   8.355  21.089  0.00  0.00    +0.000 NA
ATOM     16  C   UNL     1       1.249   9.034  19.988  0.00  0.00    +0.000 A 
ATOM     17  N   UNL     1       1.924   8.304  19.046  0.00  0.00    +0.000 N 
ATOM     18  C   UNL     1       2.064   8.762  17.689  0.00  0.00    +0.000 C 
ENDBRANCH  12  13
ENDBRANCH  11  12
ENDBRANCH   5   7
BRANCH   1  19
ATOM     19  O   UNL     1       6.604   5.776  15.174  0.00  0.00    +0.000 OA
BRANCH  19  26
ATOM     20  C   UNL     1       8.533   5.854  12.839  0.00  0.00    +0.000 C 
ATOM     21  C   UNL     1       7.399   4.888  13.030  0.00  0.00    +0.000 A 
ATOM     22  N   UNL     1       7.303   3.978  12.012  0.00  0.00    +0.000 NA
ATOM     23  C   UNL     1       6.240   3.152  11.977  0.00  0.00    +0.000 A 
ATOM     24  C   UNL     1       5.212   3.229  12.878  0.00  0.00    +0.000 A 
ATOM     25  C   UNL     1       5.308   4.185  13.882  0.00  0.00    +0.000 A 
ATOM     26  C   UNL     1       6.454   4.954  14.058  0.00  0.00    +0.000 A 
ENDBRANCH  19  26
ENDBRANCH   1  19
TORSDOF 5
ENDMDL
MODEL 8
REMARK VINA RESULT:      -6.8      2.132      8.336
REMARK  Name = 
REMARK  7 active torsions:
REMARK  status: ('A' for Active; 'I' for Inactive)
REMARK    1  A    between atoms: C_1  and  C_2
REMARK    2  A    between atoms: C_7  and  O_8
REMARK    3  A    between atoms: O_8  and  C_9
REMARK    4  A    between atoms: C_13  and  C_14
REMARK    5  A    between atoms: N_18  and  C_19
REMARK    6  A    between atoms: C_19  and  C_20
REMARK    7  A    between atoms: N_24  and  C_25
REMARK                            x       y       z     vdW  Elec       q    Type
REMARK                         _______ _______ _______ _____ _____    ______ ____
ROOT
ATOM      1  C   UNL     1       2.178   7.705  19.024  0.00  0.00    +0.000 A 
ATOM      2  C   UNL     1       1.795   7.186  20.252  0.00  0.00    +0.000 A 
ATOM      3  N   UNL     1       1.143   7.923  21.197  0.00  0.00    +0.000 NA
ATOM      4  C   UNL     1       0.897   9.222  20.875  0.00  0.00    +0.000 A 
ATOM      5  C   UNL     1       1.247   9.772  19.646  0.00  0.00    +0.000 A 
ATOM      6  N   UNL     1       1.863   8.993  18.699  0.00  0.00    +0.000 NA
ENDROOT
BRANCH   5   7
ATOM      7  C   UNL     1       1.050  11.276  19.367  0.00  0.00    +0.000 C 
ATOM      8  C   UNL     1       0.752  12.036  20.663  0.00  0.00    +0.000 C 
ATOM      9  C   UNL     1       0.183  13.350  20.199  0.00  0.00    +0.000 C 
ATOM     10  C   UNL     1      -0.514  13.024  18.893  0.00  0.00    +0.000 C 
ATOM     11  N   UNL     1      -0.026  11.723  18.378  0.00  0.00    +0.000 NA
BRANCH  11  12
ATOM     12  C   UNL     1      -1.105  10.733  18.337  0.00  0.00    +0.000 C 
BRANCH  12  13
ATOM     13  C   UNL     1      -2.380  10.919  17.580  0.00  0.00    +0.000 A 
ATOM     14  C   UNL     1      -2.501  10.623  16.231  0.00  0.00    +0.000 A 
ATOM     15  N   UNL     1      -3.783  10.748  15.799  0.00  0.00    +0.000 NA
ATOM     16  C   UNL     1      -4.454  11.156  16.843  0.00  0.00    +0.000 A 
ATOM     17  N   UNL     1      -3.638  11.361  17.924  0.00  0.00    +0.000 N 
ATOM     18  C   UNL     1      -4.114  12.001  19.122  0.00  0.00    +0.000 C 
ENDBRANCH  12  13
ENDBRANCH  11  12
ENDBRANCH   5   7
BRANCH   1  19
ATOM     19  O   UNL     1       2.951   6.892  18.163  0.00  0.00    +0.000 OA
BRANCH  19  26
ATOM     20  C   UNL     1       5.289   5.273  19.209  0.00  0.00    +0.000 C 
ATOM     21  C   UNL     1       3.911   4.760  18.906  0.00  0.00    +0.000 A 
ATOM     22  N   UNL     1       3.776   3.423  19.167  0.00  0.00    +0.000 NA
ATOM     23  C   UNL     1       2.641   2.799  18.797  0.00  0.00    +0.000 A 
ATOM     24  C   UNL     1       1.641   3.431  18.106  0.00  0.00    +0.000 A 
ATOM     25  C   UNL     1       1.813   4.779  17.816  0.00  0.00    +0.000 A 
ATOM     26  C   UNL     1       2.889   5.506  18.311  0.00  0.00    +0.000 A 
ENDBRANCH  19  26
ENDBRANCH   1  19
TORSDOF 5
ENDMDL
MODEL 9
REMARK VINA RESULT:      -6.8      2.111      8.277
REMARK  Name = 
REMARK  7 active torsions:
REMARK  status: ('A' for Active; 'I' for Inactive)
REMARK    1  A    between atoms: C_1  and  C_2
REMARK    2  A    between atoms: C_7  and  O_8
REMARK    3  A    between atoms: O_8  and  C_9
REMARK    4  A    between atoms: C_13  and  C_14
REMARK    5  A    between atoms: N_18  and  C_19
REMARK    6  A    between atoms: C_19  and  C_20
REMARK    7  A    between atoms: N_24  and  C_25
REMARK                            x       y       z     vdW  Elec       q    Type
REMARK                         _______ _______ _______ _____ _____    ______ ____
ROOT
ATOM      1  C   UNL     1       2.140   7.538  19.398  0.00  0.00    +0.000 A 
ATOM      2  C   UNL     1       2.426   7.741  18.056  0.00  0.00    +0.000 A 
ATOM      3  N   UNL     1       2.173   8.917  17.415  0.00  0.00    +0.000 NA
ATOM      4  C   UNL     1       1.599   9.896  18.166  0.00  0.00    +0.000 A 
ATOM      5  C   UNL     1       1.318   9.738  19.519  0.00  0.00    +0.000 A 
ATOM      6  N   UNL     1       1.624   8.556  20.148  0.00  0.00    +0.000 NA
ENDROOT
BRANCH   5   7
ATOM      7  C   UNL     1       0.566  10.831  20.304  0.00  0.00    +0.000 C 
ATOM      8  C   UNL     1       0.278  10.374  21.736  0.00  0.00    +0.000 C 
ATOM      9  C   UNL     1      -0.787  11.322  22.221  0.00  0.00    +0.000 C 
ATOM     10  C   UNL     1      -1.564  11.692  20.973  0.00  0.00    +0.000 C 
ATOM     11  N   UNL     1      -0.765  11.359  19.771  0.00  0.00    +0.000 NA
BRANCH  11  12
ATOM     12  C   UNL     1      -1.424  10.325  18.970  0.00  0.00    +0.000 C 
BRANCH  12  13
ATOM     13  C   UNL     1      -2.386  10.613  17.862  0.00  0.00    +0.000 A 
ATOM     14  C   UNL     1      -2.124  10.291  16.539  0.00  0.00    +0.000 A 
ATOM     15  N   UNL     1      -3.196  10.529  15.740  0.00  0.00    +0.000 NA
ATOM     16  C   UNL     1      -4.106  11.031  16.532  0.00  0.00    +0.000 A 
ATOM     17  N   UNL     1      -3.637  11.186  17.810  0.00  0.00    +0.000 N 
ATOM     18  C   UNL     1      -4.384  11.903  18.810  0.00  0.00    +0.000 C 
ENDBRANCH  12  13
ENDBRANCH  11  12
ENDBRANCH   5   7
BRANCH   1  19
ATOM     19  O   UNL     1       2.333   6.245  19.939  0.00  0.00    +0.000 OA
BRANCH  19  26
ATOM     20  C   UNL     1       5.170   5.368  19.341  0.00  0.00    +0.000 C 
ATOM     21  C   UNL     1       3.910   4.693  18.881  0.00  0.00    +0.000 A 
ATOM     22  N   UNL     1       4.154   3.573  18.133  0.00  0.00    +0.000 NA
ATOM     23  C   UNL     1       3.120   2.957  17.528  0.00  0.00    +0.000 A 
ATOM     24  C   UNL     1       1.841   3.445  17.570  0.00  0.00    +0.000 A 
ATOM     25  C   UNL     1       1.620   4.606  18.301  0.00  0.00    +0.000 A 
ATOM     26  C   UNL     1       2.618   5.190  19.072  0.00  0.00    +0.000 A 
ENDBRANCH  19  26
ENDBRANCH   1  19
TORSDOF 5
ENDMDL
