MODEL 1
REMARK VINA RESULT:      -8.1      0.000      0.000
REMARK  Name = 
REMARK  6 active torsions:
REMARK  status: ('A' for Active; 'I' for Inactive)
REMARK    1  A    between atoms: C_2  and  O_3
REMARK    2  A    between atoms: O_3  and  C_4
REMARK    3  A    between atoms: C_4  and  C_5
REMARK    4  A    between atoms: C_4  and  C_11
REMARK    5  A    between atoms: C_5  and  N_6
REMARK    6  A    between atoms: C_22  and  C_24
REMARK                            x       y       z     vdW  Elec       q    Type
REMARK                         _______ _______ _______ _____ _____    ______ ____
ROOT
ATOM      1  O   UNL     1       3.899   6.996  16.386  0.00  0.00    +0.000 OA
ATOM      2  C   UNL     1       3.760   6.840  17.590  0.00  0.00    +0.000 C 
ATOM      3  N   UNL     1       3.101   7.749  18.429  0.00  0.00    +0.000 N 
ATOM      4  C   UNL     1       2.441   7.246  19.652  0.00  0.00    +0.000 C 
ATOM      5  C   UNL     1       1.694   8.304  20.491  0.00  0.00    +0.000 C 
ATOM      6  N   UNL     1       0.958   9.239  19.645  0.00  0.00    +0.000 N 
ATOM      7  C   UNL     1      -0.360   9.593  19.957  0.00  0.00    +0.000 C 
ATOM      8  O   UNL     1      -0.879   9.185  21.002  0.00  0.00    +0.000 OA
ATOM      9  C   UNL     1       1.822   9.904  18.671  0.00  0.00    +0.000 C 
ATOM     10  C   UNL     1       2.466   8.877  17.738  0.00  0.00    +0.000 C 
ENDROOT
BRANCH   7  11
ATOM     11  C   UNL     1      -1.105  10.442  19.032  0.00  0.00    +0.000 A 
ATOM     12  C   UNL     1      -1.871  10.114  17.926  0.00  0.00    +0.000 A 
ATOM     13  C   UNL     1      -2.383  11.324  17.398  0.00  0.00    +0.000 A 
ATOM     14  C   UNL     1      -1.856  12.328  18.176  0.00  0.00    +0.000 A 
ATOM     15  O   UNL     1      -1.058  11.808  19.143  0.00  0.00    +0.000 OA
ENDBRANCH   7  11
BRANCH   2  16
ATOM     16  O   UNL     1       4.191   5.737  18.245  0.00  0.00    +0.000 OA
BRANCH  16  17
ATOM     17  C   UNL     1       3.739   4.426  17.821  0.00  0.00    +0.000 C 
BRANCH  17  18
ATOM     18  C   UNL     1       2.939   3.830  18.983  0.00  0.00    +0.000 A 
ATOM     19  C   UNL     1       3.592   3.210  20.065  0.00  0.00    +0.000 A 
ATOM     20  C   UNL     1       2.878   2.712  21.153  0.00  0.00    +0.000 A 
ATOM     21  C   UNL     1       1.497   2.806  21.157  0.00  0.00    +0.000 A 
ATOM     22  F   UNL     1       0.807   2.333  22.205  0.00  0.00    +0.000 F 
ATOM     23  C   UNL     1       0.818   3.390  20.095  0.00  0.00    +0.000 A 
ATOM     24  C   UNL     1       1.534   3.912  19.013  0.00  0.00    +0.000 A 
ENDBRANCH  17  18
BRANCH  17  25
ATOM     25  C   UNL     1       4.792   3.460  17.228  0.00  0.00    +0.000 C 
BRANCH  25  26
ATOM     26  N   UNL     1       5.735   4.012  16.277  0.00  0.00    +0.000 N 
ATOM     27  C   UNL     1       5.500   4.263  14.951  0.00  0.00    +0.000 A 
ATOM     28  C   UNL     1       6.592   4.980  14.523  0.00  0.00    +0.000 A 
ATOM     29  N   UNL     1       7.473   5.180  15.552  0.00  0.00    +0.000 NA
ATOM     30  C   UNL     1       6.927   4.598  16.597  0.00  0.00    +0.000 A 
ENDBRANCH  25  26
ENDBRANCH  17  25
ENDBRANCH  16  17
ENDBRANCH   2  16
TORSDOF 6
ENDMDL
MODEL 2
REMARK VINA RESULT:      -7.6      2.052      2.613
REMARK  Name = 
REMARK  6 active torsions:
REMARK  status: ('A' for Active; 'I' for Inactive)
REMARK    1  A    between atoms: C_2  and  O_3
REMARK    2  A    between atoms: O_3  and  C_4
REMARK    3  A    between atoms: C_4  and  C_5
REMARK    4  A    between atoms: C_4  and  C_11
REMARK    5  A    between atoms: C_5  and  N_6
REMARK    6  A    between atoms: C_22  and  C_24
REMARK                            x       y       z     vdW  Elec       q    Type
REMARK                         _______ _______ _______ _____ _____    ______ ____
ROOT
ATOM      1  O   UNL     1       1.916   8.492  17.322  0.00  0.00    +0.000 OA
ATOM      2  C   UNL     1       2.155   8.308  18.507  0.00  0.00    +0.000 C 
ATOM      3  N   UNL     1       1.812   9.206  19.527  0.00  0.00    +0.000 N 
ATOM      4  C   UNL     1       1.555   8.684  20.885  0.00  0.00    +0.000 C 
ATOM      5  C   UNL     1       1.131   9.733  21.934  0.00  0.00    +0.000 C 
ATOM      6  N   UNL     1       0.191  10.702  21.378  0.00  0.00    +0.000 N 
ATOM      7  C   UNL     1      -0.954  11.070  22.092  0.00  0.00    +0.000 C 
ATOM      8  O   UNL     1      -1.132  10.644  23.239  0.00  0.00    +0.000 OA
ATOM      9  C   UNL     1       0.724  11.377  20.195  0.00  0.00    +0.000 C 
ATOM     10  C   UNL     1       1.021  10.362  19.089  0.00  0.00    +0.000 C 
ENDROOT
BRANCH   7  11
ATOM     11  C   UNL     1      -1.931  11.954  21.462  0.00  0.00    +0.000 A 
ATOM     12  C   UNL     1      -2.609  13.053  21.964  0.00  0.00    +0.000 A 
ATOM     13  C   UNL     1      -3.426  13.553  20.922  0.00  0.00    +0.000 A 
ATOM     14  C   UNL     1      -3.245  12.699  19.858  0.00  0.00    +0.000 A 
ATOM     15  O   UNL     1      -2.371  11.714  20.186  0.00  0.00    +0.000 OA
ENDBRANCH   7  11
BRANCH   2  16
ATOM     16  O   UNL     1       2.743   7.182  18.974  0.00  0.00    +0.000 OA
BRANCH  16  17
ATOM     17  C   UNL     1       2.566   5.930  18.263  0.00  0.00    +0.000 C 
BRANCH  17  18
ATOM     18  C   UNL     1       2.133   4.886  19.296  0.00  0.00    +0.000 A 
ATOM     19  C   UNL     1       1.311   3.804  18.926  0.00  0.00    +0.000 A 
ATOM     20  C   UNL     1       0.954   2.819  19.844  0.00  0.00    +0.000 A 
ATOM     21  C   UNL     1       1.396   2.919  21.153  0.00  0.00    +0.000 A 
ATOM     22  F   UNL     1       1.060   1.970  22.037  0.00  0.00    +0.000 F 
ATOM     23  C   UNL     1       2.189   3.987  21.558  0.00  0.00    +0.000 A 
ATOM     24  C   UNL     1       2.568   4.963  20.632  0.00  0.00    +0.000 A 
ENDBRANCH  17  18
BRANCH  17  25
ATOM     25  C   UNL     1       3.715   5.459  17.341  0.00  0.00    +0.000 C 
BRANCH  25  26
ATOM     26  N   UNL     1       5.066   5.792  17.743  0.00  0.00    +0.000 N 
ATOM     27  C   UNL     1       5.879   5.046  18.554  0.00  0.00    +0.000 A 
ATOM     28  C   UNL     1       7.116   5.640  18.466  0.00  0.00    +0.000 A 
ATOM     29  N   UNL     1       7.077   6.714  17.617  0.00  0.00    +0.000 NA
ATOM     30  C   UNL     1       5.836   6.774  17.187  0.00  0.00    +0.000 A 
ENDBRANCH  25  26
ENDBRANCH  17  25
ENDBRANCH  16  17
ENDBRANCH   2  16
TORSDOF 6
ENDMDL
MODEL 3
REMARK VINA RESULT:      -7.5      2.125      2.554
REMARK  Name = 
REMARK  6 active torsions:
REMARK  status: ('A' for Active; 'I' for Inactive)
REMARK    1  A    between atoms: C_2  and  O_3
REMARK    2  A    between atoms: O_3  and  C_4
REMARK    3  A    between atoms: C_4  and  C_5
REMARK    4  A    between atoms: C_4  and  C_11
REMARK    5  A    between atoms: C_5  and  N_6
REMARK    6  A    between atoms: C_22  and  C_24
REMARK                            x       y       z     vdW  Elec       q    Type
REMARK                         _______ _______ _______ _____ _____    ______ ____
ROOT
ATOM      1  O   UNL     1       1.953   8.628  17.364  0.00  0.00    +0.000 OA
ATOM      2  C   UNL     1       2.157   8.421  18.551  0.00  0.00    +0.000 C 
ATOM      3  N   UNL     1       1.804   9.309  19.576  0.00  0.00    +0.000 N 
ATOM      4  C   UNL     1       1.501   8.771  20.918  0.00  0.00    +0.000 C 
ATOM      5  C   UNL     1       1.069   9.811  21.972  0.00  0.00    +0.000 C 
ATOM      6  N   UNL     1       0.163  10.807  21.408  0.00  0.00    +0.000 N 
ATOM      7  C   UNL     1      -0.995  11.186  22.097  0.00  0.00    +0.000 C 
ATOM      8  O   UNL     1      -1.211  10.745  23.232  0.00  0.00    +0.000 OA
ATOM      9  C   UNL     1       0.740  11.489  20.250  0.00  0.00    +0.000 C 
ATOM     10  C   UNL     1       1.047  10.487  19.136  0.00  0.00    +0.000 C 
ENDROOT
BRANCH   7  11
ATOM     11  C   UNL     1      -1.937  12.099  21.455  0.00  0.00    +0.000 A 
ATOM     12  C   UNL     1      -2.662  11.969  20.282  0.00  0.00    +0.000 A 
ATOM     13  C   UNL     1      -3.434  13.145  20.135  0.00  0.00    +0.000 A 
ATOM     14  C   UNL     1      -3.096  13.954  21.196  0.00  0.00    +0.000 A 
ATOM     15  O   UNL     1      -2.170  13.344  21.978  0.00  0.00    +0.000 OA
ENDBRANCH   7  11
BRANCH   2  16
ATOM     16  O   UNL     1       2.710   7.276  19.015  0.00  0.00    +0.000 OA
BRANCH  16  17
ATOM     17  C   UNL     1       2.570   6.049  18.254  0.00  0.00    +0.000 C 
BRANCH  17  18
ATOM     18  C   UNL     1       2.156   4.955  19.242  0.00  0.00    +0.000 A 
ATOM     19  C   UNL     1       2.586   4.994  20.583  0.00  0.00    +0.000 A 
ATOM     20  C   UNL     1       2.174   4.034  21.504  0.00  0.00    +0.000 A 
ATOM     21  C   UNL     1       1.346   3.005  21.087  0.00  0.00    +0.000 A 
ATOM     22  F   UNL     1       0.943   2.083  21.972  0.00  0.00    +0.000 F 
ATOM     23  C   UNL     1       0.922   2.922  19.766  0.00  0.00    +0.000 A 
ATOM     24  C   UNL     1       1.316   3.898  18.846  0.00  0.00    +0.000 A 
ENDBRANCH  17  18
BRANCH  17  25
ATOM     25  C   UNL     1       3.736   5.643  17.324  0.00  0.00    +0.000 C 
BRANCH  25  26
ATOM     26  N   UNL     1       5.078   5.976  17.759  0.00  0.00    +0.000 N 
ATOM     27  C   UNL     1       5.823   5.296  18.685  0.00  0.00    +0.000 A 
ATOM     28  C   UNL     1       7.084   5.840  18.598  0.00  0.00    +0.000 A 
ATOM     29  N   UNL     1       7.123   6.818  17.641  0.00  0.00    +0.000 NA
ATOM     30  C   UNL     1       5.907   6.870  17.144  0.00  0.00    +0.000 A 
ENDBRANCH  25  26
ENDBRANCH  17  25
ENDBRANCH  16  17
ENDBRANCH   2  16
TORSDOF 6
ENDMDL
MODEL 4
REMARK VINA RESULT:      -7.4      2.202      2.881
REMARK  Name = 
REMARK  6 active torsions:
REMARK  status: ('A' for Active; 'I' for Inactive)
REMARK    1  A    between atoms: C_2  and  O_3
REMARK    2  A    between atoms: O_3  and  C_4
REMARK    3  A    between atoms: C_4  and  C_5
REMARK    4  A    between atoms: C_4  and  C_11
REMARK    5  A    between atoms: C_5  and  N_6
REMARK    6  A    between atoms: C_22  and  C_24
REMARK                            x       y       z     vdW  Elec       q    Type
REMARK                         _______ _______ _______ _____ _____    ______ ____
ROOT
ATOM      1  O   UNL     1       1.914   8.742  17.286  0.00  0.00    +0.000 OA
ATOM      2  C   UNL     1       2.073   8.322  18.424  0.00  0.00    +0.000 C 
ATOM      3  N   UNL     1       1.812   9.069  19.580  0.00  0.00    +0.000 N 
ATOM      4  C   UNL     1       1.426   8.360  20.818  0.00  0.00    +0.000 C 
ATOM      5  C   UNL     1       1.103   9.260  22.030  0.00  0.00    +0.000 C 
ATOM      6  N   UNL     1       0.330  10.434  21.638  0.00  0.00    +0.000 N 
ATOM      7  C   UNL     1      -0.785  10.832  22.384  0.00  0.00    +0.000 C 
ATOM      8  O   UNL     1      -1.070  10.242  23.433  0.00  0.00    +0.000 OA
ATOM      9  C   UNL     1       1.002  11.221  20.605  0.00  0.00    +0.000 C 
ATOM     10  C   UNL     1       1.206  10.384  19.341  0.00  0.00    +0.000 C 
ENDROOT
BRANCH   7  11
ATOM     11  C   UNL     1      -1.603  11.942  21.903  0.00  0.00    +0.000 A 
ATOM     12  C   UNL     1      -1.990  13.114  22.530  0.00  0.00    +0.000 A 
ATOM     13  C   UNL     1      -2.768  13.848  21.603  0.00  0.00    +0.000 A 
ATOM     14  C   UNL     1      -2.860  13.058  20.480  0.00  0.00    +0.000 A 
ATOM     15  O   UNL     1      -2.189  11.894  20.664  0.00  0.00    +0.000 OA
ENDBRANCH   7  11
BRANCH   2  16
ATOM     16  O   UNL     1       2.480   7.060  18.693  0.00  0.00    +0.000 OA
BRANCH  16  17
ATOM     17  C   UNL     1       3.378   6.383  17.778  0.00  0.00    +0.000 C 
BRANCH  17  18
ATOM     18  C   UNL     1       3.307   4.888  18.103  0.00  0.00    +0.000 A 
ATOM     19  C   UNL     1       2.453   4.033  17.380  0.00  0.00    +0.000 A 
ATOM     20  C   UNL     1       2.418   2.663  17.631  0.00  0.00    +0.000 A 
ATOM     21  C   UNL     1       3.219   2.136  18.630  0.00  0.00    +0.000 A 
ATOM     22  F   UNL     1       3.192   0.818  18.871  0.00  0.00    +0.000 F 
ATOM     23  C   UNL     1       4.055   2.955  19.380  0.00  0.00    +0.000 A 
ATOM     24  C   UNL     1       4.109   4.326  19.113  0.00  0.00    +0.000 A 
ENDBRANCH  17  18
BRANCH  17  25
ATOM     25  C   UNL     1       4.821   6.926  17.652  0.00  0.00    +0.000 C 
BRANCH  25  26
ATOM     26  N   UNL     1       5.680   6.304  16.665  0.00  0.00    +0.000 N 
ATOM     27  C   UNL     1       6.836   5.614  16.914  0.00  0.00    +0.000 A 
ATOM     28  C   UNL     1       7.169   5.029  15.715  0.00  0.00    +0.000 A 
ATOM     29  N   UNL     1       6.243   5.335  14.754  0.00  0.00    +0.000 NA
ATOM     30  C   UNL     1       5.353   6.093  15.356  0.00  0.00    +0.000 A 
ENDBRANCH  25  26
ENDBRANCH  17  25
ENDBRANCH  16  17
ENDBRANCH   2  16
TORSDOF 6
ENDMDL
MODEL 5
REMARK VINA RESULT:      -7.4      2.169      2.667
REMARK  Name = 
REMARK  6 active torsions:
REMARK  status: ('A' for Active; 'I' for Inactive)
REMARK    1  A    between atoms: C_2  and  O_3
REMARK    2  A    between atoms: O_3  and  C_4
REMARK    3  A    between atoms: C_4  and  C_5
REMARK    4  A    between atoms: C_4  and  C_11
REMARK    5  A    between atoms: C_5  and  N_6
REMARK    6  A    between atoms: C_22  and  C_24
REMARK                            x       y       z     vdW  Elec       q    Type
REMARK                         _______ _______ _______ _____ _____    ______ ____
ROOT
ATOM      1  O   UNL     1       1.808   8.757  17.307  0.00  0.00    +0.000 OA
ATOM      2  C   UNL     1       2.024   8.367  18.445  0.00  0.00    +0.000 C 
ATOM      3  N   UNL     1       1.786   9.131  19.596  0.00  0.00    +0.000 N 
ATOM      4  C   UNL     1       1.469   8.439  20.862  0.00  0.00    +0.000 C 
ATOM      5  C   UNL     1       1.168   9.355  22.067  0.00  0.00    +0.000 C 
ATOM      6  N   UNL     1       0.346  10.499  21.682  0.00  0.00    +0.000 N 
ATOM      7  C   UNL     1      -0.750  10.881  22.463  0.00  0.00    +0.000 C 
ATOM      8  O   UNL     1      -0.976  10.306  23.534  0.00  0.00    +0.000 OA
ATOM      9  C   UNL     1       0.954  11.282  20.607  0.00  0.00    +0.000 C 
ATOM     10  C   UNL     1       1.133  10.423  19.354  0.00  0.00    +0.000 C 
ENDROOT
BRANCH   7  11
ATOM     11  C   UNL     1      -1.618  11.957  21.992  0.00  0.00    +0.000 A 
ATOM     12  C   UNL     1      -2.191  13.017  22.673  0.00  0.00    +0.000 A 
ATOM     13  C   UNL     1      -2.930  13.771  21.731  0.00  0.00    +0.000 A 
ATOM     14  C   UNL     1      -2.815  13.098  20.536  0.00  0.00    +0.000 A 
ATOM     15  O   UNL     1      -2.053  11.986  20.692  0.00  0.00    +0.000 OA
ENDBRANCH   7  11
BRANCH   2  16
ATOM     16  O   UNL     1       2.477   7.123  18.725  0.00  0.00    +0.000 OA
BRANCH  16  17
ATOM     17  C   UNL     1       3.254   6.401  17.735  0.00  0.00    +0.000 C 
BRANCH  17  18
ATOM     18  C   UNL     1       3.172   4.916  18.098  0.00  0.00    +0.000 A 
ATOM     19  C   UNL     1       3.747   4.432  19.289  0.00  0.00    +0.000 A 
ATOM     20  C   UNL     1       3.633   3.093  19.656  0.00  0.00    +0.000 A 
ATOM     21  C   UNL     1       2.964   2.215  18.819  0.00  0.00    +0.000 A 
ATOM     22  F   UNL     1       2.848   0.928  19.172  0.00  0.00    +0.000 F 
ATOM     23  C   UNL     1       2.405   2.654  17.625  0.00  0.00    +0.000 A 
ATOM     24  C   UNL     1       2.498   4.002  17.267  0.00  0.00    +0.000 A 
ENDBRANCH  17  18
BRANCH  17  25
ATOM     25  C   UNL     1       4.692   6.896  17.449  0.00  0.00    +0.000 C 
BRANCH  25  26
ATOM     26  N   UNL     1       5.578   5.989  16.749  0.00  0.00    +0.000 N 
ATOM     27  C   UNL     1       5.514   5.653  15.423  0.00  0.00    +0.000 A 
ATOM     28  C   UNL     1       6.674   4.957  15.174  0.00  0.00    +0.000 A 
ATOM     29  N   UNL     1       7.441   4.874  16.306  0.00  0.00    +0.000 NA
ATOM     30  C   UNL     1       6.764   5.514  17.233  0.00  0.00    +0.000 A 
ENDBRANCH  25  26
ENDBRANCH  17  25
ENDBRANCH  16  17
ENDBRANCH   2  16
TORSDOF 6
ENDMDL
MODEL 6
REMARK VINA RESULT:      -7.4      2.185      2.692
REMARK  Name = 
REMARK  6 active torsions:
REMARK  status: ('A' for Active; 'I' for Inactive)
REMARK    1  A    between atoms: C_2  and  O_3
REMARK    2  A    between atoms: O_3  and  C_4
REMARK    3  A    between atoms: C_4  and  C_5
REMARK    4  A    between atoms: C_4  and  C_11
REMARK    5  A    between atoms: C_5  and  N_6
REMARK    6  A    between atoms: C_22  and  C_24
REMARK                            x       y       z     vdW  Elec       q    Type
REMARK                         _______ _______ _______ _____ _____    ______ ____
ROOT
ATOM      1  O   UNL     1       1.870   8.467  17.613  0.00  0.00    +0.000 OA
ATOM      2  C   UNL     1       2.033   8.227  18.801  0.00  0.00    +0.000 C 
ATOM      3  N   UNL     1       1.736   9.127  19.832  0.00  0.00    +0.000 N 
ATOM      4  C   UNL     1       1.363   8.598  21.160  0.00  0.00    +0.000 C 
ATOM      5  C   UNL     1       1.000   9.656  22.223  0.00  0.00    +0.000 C 
ATOM      6  N   UNL     1       0.192  10.733  21.658  0.00  0.00    +0.000 N 
ATOM      7  C   UNL     1      -0.942  11.199  22.332  0.00  0.00    +0.000 C 
ATOM      8  O   UNL     1      -1.217  10.763  23.455  0.00  0.00    +0.000 OA
ATOM      9  C   UNL     1       0.847  11.380  20.522  0.00  0.00    +0.000 C 
ATOM     10  C   UNL     1       1.090  10.371  19.398  0.00  0.00    +0.000 C 
ENDROOT
BRANCH   7  11
ATOM     11  C   UNL     1      -1.791  12.197  21.687  0.00  0.00    +0.000 A 
ATOM     12  C   UNL     1      -2.137  13.478  22.084  0.00  0.00    +0.000 A 
ATOM     13  C   UNL     1      -2.975  14.016  21.078  0.00  0.00    +0.000 A 
ATOM     14  C   UNL     1      -3.142  13.014  20.151  0.00  0.00    +0.000 A 
ATOM     15  O   UNL     1      -2.459  11.903  20.526  0.00  0.00    +0.000 OA
ENDBRANCH   7  11
BRANCH   2  16
ATOM     16  O   UNL     1       2.478   7.033  19.257  0.00  0.00    +0.000 OA
BRANCH  16  17
ATOM     17  C   UNL     1       3.154   6.123  18.351  0.00  0.00    +0.000 C 
BRANCH  17  18
ATOM     18  C   UNL     1       2.451   4.769  18.470  0.00  0.00    +0.000 A 
ATOM     19  C   UNL     1       2.710   3.739  17.545  0.00  0.00    +0.000 A 
ATOM     20  C   UNL     1       2.117   2.485  17.672  0.00  0.00    +0.000 A 
ATOM     21  C   UNL     1       1.236   2.254  18.715  0.00  0.00    +0.000 A 
ATOM     22  F   UNL     1       0.669   1.047  18.844  0.00  0.00    +0.000 F 
ATOM     23  C   UNL     1       0.939   3.255  19.633  0.00  0.00    +0.000 A 
ATOM     24  C   UNL     1       1.552   4.507  19.520  0.00  0.00    +0.000 A 
ENDBRANCH  17  18
BRANCH  17  25
ATOM     25  C   UNL     1       4.696   6.037  18.438  0.00  0.00    +0.000 C 
BRANCH  25  26
ATOM     26  N   UNL     1       5.416   5.784  17.207  0.00  0.00    +0.000 N 
ATOM     27  C   UNL     1       6.264   4.736  16.963  0.00  0.00    +0.000 A 
ATOM     28  C   UNL     1       6.522   4.792  15.613  0.00  0.00    +0.000 A 
ATOM     29  N   UNL     1       5.846   5.833  15.034  0.00  0.00    +0.000 NA
ATOM     30  C   UNL     1       5.180   6.404  16.013  0.00  0.00    +0.000 A 
ENDBRANCH  25  26
ENDBRANCH  17  25
ENDBRANCH  16  17
ENDBRANCH   2  16
TORSDOF 6
ENDMDL
MODEL 7
REMARK VINA RESULT:      -7.4      2.355      2.960
REMARK  Name = 
REMARK  6 active torsions:
REMARK  status: ('A' for Active; 'I' for Inactive)
REMARK    1  A    between atoms: C_2  and  O_3
REMARK    2  A    between atoms: O_3  and  C_4
REMARK    3  A    between atoms: C_4  and  C_5
REMARK    4  A    between atoms: C_4  and  C_11
REMARK    5  A    between atoms: C_5  and  N_6
REMARK    6  A    between atoms: C_22  and  C_24
REMARK                            x       y       z     vdW  Elec       q    Type
REMARK                         _______ _______ _______ _____ _____    ______ ____
ROOT
ATOM      1  O   UNL     1       1.859   9.069  17.414  0.00  0.00    +0.000 OA
ATOM      2  C   UNL     1       1.951   8.664  18.563  0.00  0.00    +0.000 C 
ATOM      3  N   UNL     1       1.638   9.430  19.694  0.00  0.00    +0.000 N 
ATOM      4  C   UNL     1       1.176   8.744  20.918  0.00  0.00    +0.000 C 
ATOM      5  C   UNL     1       0.801   9.665  22.098  0.00  0.00    +0.000 C 
ATOM      6  N   UNL     1       0.066  10.844  21.649  0.00  0.00    +0.000 N 
ATOM      7  C   UNL     1      -1.082  11.267  22.329  0.00  0.00    +0.000 C 
ATOM      8  O   UNL     1      -1.431  10.696  23.368  0.00  0.00    +0.000 OA
ATOM      9  C   UNL     1       0.804  11.608  20.644  0.00  0.00    +0.000 C 
ATOM     10  C   UNL     1       1.064  10.749  19.405  0.00  0.00    +0.000 C 
ENDROOT
BRANCH   7  11
ATOM     11  C   UNL     1      -1.857  12.381  21.789  0.00  0.00    +0.000 A 
ATOM     12  C   UNL     1      -2.773  12.423  20.751  0.00  0.00    +0.000 A 
ATOM     13  C   UNL     1      -3.239  13.756  20.657  0.00  0.00    +0.000 A 
ATOM     14  C   UNL     1      -2.540  14.467  21.606  0.00  0.00    +0.000 A 
ATOM     15  O   UNL     1      -1.682  13.653  22.270  0.00  0.00    +0.000 OA
ENDBRANCH   7  11
BRANCH   2  16
ATOM     16  O   UNL     1       2.325   7.400  18.872  0.00  0.00    +0.000 OA
BRANCH  16  17
ATOM     17  C   UNL     1       2.723   6.489  17.815  0.00  0.00    +0.000 C 
BRANCH  17  18
ATOM     18  C   UNL     1       2.341   5.079  18.273  0.00  0.00    +0.000 A 
ATOM     19  C   UNL     1       2.497   3.975  17.412  0.00  0.00    +0.000 A 
ATOM     20  C   UNL     1       2.203   2.681  17.834  0.00  0.00    +0.000 A 
ATOM     21  C   UNL     1       1.725   2.478  19.118  0.00  0.00    +0.000 A 
ATOM     22  F   UNL     1       1.447   1.233  19.530  0.00  0.00    +0.000 F 
ATOM     23  C   UNL     1       1.536   3.547  19.986  0.00  0.00    +0.000 A 
ATOM     24  C   UNL     1       1.853   4.844  19.571  0.00  0.00    +0.000 A 
ENDBRANCH  17  18
BRANCH  17  25
ATOM     25  C   UNL     1       4.168   6.602  17.275  0.00  0.00    +0.000 C 
BRANCH  25  26
ATOM     26  N   UNL     1       5.178   5.778  17.908  0.00  0.00    +0.000 N 
ATOM     27  C   UNL     1       6.199   5.117  17.279  0.00  0.00    +0.000 A 
ATOM     28  C   UNL     1       7.012   4.668  18.293  0.00  0.00    +0.000 A 
ATOM     29  N   UNL     1       6.520   5.048  19.513  0.00  0.00    +0.000 NA
ATOM     30  C   UNL     1       5.424   5.724  19.251  0.00  0.00    +0.000 A 
ENDBRANCH  25  26
ENDBRANCH  17  25
ENDBRANCH  16  17
ENDBRANCH   2  16
TORSDOF 6
ENDMDL
MODEL 8
REMARK VINA RESULT:      -7.4      0.680      1.028
REMARK  Name = 
REMARK  6 active torsions:
REMARK  status: ('A' for Active; 'I' for Inactive)
REMARK    1  A    between atoms: C_2  and  O_3
REMARK    2  A    between atoms: O_3  and  C_4
REMARK    3  A    between atoms: C_4  and  C_5
REMARK    4  A    between atoms: C_4  and  C_11
REMARK    5  A    between atoms: C_5  and  N_6
REMARK    6  A    between atoms: C_22  and  C_24
REMARK                            x       y       z     vdW  Elec       q    Type
REMARK                         _______ _______ _______ _____ _____    ______ ____
ROOT
ATOM      1  O   UNL     1       3.390   7.218  16.538  0.00  0.00    +0.000 OA
ATOM      2  C   UNL     1       3.338   7.045  17.747  0.00  0.00    +0.000 C 
ATOM      3  N   UNL     1       2.769   7.956  18.647  0.00  0.00    +0.000 N 
ATOM      4  C   UNL     1       2.190   7.450  19.909  0.00  0.00    +0.000 C 
ATOM      5  C   UNL     1       1.536   8.513  20.817  0.00  0.00    +0.000 C 
ATOM      6  N   UNL     1       0.764   9.481  20.044  0.00  0.00    +0.000 N 
ATOM      7  C   UNL     1      -0.516   9.864  20.460  0.00  0.00    +0.000 C 
ATOM      8  O   UNL     1      -0.966   9.451  21.535  0.00  0.00    +0.000 OA
ATOM      9  C   UNL     1       1.570  10.140  19.017  0.00  0.00    +0.000 C 
ATOM     10  C   UNL     1       2.115   9.112  18.023  0.00  0.00    +0.000 C 
ENDROOT
BRANCH   7  11
ATOM     11  C   UNL     1      -1.305  10.747  19.606  0.00  0.00    +0.000 A 
ATOM     12  C   UNL     1      -1.760  10.578  18.309  0.00  0.00    +0.000 A 
ATOM     13  C   UNL     1      -2.493  11.740  17.967  0.00  0.00    +0.000 A 
ATOM     14  C   UNL     1      -2.398  12.579  19.053  0.00  0.00    +0.000 A 
ATOM     15  O   UNL     1      -1.656  12.002  20.032  0.00  0.00    +0.000 OA
ENDBRANCH   7  11
BRANCH   2  16
ATOM     16  O   UNL     1       3.787   5.921  18.351  0.00  0.00    +0.000 OA
BRANCH  16  17
ATOM     17  C   UNL     1       3.334   4.624  17.886  0.00  0.00    +0.000 C 
BRANCH  17  18
ATOM     18  C   UNL     1       2.680   3.923  19.080  0.00  0.00    +0.000 A 
ATOM     19  C   UNL     1       3.465   3.278  20.055  0.00  0.00    +0.000 A 
ATOM     20  C   UNL     1       2.886   2.682  21.173  0.00  0.00    +0.000 A 
ATOM     21  C   UNL     1       1.508   2.703  21.316  0.00  0.00    +0.000 A 
ATOM     22  F   UNL     1       0.948   2.137  22.393  0.00  0.00    +0.000 F 
ATOM     23  C   UNL     1       0.702   3.310  20.361  0.00  0.00    +0.000 A 
ATOM     24  C   UNL     1       1.283   3.929  19.250  0.00  0.00    +0.000 A 
ENDBRANCH  17  18
BRANCH  17  25
ATOM     25  C   UNL     1       4.347   3.741  17.121  0.00  0.00    +0.000 C 
BRANCH  25  26
ATOM     26  N   UNL     1       5.717   4.207  17.057  0.00  0.00    +0.000 N 
ATOM     27  C   UNL     1       6.553   4.420  18.121  0.00  0.00    +0.000 A 
ATOM     28  C   UNL     1       7.792   4.635  17.564  0.00  0.00    +0.000 A 
ATOM     29  N   UNL     1       7.732   4.546  16.199  0.00  0.00    +0.000 NA
ATOM     30  C   UNL     1       6.475   4.275  15.923  0.00  0.00    +0.000 A 
ENDBRANCH  25  26
ENDBRANCH  17  25
ENDBRANCH  16  17
ENDBRANCH   2  16
TORSDOF 6
ENDMDL
MODEL 9
REMARK VINA RESULT:      -7.4      2.202      2.790
REMARK  Name = 
REMARK  6 active torsions:
REMARK  status: ('A' for Active; 'I' for Inactive)
REMARK    1  A    between atoms: C_2  and  O_3
REMARK    2  A    between atoms: O_3  and  C_4
REMARK    3  A    between atoms: C_4  and  C_5
REMARK    4  A    between atoms: C_4  and  C_11
REMARK    5  A    between atoms: C_5  and  N_6
REMARK    6  A    between atoms: C_22  and  C_24
REMARK                            x       y       z     vdW  Elec       q    Type
REMARK                         _______ _______ _______ _____ _____    ______ ____
ROOT
ATOM      1  O   UNL     1       1.903   8.973  17.276  0.00  0.00    +0.000 OA
ATOM      2  C   UNL     1       2.005   8.527  18.410  0.00  0.00    +0.000 C 
ATOM      3  N   UNL     1       1.733   9.262  19.571  0.00  0.00    +0.000 N 
ATOM      4  C   UNL     1       1.275   8.548  20.780  0.00  0.00    +0.000 C 
ATOM      5  C   UNL     1       0.947   9.438  21.997  0.00  0.00    +0.000 C 
ATOM      6  N   UNL     1       0.236  10.650  21.602  0.00  0.00    +0.000 N 
ATOM      7  C   UNL     1      -0.888  11.079  22.317  0.00  0.00    +0.000 C 
ATOM      8  O   UNL     1      -1.234  10.483  23.343  0.00  0.00    +0.000 OA
ATOM      9  C   UNL     1       0.975  11.428  20.608  0.00  0.00    +0.000 C 
ATOM     10  C   UNL     1       1.190  10.605  19.337  0.00  0.00    +0.000 C 
ENDROOT
BRANCH   7  11
ATOM     11  C   UNL     1      -1.643  12.231  21.829  0.00  0.00    +0.000 A 
ATOM     12  C   UNL     1      -2.606  12.324  20.838  0.00  0.00    +0.000 A 
ATOM     13  C   UNL     1      -3.022  13.676  20.784  0.00  0.00    +0.000 A 
ATOM     14  C   UNL     1      -2.249  14.345  21.706  0.00  0.00    +0.000 A 
ATOM     15  O   UNL     1      -1.393  13.488  22.316  0.00  0.00    +0.000 OA
ENDBRANCH   7  11
BRANCH   2  16
ATOM     16  O   UNL     1       2.351   7.244  18.669  0.00  0.00    +0.000 OA
BRANCH  16  17
ATOM     17  C   UNL     1       3.166   6.513  17.717  0.00  0.00    +0.000 C 
BRANCH  17  18
ATOM     18  C   UNL     1       3.097   5.035  18.112  0.00  0.00    +0.000 A 
ATOM     19  C   UNL     1       2.494   4.089  17.260  0.00  0.00    +0.000 A 
ATOM     20  C   UNL     1       2.471   2.735  17.583  0.00  0.00    +0.000 A 
ATOM     21  C   UNL     1       3.031   2.313  18.778  0.00  0.00    +0.000 A 
ATOM     22  F   UNL     1       3.016   1.009  19.089  0.00  0.00    +0.000 F 
ATOM     23  C   UNL     1       3.612   3.222  19.653  0.00  0.00    +0.000 A 
ATOM     24  C   UNL     1       3.657   4.579  19.319  0.00  0.00    +0.000 A 
ENDBRANCH  17  18
BRANCH  17  25
ATOM     25  C   UNL     1       4.603   7.024  17.460  0.00  0.00    +0.000 C 
BRANCH  25  26
ATOM     26  N   UNL     1       5.529   6.108  16.826  0.00  0.00    +0.000 N 
ATOM     27  C   UNL     1       5.479   5.671  15.529  0.00  0.00    +0.000 A 
ATOM     28  C   UNL     1       6.669   5.012  15.327  0.00  0.00    +0.000 A 
ATOM     29  N   UNL     1       7.440   5.048  16.459  0.00  0.00    +0.000 NA
ATOM     30  C   UNL     1       6.735   5.724  17.339  0.00  0.00    +0.000 A 
ENDBRANCH  25  26
ENDBRANCH  17  25
ENDBRANCH  16  17
ENDBRANCH   2  16
TORSDOF 6
ENDMDL
