MODEL 1
REMARK VINA RESULT:      -8.1      0.000      0.000
REMARK  Name = 
REMARK  6 active torsions:
REMARK  status: ('A' for Active; 'I' for Inactive)
REMARK    1  A    between atoms: C_2  and  C_4
REMARK    2  A    between atoms: N_10  and  C_11
REMARK    3  A    between atoms: C_14  and  C_15
REMARK    4  A    between atoms: N_17  and  C_18
REMARK    5  A    between atoms: C_18  and  C_19
REMARK    6  A    between atoms: C_19  and  N_20
REMARK                            x       y       z     vdW  Elec       q    Type
REMARK                         _______ _______ _______ _____ _____    ______ ____
ROOT
ATOM      1  C   UNL     1       1.098   8.538  20.745  0.00  0.00    +0.000 A 
ATOM      2  C   UNL     1       0.657   9.602  19.946  0.00  0.00    +0.000 A 
ATOM      3  C   UNL     1      -0.015  10.685  20.525  0.00  0.00    +0.000 A 
ATOM      4  C   UNL     1      -0.239  10.738  21.905  0.00  0.00    +0.000 A 
ATOM      5  C   UNL     1       0.180   9.668  22.705  0.00  0.00    +0.000 A 
ATOM      6  C   UNL     1       0.841   8.570  22.127  0.00  0.00    +0.000 A 
ENDROOT
BRANCH   1  13
ATOM      7  C   UNL     1       2.759   4.004  20.043  0.00  0.00    +0.000 A 
ATOM      8  C   UNL     1       3.593   3.515  19.000  0.00  0.00    +0.000 A 
ATOM      9  C   UNL     1       4.106   4.337  17.952  0.00  0.00    +0.000 A 
ATOM     10  C   UNL     1       3.832   5.714  17.837  0.00  0.00    +0.000 A 
ATOM     11  C   UNL     1       3.017   6.157  18.874  0.00  0.00    +0.000 A 
ATOM     12  C   UNL     1       2.556   7.433  19.019  0.00  0.00    +0.000 A 
ATOM     13  N   UNL     1       1.796   7.433  20.169  0.00  0.00    +0.000 N 
ATOM     14  N   UNL     1       1.761   6.205  20.761  0.00  0.00    +0.000 NA
ATOM     15  C   UNL     1       2.483   5.387  19.964  0.00  0.00    +0.000 A 
BRANCH   7  17
ATOM     16  N   UNL     1       0.860   2.922  21.090  0.00  0.00    +0.000 N 
ATOM     17  C   UNL     1       2.211   3.101  21.070  0.00  0.00    +0.000 C 
ATOM     18  O   UNL     1       2.945   2.530  21.871  0.00  0.00    +0.000 OA
ATOM     19  H   UNL     1       0.461   2.270  21.748  0.00  0.00    +0.000 HD
ATOM     20  H   UNL     1       0.263   3.382  20.408  0.00  0.00    +0.000 HD
ENDBRANCH   7  17
ENDBRANCH   1  13
BRANCH   4  21
ATOM     21  C   UNL     1      -0.908  11.960  22.448  0.00  0.00    +0.000 C 
ATOM     22  O   UNL     1      -0.303  13.025  22.482  0.00  0.00    +0.000 OA
ATOM     23  N   UNL     1      -2.174  11.788  22.960  0.00  0.00    +0.000 N 
ATOM     24  H   UNL     1      -2.624  10.889  22.885  0.00  0.00    +0.000 HD
BRANCH  23  25
ATOM     25  C   UNL     1      -2.914  12.867  23.623  0.00  0.00    +0.000 C 
BRANCH  25  26
ATOM     26  C   UNL     1      -4.073  13.337  22.719  0.00  0.00    +0.000 C 
BRANCH  26  27
ATOM     27  N   UNL     1      -5.307  12.536  22.714  0.00  0.00    +0.000 NA
ATOM     28  C   UNL     1      -6.150  12.702  21.508  0.00  0.00    +0.000 C 
ATOM     29  C   UNL     1      -6.981  14.002  21.444  0.00  0.00    +0.000 C 
ATOM     30  O   UNL     1      -7.722  14.238  22.648  0.00  0.00    +0.000 OA
ATOM     31  C   UNL     1      -6.853  14.228  23.784  0.00  0.00    +0.000 C 
ATOM     32  C   UNL     1      -6.139  12.871  23.899  0.00  0.00    +0.000 C 
ENDBRANCH  26  27
ENDBRANCH  25  26
ENDBRANCH  23  25
ENDBRANCH   4  21
TORSDOF 6
ENDMDL
MODEL 2
REMARK VINA RESULT:      -8.1      0.469      1.011
REMARK  Name = 
REMARK  6 active torsions:
REMARK  status: ('A' for Active; 'I' for Inactive)
REMARK    1  A    between atoms: C_2  and  C_4
REMARK    2  A    between atoms: N_10  and  C_11
REMARK    3  A    between atoms: C_14  and  C_15
REMARK    4  A    between atoms: N_17  and  C_18
REMARK    5  A    between atoms: C_18  and  C_19
REMARK    6  A    between atoms: C_19  and  N_20
REMARK                            x       y       z     vdW  Elec       q    Type
REMARK                         _______ _______ _______ _____ _____    ______ ____
ROOT
ATOM      1  C   UNL     1       1.388   8.371  20.402  0.00  0.00    +0.000 A 
ATOM      2  C   UNL     1       1.095   8.474  21.769  0.00  0.00    +0.000 A 
ATOM      3  C   UNL     1       0.486   9.629  22.274  0.00  0.00    +0.000 A 
ATOM      4  C   UNL     1       0.141  10.689  21.427  0.00  0.00    +0.000 A 
ATOM      5  C   UNL     1       0.452  10.600  20.065  0.00  0.00    +0.000 A 
ATOM      6  C   UNL     1       1.078   9.449  19.555  0.00  0.00    +0.000 A 
ENDROOT
BRANCH   1  13
ATOM      7  C   UNL     1       2.791   3.719  19.954  0.00  0.00    +0.000 A 
ATOM      8  C   UNL     1       3.536   3.114  18.905  0.00  0.00    +0.000 A 
ATOM      9  C   UNL     1       4.020   3.828  17.769  0.00  0.00    +0.000 A 
ATOM     10  C   UNL     1       3.803   5.206  17.565  0.00  0.00    +0.000 A 
ATOM     11  C   UNL     1       3.075   5.765  18.610  0.00  0.00    +0.000 A 
ATOM     12  C   UNL     1       2.683   7.070  18.683  0.00  0.00    +0.000 A 
ATOM     13  N   UNL     1       1.997   7.193  19.873  0.00  0.00    +0.000 N 
ATOM     14  N   UNL     1       1.943   6.015  20.559  0.00  0.00    +0.000 NA
ATOM     15  C   UNL     1       2.574   5.105  19.786  0.00  0.00    +0.000 A 
BRANCH   7  17
ATOM     16  N   UNL     1       0.913   2.836  21.205  0.00  0.00    +0.000 N 
ATOM     17  C   UNL     1       2.267   2.924  21.078  0.00  0.00    +0.000 C 
ATOM     18  O   UNL     1       3.023   2.360  21.864  0.00  0.00    +0.000 OA
ATOM     19  H   UNL     1       0.526   2.256  21.933  0.00  0.00    +0.000 HD
ATOM     20  H   UNL     1       0.297   3.289  20.536  0.00  0.00    +0.000 HD
ENDBRANCH   7  17
ENDBRANCH   1  13
BRANCH   4  21
ATOM     21  C   UNL     1      -0.561  11.858  22.038  0.00  0.00    +0.000 C 
ATOM     22  O   UNL     1      -0.003  12.948  22.091  0.00  0.00    +0.000 OA
ATOM     23  N   UNL     1      -1.800  11.611  22.586  0.00  0.00    +0.000 N 
ATOM     24  H   UNL     1      -2.212  10.696  22.493  0.00  0.00    +0.000 HD
BRANCH  23  25
ATOM     25  C   UNL     1      -2.562  12.631  23.314  0.00  0.00    +0.000 C 
BRANCH  25  26
ATOM     26  C   UNL     1      -3.734  13.127  22.442  0.00  0.00    +0.000 C 
BRANCH  26  27
ATOM     27  N   UNL     1      -5.047  12.490  22.629  0.00  0.00    +0.000 NA
ATOM     28  C   UNL     1      -5.956  12.586  21.464  0.00  0.00    +0.000 C 
ATOM     29  C   UNL     1      -6.638  13.955  21.256  0.00  0.00    +0.000 C 
ATOM     30  O   UNL     1      -7.254  14.447  22.454  0.00  0.00    +0.000 OA
ATOM     31  C   UNL     1      -6.307  14.491  23.525  0.00  0.00    +0.000 C 
ATOM     32  C   UNL     1      -5.743  13.087  23.798  0.00  0.00    +0.000 C 
ENDBRANCH  26  27
ENDBRANCH  25  26
ENDBRANCH  23  25
ENDBRANCH   4  21
TORSDOF 6
ENDMDL
MODEL 3
REMARK VINA RESULT:      -8.1      1.786      2.531
REMARK  Name = 
REMARK  6 active torsions:
REMARK  status: ('A' for Active; 'I' for Inactive)
REMARK    1  A    between atoms: C_2  and  C_4
REMARK    2  A    between atoms: N_10  and  C_11
REMARK    3  A    between atoms: C_14  and  C_15
REMARK    4  A    between atoms: N_17  and  C_18
REMARK    5  A    between atoms: C_18  and  C_19
REMARK    6  A    between atoms: C_19  and  N_20
REMARK                            x       y       z     vdW  Elec       q    Type
REMARK                         _______ _______ _______ _____ _____    ______ ____
ROOT
ATOM      1  C   UNL     1       1.846   8.006  19.457  0.00  0.00    +0.000 A 
ATOM      2  C   UNL     1       1.845   9.012  18.481  0.00  0.00    +0.000 A 
ATOM      3  C   UNL     1       1.399  10.301  18.798  0.00  0.00    +0.000 A 
ATOM      4  C   UNL     1       0.969  10.614  20.093  0.00  0.00    +0.000 A 
ATOM      5  C   UNL     1       0.948   9.608  21.066  0.00  0.00    +0.000 A 
ATOM      6  C   UNL     1       1.380   8.308  20.749  0.00  0.00    +0.000 A 
ENDROOT
BRANCH   1  13
ATOM      7  C   UNL     1       2.797   3.240  19.897  0.00  0.00    +0.000 A 
ATOM      8  C   UNL     1       3.410   2.367  18.958  0.00  0.00    +0.000 A 
ATOM      9  C   UNL     1       3.877   2.790  17.677  0.00  0.00    +0.000 A 
ATOM     10  C   UNL     1       3.770   4.115  17.208  0.00  0.00    +0.000 A 
ATOM     11  C   UNL     1       3.168   4.940  18.152  0.00  0.00    +0.000 A 
ATOM     12  C   UNL     1       2.900   6.266  17.977  0.00  0.00    +0.000 A 
ATOM     13  N   UNL     1       2.310   6.691  19.150  0.00  0.00    +0.000 N 
ATOM     14  N   UNL     1       2.199   5.684  20.063  0.00  0.00    +0.000 NA
ATOM     15  C   UNL     1       2.693   4.580  19.461  0.00  0.00    +0.000 A 
BRANCH   7  17
ATOM     16  N   UNL     1       0.941   2.833  21.401  0.00  0.00    +0.000 N 
ATOM     17  C   UNL     1       2.283   2.740  21.184  0.00  0.00    +0.000 C 
ATOM     18  O   UNL     1       3.036   2.255  22.024  0.00  0.00    +0.000 OA
ATOM     19  H   UNL     1       0.554   2.451  22.250  0.00  0.00    +0.000 HD
ATOM     20  H   UNL     1       0.323   3.216  20.690  0.00  0.00    +0.000 HD
ENDBRANCH   7  17
ENDBRANCH   1  13
BRANCH   4  21
ATOM     21  C   UNL     1       0.569  12.029  20.362  0.00  0.00    +0.000 C 
ATOM     22  O   UNL     1       1.183  12.692  21.189  0.00  0.00    +0.000 OA
ATOM     23  N   UNL     1      -0.545  12.488  19.696  0.00  0.00    +0.000 N 
ATOM     24  H   UNL     1      -0.995  11.898  19.013  0.00  0.00    +0.000 HD
BRANCH  23  25
ATOM     25  C   UNL     1      -1.122  13.815  19.936  0.00  0.00    +0.000 C 
BRANCH  25  26
ATOM     26  C   UNL     1      -2.450  13.674  20.708  0.00  0.00    +0.000 C 
BRANCH  26  27
ATOM     27  N   UNL     1      -2.464  14.068  22.125  0.00  0.00    +0.000 NA
ATOM     28  C   UNL     1      -1.751  13.142  23.035  0.00  0.00    +0.000 C 
ATOM     29  C   UNL     1      -2.496  11.834  23.380  0.00  0.00    +0.000 C 
ATOM     30  O   UNL     1      -3.843  12.068  23.808  0.00  0.00    +0.000 OA
ATOM     31  C   UNL     1      -4.556  12.834  22.833  0.00  0.00    +0.000 C 
ATOM     32  C   UNL     1      -3.865  14.189  22.608  0.00  0.00    +0.000 C 
ENDBRANCH  26  27
ENDBRANCH  25  26
ENDBRANCH  23  25
ENDBRANCH   4  21
TORSDOF 6
ENDMDL
MODEL 4
REMARK VINA RESULT:      -8.0      1.745      2.028
REMARK  Name = 
REMARK  6 active torsions:
REMARK  status: ('A' for Active; 'I' for Inactive)
REMARK    1  A    between atoms: C_2  and  C_4
REMARK    2  A    between atoms: N_10  and  C_11
REMARK    3  A    between atoms: C_14  and  C_15
REMARK    4  A    between atoms: N_17  and  C_18
REMARK    5  A    between atoms: C_18  and  C_19
REMARK    6  A    between atoms: C_19  and  N_20
REMARK                            x       y       z     vdW  Elec       q    Type
REMARK                         _______ _______ _______ _____ _____    ______ ____
ROOT
ATOM      1  C   UNL     1       1.861   8.122  19.565  0.00  0.00    +0.000 A 
ATOM      2  C   UNL     1       1.434   9.365  19.078  0.00  0.00    +0.000 A 
ATOM      3  C   UNL     1       0.703  10.230  19.901  0.00  0.00    +0.000 A 
ATOM      4  C   UNL     1       0.403   9.883  21.223  0.00  0.00    +0.000 A 
ATOM      5  C   UNL     1       0.808   8.633  21.707  0.00  0.00    +0.000 A 
ATOM      6  C   UNL     1       1.529   7.754  20.881  0.00  0.00    +0.000 A 
ENDROOT
BRANCH   1  13
ATOM      7  C   UNL     1       3.489   4.005  17.514  0.00  0.00    +0.000 A 
ATOM      8  C   UNL     1       4.482   3.845  16.510  0.00  0.00    +0.000 A 
ATOM      9  C   UNL     1       5.199   4.936  15.931  0.00  0.00    +0.000 A 
ATOM     10  C   UNL     1       4.990   6.283  16.290  0.00  0.00    +0.000 A 
ATOM     11  C   UNL     1       4.015   6.400  17.275  0.00  0.00    +0.000 A 
ATOM     12  C   UNL     1       3.573   7.577  17.805  0.00  0.00    +0.000 A 
ATOM     13  N   UNL     1       2.619   7.236  18.740  0.00  0.00    +0.000 N 
ATOM     14  N   UNL     1       2.443   5.886  18.826  0.00  0.00    +0.000 NA
ATOM     15  C   UNL     1       3.271   5.344  17.908  0.00  0.00    +0.000 A 
BRANCH   7  17
ATOM     16  N   UNL     1       1.420   3.036  18.321  0.00  0.00    +0.000 N 
ATOM     17  C   UNL     1       2.740   2.849  18.038  0.00  0.00    +0.000 C 
ATOM     18  O   UNL     1       3.285   1.762  18.207  0.00  0.00    +0.000 OA
ATOM     19  H   UNL     1       0.869   2.250  18.632  0.00  0.00    +0.000 HD
ATOM     20  H   UNL     1       0.973   3.933  18.157  0.00  0.00    +0.000 HD
ENDBRANCH   7  17
ENDBRANCH   1  13
BRANCH   4  21
ATOM     21  C   UNL     1      -0.327  10.890  22.051  0.00  0.00    +0.000 C 
ATOM     22  O   UNL     1      -0.397  10.749  23.267  0.00  0.00    +0.000 OA
ATOM     23  N   UNL     1      -0.958  11.905  21.367  0.00  0.00    +0.000 N 
ATOM     24  H   UNL     1      -0.846  11.975  20.368  0.00  0.00    +0.000 HD
BRANCH  23  25
ATOM     25  C   UNL     1      -1.801  12.904  22.031  0.00  0.00    +0.000 C 
BRANCH  25  26
ATOM     26  C   UNL     1      -3.220  12.875  21.426  0.00  0.00    +0.000 C 
BRANCH  26  27
ATOM     27  N   UNL     1      -4.315  12.371  22.269  0.00  0.00    +0.000 NA
ATOM     28  C   UNL     1      -5.673  12.748  21.815  0.00  0.00    +0.000 C 
ATOM     29  C   UNL     1      -6.101  14.201  22.110  0.00  0.00    +0.000 C 
ATOM     30  O   UNL     1      -5.875  14.571  23.476  0.00  0.00    +0.000 OA
ATOM     31  C   UNL     1      -4.511  14.342  23.842  0.00  0.00    +0.000 C 
ATOM     32  C   UNL     1      -4.152  12.858  23.663  0.00  0.00    +0.000 C 
ENDBRANCH  26  27
ENDBRANCH  25  26
ENDBRANCH  23  25
ENDBRANCH   4  21
TORSDOF 6
ENDMDL
MODEL 5
REMARK VINA RESULT:      -7.9      1.751      2.519
REMARK  Name = 
REMARK  6 active torsions:
REMARK  status: ('A' for Active; 'I' for Inactive)
REMARK    1  A    between atoms: C_2  and  C_4
REMARK    2  A    between atoms: N_10  and  C_11
REMARK    3  A    between atoms: C_14  and  C_15
REMARK    4  A    between atoms: N_17  and  C_18
REMARK    5  A    between atoms: C_18  and  C_19
REMARK    6  A    between atoms: C_19  and  N_20
REMARK                            x       y       z     vdW  Elec       q    Type
REMARK                         _______ _______ _______ _____ _____    ______ ____
ROOT
ATOM      1  C   UNL     1       1.973   8.055  19.134  0.00  0.00    +0.000 A 
ATOM      2  C   UNL     1       1.429   8.425  20.371  0.00  0.00    +0.000 A 
ATOM      3  C   UNL     1       0.961   9.730  20.572  0.00  0.00    +0.000 A 
ATOM      4  C   UNL     1       1.006  10.676  19.543  0.00  0.00    +0.000 A 
ATOM      5  C   UNL     1       1.568  10.317  18.312  0.00  0.00    +0.000 A 
ATOM      6  C   UNL     1       2.055   9.014  18.109  0.00  0.00    +0.000 A 
ENDROOT
BRANCH   1  13
ATOM      7  C   UNL     1       2.810   3.296  19.813  0.00  0.00    +0.000 A 
ATOM      8  C   UNL     1       3.490   2.383  18.961  0.00  0.00    +0.000 A 
ATOM      9  C   UNL     1       4.073   2.756  17.713  0.00  0.00    +0.000 A 
ATOM     10  C   UNL     1       4.027   4.066  17.192  0.00  0.00    +0.000 A 
ATOM     11  C   UNL     1       3.357   4.930  18.052  0.00  0.00    +0.000 A 
ATOM     12  C   UNL     1       3.125   6.253  17.811  0.00  0.00    +0.000 A 
ATOM     13  N   UNL     1       2.442   6.725  18.912  0.00  0.00    +0.000 N 
ATOM     14  N   UNL     1       2.236   5.750  19.844  0.00  0.00    +0.000 NA
ATOM     15  C   UNL     1       2.764   4.621  19.326  0.00  0.00    +0.000 A 
BRANCH   7  17
ATOM     16  N   UNL     1       0.821   2.938  21.150  0.00  0.00    +0.000 N 
ATOM     17  C   UNL     1       2.178   2.846  21.066  0.00  0.00    +0.000 C 
ATOM     18  O   UNL     1       2.850   2.403  21.993  0.00  0.00    +0.000 OA
ATOM     19  H   UNL     1       0.356   2.589  21.975  0.00  0.00    +0.000 HD
ATOM     20  H   UNL     1       0.272   3.286  20.369  0.00  0.00    +0.000 HD
ENDBRANCH   7  17
ENDBRANCH   1  13
BRANCH   4  21
ATOM     21  C   UNL     1       0.428  12.026  19.823  0.00  0.00    +0.000 C 
ATOM     22  O   UNL     1       0.118  12.764  18.894  0.00  0.00    +0.000 OA
ATOM     23  N   UNL     1       0.347  12.396  21.146  0.00  0.00    +0.000 N 
ATOM     24  H   UNL     1       0.601  11.735  21.864  0.00  0.00    +0.000 HD
BRANCH  23  25
ATOM     25  C   UNL     1      -0.096  13.728  21.572  0.00  0.00    +0.000 C 
BRANCH  25  26
ATOM     26  C   UNL     1      -1.462  13.620  22.283  0.00  0.00    +0.000 C 
BRANCH  26  27
ATOM     27  N   UNL     1      -2.259  12.405  22.056  0.00  0.00    +0.000 NA
ATOM     28  C   UNL     1      -3.498  12.613  21.272  0.00  0.00    +0.000 C 
ATOM     29  C   UNL     1      -4.676  13.256  22.036  0.00  0.00    +0.000 C 
ATOM     30  O   UNL     1      -4.939  12.604  23.285  0.00  0.00    +0.000 OA
ATOM     31  C   UNL     1      -3.756  12.558  24.089  0.00  0.00    +0.000 C 
ATOM     32  C   UNL     1      -2.641  11.795  23.356  0.00  0.00    +0.000 C 
ENDBRANCH  26  27
ENDBRANCH  25  26
ENDBRANCH  23  25
ENDBRANCH   4  21
TORSDOF 6
ENDMDL
MODEL 6
REMARK VINA RESULT:      -7.9      2.006      2.373
REMARK  Name = 
REMARK  6 active torsions:
REMARK  status: ('A' for Active; 'I' for Inactive)
REMARK    1  A    between atoms: C_2  and  C_4
REMARK    2  A    between atoms: N_10  and  C_11
REMARK    3  A    between atoms: C_14  and  C_15
REMARK    4  A    between atoms: N_17  and  C_18
REMARK    5  A    between atoms: C_18  and  C_19
REMARK    6  A    between atoms: C_19  and  N_20
REMARK                            x       y       z     vdW  Elec       q    Type
REMARK                         _______ _______ _______ _____ _____    ______ ____
ROOT
ATOM      1  C   UNL     1       2.068   8.115  19.009  0.00  0.00    +0.000 A 
ATOM      2  C   UNL     1       1.705   9.294  18.343  0.00  0.00    +0.000 A 
ATOM      3  C   UNL     1       0.991  10.292  19.017  0.00  0.00    +0.000 A 
ATOM      4  C   UNL     1       0.647  10.144  20.365  0.00  0.00    +0.000 A 
ATOM      5  C   UNL     1       0.988   8.959  21.029  0.00  0.00    +0.000 A 
ATOM      6  C   UNL     1       1.691   7.947  20.352  0.00  0.00    +0.000 A 
ENDROOT
BRANCH   1  13
ATOM      7  C   UNL     1       3.424   3.709  17.409  0.00  0.00    +0.000 A 
ATOM      8  C   UNL     1       4.503   3.370  16.548  0.00  0.00    +0.000 A 
ATOM      9  C   UNL     1       5.410   4.331  16.006  0.00  0.00    +0.000 A 
ATOM     10  C   UNL     1       5.323   5.714  16.261  0.00  0.00    +0.000 A 
ATOM     11  C   UNL     1       4.258   6.008  17.107  0.00  0.00    +0.000 A 
ATOM     12  C   UNL     1       3.900   7.261  17.512  0.00  0.00    +0.000 A 
ATOM     13  N   UNL     1       2.807   7.095  18.336  0.00  0.00    +0.000 N 
ATOM     14  N   UNL     1       2.461   5.782  18.472  0.00  0.00    +0.000 NA
ATOM     15  C   UNL     1       3.323   5.088  17.697  0.00  0.00    +0.000 A 
BRANCH   7  17
ATOM     16  N   UNL     1       3.013   1.508  18.335  0.00  0.00    +0.000 N 
ATOM     17  C   UNL     1       2.484   2.684  17.895  0.00  0.00    +0.000 C 
ATOM     18  O   UNL     1       1.273   2.887  17.907  0.00  0.00    +0.000 OA
ATOM     19  H   UNL     1       2.399   0.808  18.722  0.00  0.00    +0.000 HD
ATOM     20  H   UNL     1       4.018   1.359  18.341  0.00  0.00    +0.000 HD
ENDBRANCH   7  17
ENDBRANCH   1  13
BRANCH   4  21
ATOM     21  C   UNL     1      -0.060  11.284  21.025  0.00  0.00    +0.000 C 
ATOM     22  O   UNL     1       0.119  12.429  20.626  0.00  0.00    +0.000 OA
ATOM     23  N   UNL     1      -0.833  10.973  22.121  0.00  0.00    +0.000 N 
ATOM     24  H   UNL     1      -0.955  10.008  22.387  0.00  0.00    +0.000 HD
BRANCH  23  25
ATOM     25  C   UNL     1      -1.500  11.995  22.935  0.00  0.00    +0.000 C 
BRANCH  25  26
ATOM     26  C   UNL     1      -2.783  12.474  22.224  0.00  0.00    +0.000 C 
BRANCH  26  27
ATOM     27  N   UNL     1      -4.057  12.342  22.948  0.00  0.00    +0.000 NA
ATOM     28  C   UNL     1      -5.205  13.031  22.314  0.00  0.00    +0.000 C 
ATOM     29  C   UNL     1      -5.249  14.564  22.492  0.00  0.00    +0.000 C 
ATOM     30  O   UNL     1      -5.079  14.962  23.858  0.00  0.00    +0.000 OA
ATOM     31  C   UNL     1      -3.875  14.407  24.398  0.00  0.00    +0.000 C 
ATOM     32  C   UNL     1      -3.917  12.872  24.329  0.00  0.00    +0.000 C 
ENDBRANCH  26  27
ENDBRANCH  25  26
ENDBRANCH  23  25
ENDBRANCH   4  21
TORSDOF 6
ENDMDL
MODEL 7
REMARK VINA RESULT:      -7.9      2.247      3.133
REMARK  Name = 
REMARK  6 active torsions:
REMARK  status: ('A' for Active; 'I' for Inactive)
REMARK    1  A    between atoms: C_2  and  C_4
REMARK    2  A    between atoms: N_10  and  C_11
REMARK    3  A    between atoms: C_14  and  C_15
REMARK    4  A    between atoms: N_17  and  C_18
REMARK    5  A    between atoms: C_18  and  C_19
REMARK    6  A    between atoms: C_19  and  N_20
REMARK                            x       y       z     vdW  Elec       q    Type
REMARK                         _______ _______ _______ _____ _____    ______ ____
ROOT
ATOM      1  C   UNL     1       1.784   7.964  19.780  0.00  0.00    +0.000 A 
ATOM      2  C   UNL     1       1.462   7.938  21.143  0.00  0.00    +0.000 A 
ATOM      3  C   UNL     1       0.878   9.057  21.750  0.00  0.00    +0.000 A 
ATOM      4  C   UNL     1       0.586  10.207  21.008  0.00  0.00    +0.000 A 
ATOM      5  C   UNL     1       0.926  10.245  19.650  0.00  0.00    +0.000 A 
ATOM      6  C   UNL     1       1.527   9.131  19.039  0.00  0.00    +0.000 A 
ENDROOT
BRANCH   1  13
ATOM      7  C   UNL     1       4.624   5.269  16.867  0.00  0.00    +0.000 A 
ATOM      8  C   UNL     1       4.699   3.854  16.762  0.00  0.00    +0.000 A 
ATOM      9  C   UNL     1       3.892   2.963  17.533  0.00  0.00    +0.000 A 
ATOM     10  C   UNL     1       2.946   3.395  18.484  0.00  0.00    +0.000 A 
ATOM     11  C   UNL     1       2.899   4.783  18.558  0.00  0.00    +0.000 A 
ATOM     12  C   UNL     1       2.103   5.497  19.406  0.00  0.00    +0.000 A 
ATOM     13  N   UNL     1       2.368   6.825  19.146  0.00  0.00    +0.000 N 
ATOM     14  N   UNL     1       3.300   6.980  18.161  0.00  0.00    +0.000 NA
ATOM     15  C   UNL     1       3.670   5.732  17.800  0.00  0.00    +0.000 A 
BRANCH   7  17
ATOM     16  N   UNL     1       6.254   7.060  16.776  0.00  0.00    +0.000 N 
ATOM     17  C   UNL     1       5.519   6.142  16.087  0.00  0.00    +0.000 C 
ATOM     18  O   UNL     1       5.601   6.040  14.867  0.00  0.00    +0.000 OA
ATOM     19  H   UNL     1       6.914   7.636  16.274  0.00  0.00    +0.000 HD
ATOM     20  H   UNL     1       6.196   7.121  17.788  0.00  0.00    +0.000 HD
ENDBRANCH   7  17
ENDBRANCH   1  13
BRANCH   4  21
ATOM     21  C   UNL     1      -0.094  11.332  21.720  0.00  0.00    +0.000 C 
ATOM     22  O   UNL     1       0.433  12.437  21.761  0.00  0.00    +0.000 OA
ATOM     23  N   UNL     1      -1.271  11.026  22.366  0.00  0.00    +0.000 N 
ATOM     24  H   UNL     1      -1.661  10.101  22.277  0.00  0.00    +0.000 HD
BRANCH  23  25
ATOM     25  C   UNL     1      -1.996  11.995  23.194  0.00  0.00    +0.000 C 
BRANCH  25  26
ATOM     26  C   UNL     1      -3.105  12.668  22.359  0.00  0.00    +0.000 C 
BRANCH  26  27
ATOM     27  N   UNL     1      -4.502  12.398  22.732  0.00  0.00    +0.000 NA
ATOM     28  C   UNL     1      -5.499  12.727  21.687  0.00  0.00    +0.000 C 
ATOM     29  C   UNL     1      -5.822  14.226  21.515  0.00  0.00    +0.000 C 
ATOM     30  O   UNL     1      -6.127  14.866  22.760  0.00  0.00    +0.000 OA
ATOM     31  C   UNL     1      -5.071  14.664  23.704  0.00  0.00    +0.000 C 
ATOM     32  C   UNL     1      -4.861  13.162  23.956  0.00  0.00    +0.000 C 
ENDBRANCH  26  27
ENDBRANCH  25  26
ENDBRANCH  23  25
ENDBRANCH   4  21
TORSDOF 6
ENDMDL
MODEL 8
REMARK VINA RESULT:      -7.9      1.137      1.780
REMARK  Name = 
REMARK  6 active torsions:
REMARK  status: ('A' for Active; 'I' for Inactive)
REMARK    1  A    between atoms: C_2  and  C_4
REMARK    2  A    between atoms: N_10  and  C_11
REMARK    3  A    between atoms: C_14  and  C_15
REMARK    4  A    between atoms: N_17  and  C_18
REMARK    5  A    between atoms: C_18  and  C_19
REMARK    6  A    between atoms: C_19  and  N_20
REMARK                            x       y       z     vdW  Elec       q    Type
REMARK                         _______ _______ _______ _____ _____    ______ ____
ROOT
ATOM      1  C   UNL     1       1.488   8.308  20.128  0.00  0.00    +0.000 A 
ATOM      2  C   UNL     1       1.122   8.492  21.468  0.00  0.00    +0.000 A 
ATOM      3  C   UNL     1       0.484   9.673  21.869  0.00  0.00    +0.000 A 
ATOM      4  C   UNL     1       0.184  10.677  20.941  0.00  0.00    +0.000 A 
ATOM      5  C   UNL     1       0.568  10.508  19.606  0.00  0.00    +0.000 A 
ATOM      6  C   UNL     1       1.222   9.331  19.201  0.00  0.00    +0.000 A 
ENDROOT
BRANCH   1  13
ATOM      7  C   UNL     1       2.891   3.636  20.018  0.00  0.00    +0.000 A 
ATOM      8  C   UNL     1       3.707   2.976  19.058  0.00  0.00    +0.000 A 
ATOM      9  C   UNL     1       4.279   3.632  17.927  0.00  0.00    +0.000 A 
ATOM     10  C   UNL     1       4.087   4.998  17.639  0.00  0.00    +0.000 A 
ATOM     11  C   UNL     1       3.287   5.611  18.598  0.00  0.00    +0.000 A 
ATOM     12  C   UNL     1       2.899   6.919  18.577  0.00  0.00    +0.000 A 
ATOM     13  N   UNL     1       2.127   7.103  19.705  0.00  0.00    +0.000 N 
ATOM     14  N   UNL     1       2.015   5.961  20.442  0.00  0.00    +0.000 NA
ATOM     15  C   UNL     1       2.696   5.012  19.765  0.00  0.00    +0.000 A 
BRANCH   7  17
ATOM     16  N   UNL     1       0.919   2.885  21.209  0.00  0.00    +0.000 N 
ATOM     17  C   UNL     1       2.280   2.899  21.137  0.00  0.00    +0.000 C 
ATOM     18  O   UNL     1       2.972   2.318  21.968  0.00  0.00    +0.000 OA
ATOM     19  H   UNL     1       0.472   2.346  21.935  0.00  0.00    +0.000 HD
ATOM     20  H   UNL     1       0.355   3.351  20.504  0.00  0.00    +0.000 HD
ENDBRANCH   7  17
ENDBRANCH   1  13
BRANCH   4  21
ATOM     21  C   UNL     1      -0.553  11.878  21.441  0.00  0.00    +0.000 C 
ATOM     22  O   UNL     1      -0.534  12.920  20.797  0.00  0.00    +0.000 OA
ATOM     23  N   UNL     1      -1.164  11.754  22.669  0.00  0.00    +0.000 N 
ATOM     24  H   UNL     1      -1.159  10.863  23.140  0.00  0.00    +0.000 HD
BRANCH  23  25
ATOM     25  C   UNL     1      -1.832  12.876  23.338  0.00  0.00    +0.000 C 
BRANCH  25  26
ATOM     26  C   UNL     1      -3.362  12.683  23.277  0.00  0.00    +0.000 C 
BRANCH  26  27
ATOM     27  N   UNL     1      -4.171  13.790  22.744  0.00  0.00    +0.000 NA
ATOM     28  C   UNL     1      -5.634  13.560  22.771  0.00  0.00    +0.000 C 
ATOM     29  C   UNL     1      -6.185  12.617  21.680  0.00  0.00    +0.000 C 
ATOM     30  O   UNL     1      -5.727  12.970  20.369  0.00  0.00    +0.000 OA
ATOM     31  C   UNL     1      -4.298  13.031  20.334  0.00  0.00    +0.000 C 
ATOM     32  C   UNL     1      -3.783  14.075  21.338  0.00  0.00    +0.000 C 
ENDBRANCH  26  27
ENDBRANCH  25  26
ENDBRANCH  23  25
ENDBRANCH   4  21
TORSDOF 6
ENDMDL
MODEL 9
REMARK VINA RESULT:      -7.8      2.287      3.216
REMARK  Name = 
REMARK  6 active torsions:
REMARK  status: ('A' for Active; 'I' for Inactive)
REMARK    1  A    between atoms: C_2  and  C_4
REMARK    2  A    between atoms: N_10  and  C_11
REMARK    3  A    between atoms: C_14  and  C_15
REMARK    4  A    between atoms: N_17  and  C_18
REMARK    5  A    between atoms: C_18  and  C_19
REMARK    6  A    between atoms: C_19  and  N_20
REMARK                            x       y       z     vdW  Elec       q    Type
REMARK                         _______ _______ _______ _____ _____    ______ ____
ROOT
ATOM      1  C   UNL     1       1.855   7.903  19.677  0.00  0.00    +0.000 A 
ATOM      2  C   UNL     1       1.599   9.063  18.934  0.00  0.00    +0.000 A 
ATOM      3  C   UNL     1       1.034  10.185  19.552  0.00  0.00    +0.000 A 
ATOM      4  C   UNL     1       0.734  10.178  20.919  0.00  0.00    +0.000 A 
ATOM      5  C   UNL     1       0.967   9.014  21.661  0.00  0.00    +0.000 A 
ATOM      6  C   UNL     1       1.520   7.880  21.042  0.00  0.00    +0.000 A 
ENDROOT
BRANCH   1  13
ATOM      7  C   UNL     1       4.699   5.173  16.802  0.00  0.00    +0.000 A 
ATOM      8  C   UNL     1       4.780   3.756  16.721  0.00  0.00    +0.000 A 
ATOM      9  C   UNL     1       3.981   2.875  17.510  0.00  0.00    +0.000 A 
ATOM     10  C   UNL     1       3.035   3.318  18.456  0.00  0.00    +0.000 A 
ATOM     11  C   UNL     1       2.982   4.707  18.506  0.00  0.00    +0.000 A 
ATOM     12  C   UNL     1       2.186   5.432  19.345  0.00  0.00    +0.000 A 
ATOM     13  N   UNL     1       2.443   6.756  19.061  0.00  0.00    +0.000 N 
ATOM     14  N   UNL     1       3.370   6.899  18.071  0.00  0.00    +0.000 NA
ATOM     15  C   UNL     1       3.745   5.647  17.730  0.00  0.00    +0.000 A 
BRANCH   7  17
ATOM     16  N   UNL     1       5.012   7.070  15.327  0.00  0.00    +0.000 N 
ATOM     17  C   UNL     1       5.587   6.036  16.004  0.00  0.00    +0.000 C 
ATOM     18  O   UNL     1       6.797   5.832  15.957  0.00  0.00    +0.000 OA
ATOM     19  H   UNL     1       5.601   7.708  14.814  0.00  0.00    +0.000 HD
ATOM     20  H   UNL     1       4.013   7.242  15.390  0.00  0.00    +0.000 HD
ENDBRANCH   7  17
ENDBRANCH   1  13
BRANCH   4  21
ATOM     21  C   UNL     1       0.191  11.439  21.511  0.00  0.00    +0.000 C 
ATOM     22  O   UNL     1       0.749  12.508  21.292  0.00  0.00    +0.000 OA
ATOM     23  N   UNL     1      -0.892  11.304  22.351  0.00  0.00    +0.000 N 
ATOM     24  H   UNL     1      -1.316  10.398  22.474  0.00  0.00    +0.000 HD
BRANCH  23  25
ATOM     25  C   UNL     1      -1.467  12.433  23.090  0.00  0.00    +0.000 C 
BRANCH  25  26
ATOM     26  C   UNL     1      -2.987  12.225  23.260  0.00  0.00    +0.000 C 
BRANCH  26  27
ATOM     27  N   UNL     1      -3.621  12.764  24.472  0.00  0.00    +0.000 NA
ATOM     28  C   UNL     1      -5.003  12.291  24.714  0.00  0.00    +0.000 C 
ATOM     29  C   UNL     1      -6.097  12.941  23.839  0.00  0.00    +0.000 C 
ATOM     30  O   UNL     1      -6.018  14.372  23.836  0.00  0.00    +0.000 OA
ATOM     31  C   UNL     1      -4.711  14.803  23.445  0.00  0.00    +0.000 C 
ATOM     32  C   UNL     1      -3.653  14.249  24.414  0.00  0.00    +0.000 C 
ENDBRANCH  26  27
ENDBRANCH  25  26
ENDBRANCH  23  25
ENDBRANCH   4  21
TORSDOF 6
ENDMDL
