MODEL 1
REMARK VINA RESULT:      -5.0      0.000      0.000
REMARK  Name = 
REMARK  17 active torsions:
REMARK  status: ('A' for Active; 'I' for Inactive)
REMARK    1  A    between atoms: C_1  and  C_2
REMARK    2  A    between atoms: C_2  and  O_3
REMARK    3  A    between atoms: O_3  and  C_4
REMARK    4  A    between atoms: C_4  and  C_5
REMARK    5  A    between atoms: C_5  and  O_6
REMARK    6  A    between atoms: O_6  and  C_7
REMARK    7  A    between atoms: C_7  and  C_8
REMARK    8  A    between atoms: C_8  and  O_9
REMARK    9  A    between atoms: O_9  and  C_10
REMARK   10  A    between atoms: C_10  and  C_11
REMARK   11  A    between atoms: C_11  and  O_12
REMARK   12  A    between atoms: O_12  and  C_13
REMARK   13  A    between atoms: C_13  and  C_15
REMARK   14  A    between atoms: C_15  and  C_16
REMARK   15  A    between atoms: C_16  and  C_17
REMARK   16  A    between atoms: C_17  and  C_19
REMARK   17  A    between atoms: C_19  and  N_20
REMARK                            x       y       z     vdW  Elec       q    Type
REMARK                         _______ _______ _______ _____ _____    ______ ____
ROOT
ATOM      1  C   UNL     1       4.418   5.758  19.384  0.00  0.00    +0.000 C 
ENDROOT
BRANCH   1   2
ATOM      2  C   UNL     1       4.047   6.417  18.067  0.00  0.00    +0.000 C 
BRANCH   2   3
ATOM      3  O   UNL     1       2.651   6.474  17.979  0.00  0.00    +0.000 OA
BRANCH   3   4
ATOM      4  C   UNL     1       2.084   5.362  18.647  0.00  0.00    +0.000 C 
BRANCH   4   5
ATOM      5  C   UNL     1       1.562   4.394  17.605  0.00  0.00    +0.000 C 
BRANCH   5   6
ATOM      6  O   UNL     1       2.505   3.352  17.431  0.00  0.00    +0.000 OA
BRANCH   6   7
ATOM      7  C   UNL     1       2.088   2.233  18.184  0.00  0.00    +0.000 C 
BRANCH   7   8
ATOM      8  C   UNL     1       3.208   1.824  19.122  0.00  0.00    +0.000 C 
BRANCH   8   9
ATOM      9  O   UNL     1       3.298   2.804  20.130  0.00  0.00    +0.000 OA
BRANCH   9  11
ATOM     10  C   UNL     1       1.415   2.839  21.565  0.00  0.00    +0.000 C 
ATOM     11  C   UNL     1       2.816   2.290  21.343  0.00  0.00    +0.000 C 
ENDBRANCH   9  11
ENDBRANCH   8   9
ENDBRANCH   7   8
ENDBRANCH   6   7
ENDBRANCH   5   6
ENDBRANCH   4   5
ENDBRANCH   3   4
ENDBRANCH   2   3
ENDBRANCH   1   2
BRANCH   1  12
ATOM     12  O   UNL     1       5.535   4.961  19.213  0.00  0.00    +0.000 OA
BRANCH  12  13
ATOM     13  C   UNL     1       6.816   5.422  19.212  0.00  0.00    +0.000 C 
ATOM     14  O   UNL     1       7.436   5.546  20.254  0.00  0.00    +0.000 OA
BRANCH  13  15
ATOM     15  C   UNL     1       7.483   5.788  17.919  0.00  0.00    +0.000 C 
BRANCH  15  16
ATOM     16  C   UNL     1       7.682   4.559  17.021  0.00  0.00    +0.000 C 
BRANCH  16  17
ATOM     17  C   UNL     1       7.056   4.733  15.656  0.00  0.00    +0.000 C 
ATOM     18  O   UNL     1       7.414   5.629  14.904  0.00  0.00    +0.000 OA
BRANCH  17  19
ATOM     19  C   UNL     1       5.983   3.789  15.209  0.00  0.00    +0.000 C 
BRANCH  19  20
ATOM     20  N   UNL     1       5.159   3.378  16.347  0.00  0.00    +0.000 NA
ATOM     21  H   UNL     1       4.323   2.848  16.009  0.00  0.00    +0.000 HD
ATOM     22  H   UNL     1       4.821   4.236  16.845  0.00  0.00    +0.000 HD
ENDBRANCH  19  20
ENDBRANCH  17  19
ENDBRANCH  16  17
ENDBRANCH  15  16
ENDBRANCH  13  15
ENDBRANCH  12  13
ENDBRANCH   1  12
TORSDOF 16
ENDMDL
MODEL 2
REMARK VINA RESULT:      -5.0      2.317      6.277
REMARK  Name = 
REMARK  17 active torsions:
REMARK  status: ('A' for Active; 'I' for Inactive)
REMARK    1  A    between atoms: C_1  and  C_2
REMARK    2  A    between atoms: C_2  and  O_3
REMARK    3  A    between atoms: O_3  and  C_4
REMARK    4  A    between atoms: C_4  and  C_5
REMARK    5  A    between atoms: C_5  and  O_6
REMARK    6  A    between atoms: O_6  and  C_7
REMARK    7  A    between atoms: C_7  and  C_8
REMARK    8  A    between atoms: C_8  and  O_9
REMARK    9  A    between atoms: O_9  and  C_10
REMARK   10  A    between atoms: C_10  and  C_11
REMARK   11  A    between atoms: C_11  and  O_12
REMARK   12  A    between atoms: O_12  and  C_13
REMARK   13  A    between atoms: C_13  and  C_15
REMARK   14  A    between atoms: C_15  and  C_16
REMARK   15  A    between atoms: C_16  and  C_17
REMARK   16  A    between atoms: C_17  and  C_19
REMARK   17  A    between atoms: C_19  and  N_20
REMARK                            x       y       z     vdW  Elec       q    Type
REMARK                         _______ _______ _______ _____ _____    ______ ____
ROOT
ATOM      1  C   UNL     1       5.142   3.957  18.647  0.00  0.00    +0.000 C 
ENDROOT
BRANCH   1   2
ATOM      2  C   UNL     1       5.759   5.086  19.456  0.00  0.00    +0.000 C 
BRANCH   2   3
ATOM      3  O   UNL     1       7.132   5.118  19.193  0.00  0.00    +0.000 OA
BRANCH   3   4
ATOM      4  C   UNL     1       7.363   4.875  17.818  0.00  0.00    +0.000 C 
BRANCH   4   5
ATOM      5  C   UNL     1       7.332   6.201  17.086  0.00  0.00    +0.000 C 
BRANCH   5   6
ATOM      6  O   UNL     1       7.397   5.960  15.692  0.00  0.00    +0.000 OA
BRANCH   6   7
ATOM      7  C   UNL     1       6.270   5.201  15.310  0.00  0.00    +0.000 C 
BRANCH   7   8
ATOM      8  C   UNL     1       6.657   4.286  14.163  0.00  0.00    +0.000 C 
BRANCH   8   9
ATOM      9  O   UNL     1       5.468   3.854  13.544  0.00  0.00    +0.000 OA
BRANCH   9  11
ATOM     10  C   UNL     1       4.463   3.264  11.482  0.00  0.00    +0.000 C 
ATOM     11  C   UNL     1       5.755   3.310  12.282  0.00  0.00    +0.000 C 
ENDBRANCH   9  11
ENDBRANCH   8   9
ENDBRANCH   7   8
ENDBRANCH   6   7
ENDBRANCH   5   6
ENDBRANCH   4   5
ENDBRANCH   3   4
ENDBRANCH   2   3
ENDBRANCH   1   2
BRANCH   1  12
ATOM     12  O   UNL     1       4.959   2.848  19.451  0.00  0.00    +0.000 OA
BRANCH  12  13
ATOM     13  C   UNL     1       3.779   2.512  20.043  0.00  0.00    +0.000 C 
ATOM     14  O   UNL     1       3.677   2.481  21.258  0.00  0.00    +0.000 OA
BRANCH  13  15
ATOM     15  C   UNL     1       2.585   2.173  19.201  0.00  0.00    +0.000 C 
BRANCH  15  16
ATOM     16  C   UNL     1       1.963   3.428  18.575  0.00  0.00    +0.000 C 
BRANCH  16  17
ATOM     17  C   UNL     1       1.557   4.451  19.612  0.00  0.00    +0.000 C 
ATOM     18  O   UNL     1       0.736   4.183  20.478  0.00  0.00    +0.000 OA
BRANCH  17  19
ATOM     19  C   UNL     1       2.173   5.815  19.586  0.00  0.00    +0.000 C 
BRANCH  19  20
ATOM     20  N   UNL     1       1.875   6.532  20.826  0.00  0.00    +0.000 NA
ATOM     21  H   UNL     1       0.946   6.228  21.200  0.00  0.00    +0.000 HD
ATOM     22  H   UNL     1       1.821   7.557  20.618  0.00  0.00    +0.000 HD
ENDBRANCH  19  20
ENDBRANCH  17  19
ENDBRANCH  16  17
ENDBRANCH  15  16
ENDBRANCH  13  15
ENDBRANCH  12  13
ENDBRANCH   1  12
TORSDOF 16
ENDMDL
MODEL 3
REMARK VINA RESULT:      -4.9      2.217      6.199
REMARK  Name = 
REMARK  17 active torsions:
REMARK  status: ('A' for Active; 'I' for Inactive)
REMARK    1  A    between atoms: C_1  and  C_2
REMARK    2  A    between atoms: C_2  and  O_3
REMARK    3  A    between atoms: O_3  and  C_4
REMARK    4  A    between atoms: C_4  and  C_5
REMARK    5  A    between atoms: C_5  and  O_6
REMARK    6  A    between atoms: O_6  and  C_7
REMARK    7  A    between atoms: C_7  and  C_8
REMARK    8  A    between atoms: C_8  and  O_9
REMARK    9  A    between atoms: O_9  and  C_10
REMARK   10  A    between atoms: C_10  and  C_11
REMARK   11  A    between atoms: C_11  and  O_12
REMARK   12  A    between atoms: O_12  and  C_13
REMARK   13  A    between atoms: C_13  and  C_15
REMARK   14  A    between atoms: C_15  and  C_16
REMARK   15  A    between atoms: C_16  and  C_17
REMARK   16  A    between atoms: C_17  and  C_19
REMARK   17  A    between atoms: C_19  and  N_20
REMARK                            x       y       z     vdW  Elec       q    Type
REMARK                         _______ _______ _______ _____ _____    ______ ____
ROOT
ATOM      1  C   UNL     1       4.161   2.584  20.265  0.00  0.00    +0.000 C 
ENDROOT
BRANCH   1   2
ATOM      2  C   UNL     1       4.656   3.290  19.014  0.00  0.00    +0.000 C 
BRANCH   2   3
ATOM      3  O   UNL     1       5.944   3.777  19.262  0.00  0.00    +0.000 OA
BRANCH   3   4
ATOM      4  C   UNL     1       6.111   5.032  18.630  0.00  0.00    +0.000 C 
BRANCH   4   5
ATOM      5  C   UNL     1       7.372   4.982  17.793  0.00  0.00    +0.000 C 
BRANCH   5   6
ATOM      6  O   UNL     1       7.059   5.358  16.464  0.00  0.00    +0.000 OA
BRANCH   6   7
ATOM      7  C   UNL     1       6.447   4.263  15.815  0.00  0.00    +0.000 C 
BRANCH   7   8
ATOM      8  C   UNL     1       6.779   4.316  14.336  0.00  0.00    +0.000 C 
BRANCH   8   9
ATOM      9  O   UNL     1       5.599   4.027  13.624  0.00  0.00    +0.000 OA
BRANCH   9  11
ATOM     10  C   UNL     1       4.628   3.230  11.616  0.00  0.00    +0.000 C 
ATOM     11  C   UNL     1       5.915   3.398  12.409  0.00  0.00    +0.000 C 
ENDBRANCH   9  11
ENDBRANCH   8   9
ENDBRANCH   7   8
ENDBRANCH   6   7
ENDBRANCH   5   6
ENDBRANCH   4   5
ENDBRANCH   3   4
ENDBRANCH   2   3
ENDBRANCH   1   2
BRANCH   1  12
ATOM     12  O   UNL     1       2.792   2.404  20.193  0.00  0.00    +0.000 OA
BRANCH  12  13
ATOM     13  C   UNL     1       1.892   3.016  21.012  0.00  0.00    +0.000 C 
ATOM     14  O   UNL     1       1.761   2.660  22.171  0.00  0.00    +0.000 OA
BRANCH  13  15
ATOM     15  C   UNL     1       1.043   4.138  20.493  0.00  0.00    +0.000 C 
BRANCH  15  16
ATOM     16  C   UNL     1       1.840   5.445  20.392  0.00  0.00    +0.000 C 
BRANCH  16  17
ATOM     17  C   UNL     1       2.234   5.774  18.970  0.00  0.00    +0.000 C 
ATOM     18  O   UNL     1       1.972   5.014  18.048  0.00  0.00    +0.000 OA
BRANCH  17  19
ATOM     19  C   UNL     1       2.950   7.056  18.678  0.00  0.00    +0.000 C 
BRANCH  19  20
ATOM     20  N   UNL     1       2.043   8.014  18.044  0.00  0.00    +0.000 NA
ATOM     21  H   UNL     1       2.581   8.849  17.714  0.00  0.00    +0.000 HD
ATOM     22  H   UNL     1       1.344   8.337  18.753  0.00  0.00    +0.000 HD
ENDBRANCH  19  20
ENDBRANCH  17  19
ENDBRANCH  16  17
ENDBRANCH  15  16
ENDBRANCH  13  15
ENDBRANCH  12  13
ENDBRANCH   1  12
TORSDOF 16
ENDMDL
MODEL 4
REMARK VINA RESULT:      -4.9      2.288      6.437
REMARK  Name = 
REMARK  17 active torsions:
REMARK  status: ('A' for Active; 'I' for Inactive)
REMARK    1  A    between atoms: C_1  and  C_2
REMARK    2  A    between atoms: C_2  and  O_3
REMARK    3  A    between atoms: O_3  and  C_4
REMARK    4  A    between atoms: C_4  and  C_5
REMARK    5  A    between atoms: C_5  and  O_6
REMARK    6  A    between atoms: O_6  and  C_7
REMARK    7  A    between atoms: C_7  and  C_8
REMARK    8  A    between atoms: C_8  and  O_9
REMARK    9  A    between atoms: O_9  and  C_10
REMARK   10  A    between atoms: C_10  and  C_11
REMARK   11  A    between atoms: C_11  and  O_12
REMARK   12  A    between atoms: O_12  and  C_13
REMARK   13  A    between atoms: C_13  and  C_15
REMARK   14  A    between atoms: C_15  and  C_16
REMARK   15  A    between atoms: C_16  and  C_17
REMARK   16  A    between atoms: C_17  and  C_19
REMARK   17  A    between atoms: C_19  and  N_20
REMARK                            x       y       z     vdW  Elec       q    Type
REMARK                         _______ _______ _______ _____ _____    ______ ____
ROOT
ATOM      1  C   UNL     1       5.026   3.609  18.797  0.00  0.00    +0.000 C 
ENDROOT
BRANCH   1   2
ATOM      2  C   UNL     1       4.959   4.944  19.519  0.00  0.00    +0.000 C 
BRANCH   2   3
ATOM      3  O   UNL     1       5.781   5.853  18.843  0.00  0.00    +0.000 OA
BRANCH   3   4
ATOM      4  C   UNL     1       6.283   5.258  17.661  0.00  0.00    +0.000 C 
BRANCH   4   5
ATOM      5  C   UNL     1       6.711   6.361  16.716  0.00  0.00    +0.000 C 
BRANCH   5   6
ATOM      6  O   UNL     1       7.194   5.781  15.518  0.00  0.00    +0.000 OA
BRANCH   6   7
ATOM      7  C   UNL     1       6.704   4.460  15.424  0.00  0.00    +0.000 C 
BRANCH   7   8
ATOM      8  C   UNL     1       5.883   4.326  14.155  0.00  0.00    +0.000 C 
BRANCH   8   9
ATOM      9  O   UNL     1       6.782   4.210  13.077  0.00  0.00    +0.000 OA
BRANCH   9  11
ATOM     10  C   UNL     1       4.905   3.288  11.965  0.00  0.00    +0.000 C 
ATOM     11  C   UNL     1       6.394   3.150  12.242  0.00  0.00    +0.000 C 
ENDBRANCH   9  11
ENDBRANCH   8   9
ENDBRANCH   7   8
ENDBRANCH   6   7
ENDBRANCH   5   6
ENDBRANCH   4   5
ENDBRANCH   3   4
ENDBRANCH   2   3
ENDBRANCH   1   2
BRANCH   1  12
ATOM     12  O   UNL     1       4.014   2.781  19.245  0.00  0.00    +0.000 OA
BRANCH  12  13
ATOM     13  C   UNL     1       3.160   2.100  18.431  0.00  0.00    +0.000 C 
ATOM     14  O   UNL     1       3.575   1.244  17.668  0.00  0.00    +0.000 OA
BRANCH  13  15
ATOM     15  C   UNL     1       1.690   2.397  18.464  0.00  0.00    +0.000 C 
BRANCH  15  16
ATOM     16  C   UNL     1       1.422   3.869  18.806  0.00  0.00    +0.000 C 
BRANCH  16  17
ATOM     17  C   UNL     1       1.263   4.097  20.291  0.00  0.00    +0.000 C 
ATOM     18  O   UNL     1       1.171   5.226  20.753  0.00  0.00    +0.000 OA
BRANCH  17  19
ATOM     19  C   UNL     1       1.207   2.922  21.218  0.00  0.00    +0.000 C 
BRANCH  19  20
ATOM     20  N   UNL     1       2.409   2.873  22.051  0.00  0.00    +0.000 NA
ATOM     21  H   UNL     1       2.470   1.947  22.535  0.00  0.00    +0.000 HD
ATOM     22  H   UNL     1       2.343   3.618  22.783  0.00  0.00    +0.000 HD
ENDBRANCH  19  20
ENDBRANCH  17  19
ENDBRANCH  16  17
ENDBRANCH  15  16
ENDBRANCH  13  15
ENDBRANCH  12  13
ENDBRANCH   1  12
TORSDOF 16
ENDMDL
MODEL 5
REMARK VINA RESULT:      -4.9      2.370      6.092
REMARK  Name = 
REMARK  17 active torsions:
REMARK  status: ('A' for Active; 'I' for Inactive)
REMARK    1  A    between atoms: C_1  and  C_2
REMARK    2  A    between atoms: C_2  and  O_3
REMARK    3  A    between atoms: O_3  and  C_4
REMARK    4  A    between atoms: C_4  and  C_5
REMARK    5  A    between atoms: C_5  and  O_6
REMARK    6  A    between atoms: O_6  and  C_7
REMARK    7  A    between atoms: C_7  and  C_8
REMARK    8  A    between atoms: C_8  and  O_9
REMARK    9  A    between atoms: O_9  and  C_10
REMARK   10  A    between atoms: C_10  and  C_11
REMARK   11  A    between atoms: C_11  and  O_12
REMARK   12  A    between atoms: O_12  and  C_13
REMARK   13  A    between atoms: C_13  and  C_15
REMARK   14  A    between atoms: C_15  and  C_16
REMARK   15  A    between atoms: C_16  and  C_17
REMARK   16  A    between atoms: C_17  and  C_19
REMARK   17  A    between atoms: C_19  and  N_20
REMARK                            x       y       z     vdW  Elec       q    Type
REMARK                         _______ _______ _______ _____ _____    ______ ____
ROOT
ATOM      1  C   UNL     1       6.019   5.176  19.360  0.00  0.00    +0.000 C 
ENDROOT
BRANCH   1   2
ATOM      2  C   UNL     1       7.430   5.341  18.821  0.00  0.00    +0.000 C 
BRANCH   2   3
ATOM      3  O   UNL     1       7.667   6.705  18.617  0.00  0.00    +0.000 OA
BRANCH   3   4
ATOM      4  C   UNL     1       7.495   7.021  17.248  0.00  0.00    +0.000 C 
BRANCH   4   5
ATOM      5  C   UNL     1       6.011   7.035  16.944  0.00  0.00    +0.000 C 
BRANCH   5   6
ATOM      6  O   UNL     1       5.807   6.571  15.621  0.00  0.00    +0.000 OA
BRANCH   6   7
ATOM      7  C   UNL     1       5.647   5.169  15.651  0.00  0.00    +0.000 C 
BRANCH   7   8
ATOM      8  C   UNL     1       6.648   4.537  14.702  0.00  0.00    +0.000 C 
BRANCH   8   9
ATOM      9  O   UNL     1       5.962   3.571  13.941  0.00  0.00    +0.000 OA
BRANCH   9  11
ATOM     10  C   UNL     1       5.299   2.931  11.759  0.00  0.00    +0.000 C 
ATOM     11  C   UNL     1       6.335   3.672  12.591  0.00  0.00    +0.000 C 
ENDBRANCH   9  11
ENDBRANCH   8   9
ENDBRANCH   7   8
ENDBRANCH   6   7
ENDBRANCH   5   6
ENDBRANCH   4   5
ENDBRANCH   3   4
ENDBRANCH   2   3
ENDBRANCH   1   2
BRANCH   1  12
ATOM     12  O   UNL     1       5.674   3.838  19.373  0.00  0.00    +0.000 OA
BRANCH  12  13
ATOM     13  C   UNL     1       4.451   3.354  19.017  0.00  0.00    +0.000 C 
ATOM     14  O   UNL     1       4.241   2.154  18.985  0.00  0.00    +0.000 OA
BRANCH  13  15
ATOM     15  C   UNL     1       3.344   4.300  18.657  0.00  0.00    +0.000 C 
BRANCH  15  16
ATOM     16  C   UNL     1       2.214   3.583  17.906  0.00  0.00    +0.000 C 
BRANCH  16  17
ATOM     17  C   UNL     1       1.084   3.168  18.821  0.00  0.00    +0.000 C 
ATOM     18  O   UNL     1       0.305   2.280  18.505  0.00  0.00    +0.000 OA
BRANCH  17  19
ATOM     19  C   UNL     1       0.917   3.849  20.145  0.00  0.00    +0.000 C 
BRANCH  19  20
ATOM     20  N   UNL     1       1.019   2.877  21.234  0.00  0.00    +0.000 NA
ATOM     21  H   UNL     1       0.213   2.210  21.193  0.00  0.00    +0.000 HD
ATOM     22  H   UNL     1       0.971   3.389  22.147  0.00  0.00    +0.000 HD
ENDBRANCH  19  20
ENDBRANCH  17  19
ENDBRANCH  16  17
ENDBRANCH  15  16
ENDBRANCH  13  15
ENDBRANCH  12  13
ENDBRANCH   1  12
TORSDOF 16
ENDMDL
MODEL 6
REMARK VINA RESULT:      -4.8      2.604      3.841
REMARK  Name = 
REMARK  17 active torsions:
REMARK  status: ('A' for Active; 'I' for Inactive)
REMARK    1  A    between atoms: C_1  and  C_2
REMARK    2  A    between atoms: C_2  and  O_3
REMARK    3  A    between atoms: O_3  and  C_4
REMARK    4  A    between atoms: C_4  and  C_5
REMARK    5  A    between atoms: C_5  and  O_6
REMARK    6  A    between atoms: O_6  and  C_7
REMARK    7  A    between atoms: C_7  and  C_8
REMARK    8  A    between atoms: C_8  and  O_9
REMARK    9  A    between atoms: O_9  and  C_10
REMARK   10  A    between atoms: C_10  and  C_11
REMARK   11  A    between atoms: C_11  and  O_12
REMARK   12  A    between atoms: O_12  and  C_13
REMARK   13  A    between atoms: C_13  and  C_15
REMARK   14  A    between atoms: C_15  and  C_16
REMARK   15  A    between atoms: C_16  and  C_17
REMARK   16  A    between atoms: C_17  and  C_19
REMARK   17  A    between atoms: C_19  and  N_20
REMARK                            x       y       z     vdW  Elec       q    Type
REMARK                         _______ _______ _______ _____ _____    ______ ____
ROOT
ATOM      1  C   UNL     1       6.300   6.559  16.234  0.00  0.00    +0.000 C 
ENDROOT
BRANCH   1   2
ATOM      2  C   UNL     1       5.359   6.252  17.387  0.00  0.00    +0.000 C 
BRANCH   2   3
ATOM      3  O   UNL     1       5.747   5.038  17.963  0.00  0.00    +0.000 OA
BRANCH   3   4
ATOM      4  C   UNL     1       5.225   4.941  19.274  0.00  0.00    +0.000 C 
BRANCH   4   5
ATOM      5  C   UNL     1       4.324   3.726  19.342  0.00  0.00    +0.000 C 
BRANCH   5   6
ATOM      6  O   UNL     1       3.251   3.895  18.433  0.00  0.00    +0.000 OA
BRANCH   6   7
ATOM      7  C   UNL     1       2.816   2.623  18.003  0.00  0.00    +0.000 C 
BRANCH   7   8
ATOM      8  C   UNL     1       1.956   2.002  19.087  0.00  0.00    +0.000 C 
BRANCH   8   9
ATOM      9  O   UNL     1       0.763   2.748  19.164  0.00  0.00    +0.000 OA
BRANCH   9  11
ATOM     10  C   UNL     1       1.412   2.684  21.441  0.00  0.00    +0.000 C 
ATOM     11  C   UNL     1       0.748   3.505  20.347  0.00  0.00    +0.000 C 
ENDBRANCH   9  11
ENDBRANCH   8   9
ENDBRANCH   7   8
ENDBRANCH   6   7
ENDBRANCH   5   6
ENDBRANCH   4   5
ENDBRANCH   3   4
ENDBRANCH   2   3
ENDBRANCH   1   2
BRANCH   1  12
ATOM     12  O   UNL     1       6.884   5.391  15.781  0.00  0.00    +0.000 OA
BRANCH  12  13
ATOM     13  C   UNL     1       7.008   5.051  14.468  0.00  0.00    +0.000 C 
ATOM     14  O   UNL     1       7.926   5.489  13.794  0.00  0.00    +0.000 OA
BRANCH  13  15
ATOM     15  C   UNL     1       6.010   4.131  13.831  0.00  0.00    +0.000 C 
BRANCH  15  16
ATOM     16  C   UNL     1       6.471   3.677  12.440  0.00  0.00    +0.000 C 
BRANCH  16  17
ATOM     17  C   UNL     1       5.434   2.833  11.734  0.00  0.00    +0.000 C 
ATOM     18  O   UNL     1       4.317   3.270  11.495  0.00  0.00    +0.000 OA
BRANCH  17  19
ATOM     19  C   UNL     1       5.779   1.439  11.310  0.00  0.00    +0.000 C 
BRANCH  19  20
ATOM     20  N   UNL     1       7.231   1.273  11.237  0.00  0.00    +0.000 NA
ATOM     21  H   UNL     1       7.541   0.537  11.913  0.00  0.00    +0.000 HD
ATOM     22  H   UNL     1       7.687   2.176  11.508  0.00  0.00    +0.000 HD
ENDBRANCH  19  20
ENDBRANCH  17  19
ENDBRANCH  16  17
ENDBRANCH  15  16
ENDBRANCH  13  15
ENDBRANCH  12  13
ENDBRANCH   1  12
TORSDOF 16
ENDMDL
MODEL 7
REMARK VINA RESULT:      -4.8      1.853      5.896
REMARK  Name = 
REMARK  17 active torsions:
REMARK  status: ('A' for Active; 'I' for Inactive)
REMARK    1  A    between atoms: C_1  and  C_2
REMARK    2  A    between atoms: C_2  and  O_3
REMARK    3  A    between atoms: O_3  and  C_4
REMARK    4  A    between atoms: C_4  and  C_5
REMARK    5  A    between atoms: C_5  and  O_6
REMARK    6  A    between atoms: O_6  and  C_7
REMARK    7  A    between atoms: C_7  and  C_8
REMARK    8  A    between atoms: C_8  and  O_9
REMARK    9  A    between atoms: O_9  and  C_10
REMARK   10  A    between atoms: C_10  and  C_11
REMARK   11  A    between atoms: C_11  and  O_12
REMARK   12  A    between atoms: O_12  and  C_13
REMARK   13  A    between atoms: C_13  and  C_15
REMARK   14  A    between atoms: C_15  and  C_16
REMARK   15  A    between atoms: C_16  and  C_17
REMARK   16  A    between atoms: C_17  and  C_19
REMARK   17  A    between atoms: C_19  and  N_20
REMARK                            x       y       z     vdW  Elec       q    Type
REMARK                         _______ _______ _______ _____ _____    ______ ____
ROOT
ATOM      1  C   UNL     1       2.810   6.137  18.315  0.00  0.00    +0.000 C 
ENDROOT
BRANCH   1   2
ATOM      2  C   UNL     1       3.874   5.412  17.509  0.00  0.00    +0.000 C 
BRANCH   2   3
ATOM      3  O   UNL     1       4.422   6.314  16.590  0.00  0.00    +0.000 OA
BRANCH   3   4
ATOM      4  C   UNL     1       5.216   5.616  15.649  0.00  0.00    +0.000 C 
BRANCH   4   5
ATOM      5  C   UNL     1       5.387   4.190  16.132  0.00  0.00    +0.000 C 
BRANCH   5   6
ATOM      6  O   UNL     1       6.766   3.926  16.315  0.00  0.00    +0.000 OA
BRANCH   6   7
ATOM      7  C   UNL     1       7.422   5.137  16.627  0.00  0.00    +0.000 C 
BRANCH   7   8
ATOM      8  C   UNL     1       7.593   5.232  18.132  0.00  0.00    +0.000 C 
BRANCH   8   9
ATOM      9  O   UNL     1       7.258   6.545  18.516  0.00  0.00    +0.000 OA
BRANCH   9  11
ATOM     10  C   UNL     1       8.280   8.647  18.140  0.00  0.00    +0.000 C 
ATOM     11  C   UNL     1       7.605   7.446  17.497  0.00  0.00    +0.000 C 
ENDBRANCH   9  11
ENDBRANCH   8   9
ENDBRANCH   7   8
ENDBRANCH   6   7
ENDBRANCH   5   6
ENDBRANCH   4   5
ENDBRANCH   3   4
ENDBRANCH   2   3
ENDBRANCH   1   2
BRANCH   1  12
ATOM     12  O   UNL     1       1.882   5.230  18.792  0.00  0.00    +0.000 OA
BRANCH  12  13
ATOM     13  C   UNL     1       1.437   4.146  18.096  0.00  0.00    +0.000 C 
ATOM     14  O   UNL     1       0.867   4.283  17.027  0.00  0.00    +0.000 OA
BRANCH  13  15
ATOM     15  C   UNL     1       1.644   2.765  18.642  0.00  0.00    +0.000 C 
BRANCH  15  16
ATOM     16  C   UNL     1       1.548   2.745  20.174  0.00  0.00    +0.000 C 
BRANCH  16  17
ATOM     17  C   UNL     1       2.901   2.618  20.836  0.00  0.00    +0.000 C 
ATOM     18  O   UNL     1       3.001   2.365  22.028  0.00  0.00    +0.000 OA
BRANCH  17  19
ATOM     19  C   UNL     1       4.143   2.794  20.019  0.00  0.00    +0.000 C 
BRANCH  19  20
ATOM     20  N   UNL     1       4.960   1.581  20.065  0.00  0.00    +0.000 NA
ATOM     21  H   UNL     1       4.709   1.013  20.908  0.00  0.00    +0.000 HD
ATOM     22  H   UNL     1       5.967   1.857  20.147  0.00  0.00    +0.000 HD
ENDBRANCH  19  20
ENDBRANCH  17  19
ENDBRANCH  16  17
ENDBRANCH  15  16
ENDBRANCH  13  15
ENDBRANCH  12  13
ENDBRANCH   1  12
TORSDOF 16
ENDMDL
MODEL 8
REMARK VINA RESULT:      -4.7      1.740      6.173
REMARK  Name = 
REMARK  17 active torsions:
REMARK  status: ('A' for Active; 'I' for Inactive)
REMARK    1  A    between atoms: C_1  and  C_2
REMARK    2  A    between atoms: C_2  and  O_3
REMARK    3  A    between atoms: O_3  and  C_4
REMARK    4  A    between atoms: C_4  and  C_5
REMARK    5  A    between atoms: C_5  and  O_6
REMARK    6  A    between atoms: O_6  and  C_7
REMARK    7  A    between atoms: C_7  and  C_8
REMARK    8  A    between atoms: C_8  and  O_9
REMARK    9  A    between atoms: O_9  and  C_10
REMARK   10  A    between atoms: C_10  and  C_11
REMARK   11  A    between atoms: C_11  and  O_12
REMARK   12  A    between atoms: O_12  and  C_13
REMARK   13  A    between atoms: C_13  and  C_15
REMARK   14  A    between atoms: C_15  and  C_16
REMARK   15  A    between atoms: C_16  and  C_17
REMARK   16  A    between atoms: C_17  and  C_19
REMARK   17  A    between atoms: C_19  and  N_20
REMARK                            x       y       z     vdW  Elec       q    Type
REMARK                         _______ _______ _______ _____ _____    ______ ____
ROOT
ATOM      1  C   UNL     1       3.197   4.011  17.039  0.00  0.00    +0.000 C 
ENDROOT
BRANCH   1   2
ATOM      2  C   UNL     1       2.654   5.281  17.673  0.00  0.00    +0.000 C 
BRANCH   2   3
ATOM      3  O   UNL     1       3.729   6.004  18.201  0.00  0.00    +0.000 OA
BRANCH   3   4
ATOM      4  C   UNL     1       4.101   7.033  17.304  0.00  0.00    +0.000 C 
BRANCH   4   5
ATOM      5  C   UNL     1       5.613   7.065  17.213  0.00  0.00    +0.000 C 
BRANCH   5   6
ATOM      6  O   UNL     1       6.152   6.180  18.178  0.00  0.00    +0.000 OA
BRANCH   6   7
ATOM      7  C   UNL     1       7.451   5.803  17.773  0.00  0.00    +0.000 C 
BRANCH   7   8
ATOM      8  C   UNL     1       7.381   4.455  17.081  0.00  0.00    +0.000 C 
BRANCH   8   9
ATOM      9  O   UNL     1       7.408   4.688  15.692  0.00  0.00    +0.000 OA
BRANCH   9  11
ATOM     10  C   UNL     1       6.529   4.091  13.575  0.00  0.00    +0.000 C 
ATOM     11  C   UNL     1       6.309   4.063  15.080  0.00  0.00    +0.000 C 
ENDBRANCH   9  11
ENDBRANCH   8   9
ENDBRANCH   7   8
ENDBRANCH   6   7
ENDBRANCH   5   6
ENDBRANCH   4   5
ENDBRANCH   3   4
ENDBRANCH   2   3
ENDBRANCH   1   2
BRANCH   1  12
ATOM     12  O   UNL     1       2.305   2.972  17.232  0.00  0.00    +0.000 OA
BRANCH  12  13
ATOM     13  C   UNL     1       2.259   2.194  18.349  0.00  0.00    +0.000 C 
ATOM     14  O   UNL     1       3.269   1.666  18.784  0.00  0.00    +0.000 OA
BRANCH  13  15
ATOM     15  C   UNL     1       0.958   1.976  19.061  0.00  0.00    +0.000 C 
BRANCH  15  16
ATOM     16  C   UNL     1       0.570   3.193  19.912  0.00  0.00    +0.000 C 
BRANCH  16  17
ATOM     17  C   UNL     1       1.440   3.340  21.139  0.00  0.00    +0.000 C 
ATOM     18  O   UNL     1       1.475   2.472  22.000  0.00  0.00    +0.000 OA
BRANCH  17  19
ATOM     19  C   UNL     1       2.283   4.567  21.304  0.00  0.00    +0.000 C 
BRANCH  19  20
ATOM     20  N   UNL     1       3.583   4.383  20.658  0.00  0.00    +0.000 NA
ATOM     21  H   UNL     1       3.610   4.909  19.754  0.00  0.00    +0.000 HD
ATOM     22  H   UNL     1       3.713   3.365  20.446  0.00  0.00    +0.000 HD
ENDBRANCH  19  20
ENDBRANCH  17  19
ENDBRANCH  16  17
ENDBRANCH  15  16
ENDBRANCH  13  15
ENDBRANCH  12  13
ENDBRANCH   1  12
TORSDOF 16
ENDMDL
MODEL 9
REMARK VINA RESULT:      -4.7      2.447      5.977
REMARK  Name = 
REMARK  17 active torsions:
REMARK  status: ('A' for Active; 'I' for Inactive)
REMARK    1  A    between atoms: C_1  and  C_2
REMARK    2  A    between atoms: C_2  and  O_3
REMARK    3  A    between atoms: O_3  and  C_4
REMARK    4  A    between atoms: C_4  and  C_5
REMARK    5  A    between atoms: C_5  and  O_6
REMARK    6  A    between atoms: O_6  and  C_7
REMARK    7  A    between atoms: C_7  and  C_8
REMARK    8  A    between atoms: C_8  and  O_9
REMARK    9  A    between atoms: O_9  and  C_10
REMARK   10  A    between atoms: C_10  and  C_11
REMARK   11  A    between atoms: C_11  and  O_12
REMARK   12  A    between atoms: O_12  and  C_13
REMARK   13  A    between atoms: C_13  and  C_15
REMARK   14  A    between atoms: C_15  and  C_16
REMARK   15  A    between atoms: C_16  and  C_17
REMARK   16  A    between atoms: C_17  and  C_19
REMARK   17  A    between atoms: C_19  and  N_20
REMARK                            x       y       z     vdW  Elec       q    Type
REMARK                         _______ _______ _______ _____ _____    ______ ____
ROOT
ATOM      1  C   UNL     1       4.998   4.924  19.461  0.00  0.00    +0.000 C 
ENDROOT
BRANCH   1   2
ATOM      2  C   UNL     1       4.273   5.995  18.665  0.00  0.00    +0.000 C 
BRANCH   2   3
ATOM      3  O   UNL     1       5.183   6.574  17.774  0.00  0.00    +0.000 OA
BRANCH   3   4
ATOM      4  C   UNL     1       4.555   6.796  16.525  0.00  0.00    +0.000 C 
BRANCH   4   5
ATOM      5  C   UNL     1       5.386   6.132  15.447  0.00  0.00    +0.000 C 
BRANCH   5   6
ATOM      6  O   UNL     1       5.713   4.817  15.860  0.00  0.00    +0.000 OA
BRANCH   6   7
ATOM      7  C   UNL     1       6.937   4.446  15.263  0.00  0.00    +0.000 C 
BRANCH   7   8
ATOM      8  C   UNL     1       6.783   4.484  13.754  0.00  0.00    +0.000 C 
BRANCH   8   9
ATOM      9  O   UNL     1       5.993   3.380  13.378  0.00  0.00    +0.000 OA
BRANCH   9  11
ATOM     10  C   UNL     1       4.467   3.219  11.575  0.00  0.00    +0.000 C 
ATOM     11  C   UNL     1       5.932   3.290  11.979  0.00  0.00    +0.000 C 
ENDBRANCH   9  11
ENDBRANCH   8   9
ENDBRANCH   7   8
ENDBRANCH   6   7
ENDBRANCH   5   6
ENDBRANCH   4   5
ENDBRANCH   3   4
ENDBRANCH   2   3
ENDBRANCH   1   2
BRANCH   1  12
ATOM     12  O   UNL     1       4.103   3.950  19.864  0.00  0.00    +0.000 OA
BRANCH  12  13
ATOM     13  C   UNL     1       4.231   2.623  19.584  0.00  0.00    +0.000 C 
ATOM     14  O   UNL     1       4.905   1.898  20.296  0.00  0.00    +0.000 OA
BRANCH  13  15
ATOM     15  C   UNL     1       3.542   2.036  18.389  0.00  0.00    +0.000 C 
BRANCH  15  16
ATOM     16  C   UNL     1       2.416   2.949  17.884  0.00  0.00    +0.000 C 
BRANCH  16  17
ATOM     17  C   UNL     1       1.160   2.831  18.716  0.00  0.00    +0.000 C 
ATOM     18  O   UNL     1       0.308   1.990  18.463  0.00  0.00    +0.000 OA
BRANCH  17  19
ATOM     19  C   UNL     1       0.953   3.753  19.877  0.00  0.00    +0.000 C 
BRANCH  19  20
ATOM     20  N   UNL     1       1.045   3.014  21.137  0.00  0.00    +0.000 NA
ATOM     21  H   UNL     1       2.047   2.917  21.422  0.00  0.00    +0.000 HD
ATOM     22  H   UNL     1       0.654   2.053  20.993  0.00  0.00    +0.000 HD
ENDBRANCH  19  20
ENDBRANCH  17  19
ENDBRANCH  16  17
ENDBRANCH  15  16
ENDBRANCH  13  15
ENDBRANCH  12  13
ENDBRANCH   1  12
TORSDOF 16
ENDMDL
