MODEL 1
REMARK VINA RESULT:      -7.7      0.000      0.000
REMARK  Name = 
REMARK  2 active torsions:
REMARK  status: ('A' for Active; 'I' for Inactive)
REMARK    1  A    between atoms: C_5  and  N_6
REMARK    2  A    between atoms: C_12  and  C_13
REMARK                            x       y       z     vdW  Elec       q    Type
REMARK                         _______ _______ _______ _____ _____    ______ ____
ROOT
ATOM      1  N   UNL     1       1.345   9.131  19.319  0.00  0.00    +0.000 N 
ATOM      2  C   UNL     1       1.771   8.298  20.456  0.00  0.00    +0.000 C 
ATOM      3  C   UNL     1       1.695   6.798  20.084  0.00  0.00    +0.000 C 
ATOM      4  N   UNL     1       2.408   6.518  18.833  0.00  0.00    +0.000 N 
ATOM      5  C   UNL     1       3.444   5.646  18.767  0.00  0.00    +0.000 A 
ATOM      6  N   UNL     1       4.435   5.732  17.905  0.00  0.00    +0.000 NA
ATOM      7  C   UNL     1       5.383   4.752  18.163  0.00  0.00    +0.000 A 
ATOM      8  N   UNL     1       5.138   3.842  19.108  0.00  0.00    +0.000 NA
ATOM      9  S   UNL     1       3.665   4.246  19.776  0.00  0.00    +0.000 S 
ATOM     10  C   UNL     1       2.100   7.397  17.693  0.00  0.00    +0.000 C 
ATOM     11  C   UNL     1       2.113   8.893  18.082  0.00  0.00    +0.000 C 
ENDROOT
BRANCH   1  16
ATOM     12  N   UNL     1      -2.722  12.899  19.739  0.00  0.00    +0.000 N 
ATOM     13  C   UNL     1      -1.740  11.921  19.628  0.00  0.00    +0.000 A 
ATOM     14  C   UNL     1      -1.725  11.057  18.549  0.00  0.00    +0.000 A 
ATOM     15  C   UNL     1      -0.698  10.115  18.449  0.00  0.00    +0.000 A 
ATOM     16  C   UNL     1       0.314  10.039  19.410  0.00  0.00    +0.000 A 
ATOM     17  C   UNL     1       0.187  10.968  20.448  0.00  0.00    +0.000 A 
ATOM     18  N   UNL     1      -0.799  11.896  20.579  0.00  0.00    +0.000 NA
ATOM     19  H   UNL     1      -3.653  12.508  19.669  0.00  0.00    +0.000 HD
ATOM     20  H   UNL     1      -2.569  13.370  20.627  0.00  0.00    +0.000 HD
ENDBRANCH   1  16
BRANCH   7  21
ATOM     21  C   UNL     1       6.715   4.786  17.462  0.00  0.00    +0.000 C 
ATOM     22  C   UNL     1       6.877   5.984  16.516  0.00  0.00    +0.000 C 
ATOM     23  C   UNL     1       7.034   7.317  17.247  0.00  0.00    +0.000 C 
ATOM     24  C   UNL     1       8.107   7.278  18.334  0.00  0.00    +0.000 C 
ATOM     25  C   UNL     1       8.036   6.055  19.245  0.00  0.00    +0.000 C 
ATOM     26  C   UNL     1       7.882   4.750  18.463  0.00  0.00    +0.000 C 
ENDBRANCH   7  21
TORSDOF 2
ENDMDL
MODEL 2
REMARK VINA RESULT:      -7.4      3.020      4.268
REMARK  Name = 
REMARK  2 active torsions:
REMARK  status: ('A' for Active; 'I' for Inactive)
REMARK    1  A    between atoms: C_5  and  N_6
REMARK    2  A    between atoms: C_12  and  C_13
REMARK                            x       y       z     vdW  Elec       q    Type
REMARK                         _______ _______ _______ _____ _____    ______ ____
ROOT
ATOM      1  N   UNL     1      -0.278  10.006  20.580  0.00  0.00    +0.000 N 
ATOM      2  C   UNL     1       0.196   9.993  19.187  0.00  0.00    +0.000 C 
ATOM      3  C   UNL     1       1.657   9.490  19.119  0.00  0.00    +0.000 C 
ATOM      4  N   UNL     1       1.819   8.213  19.821  0.00  0.00    +0.000 N 
ATOM      5  C   UNL     1       2.263   7.093  19.199  0.00  0.00    +0.000 A 
ATOM      6  N   UNL     1       1.937   5.868  19.553  0.00  0.00    +0.000 NA
ATOM      7  C   UNL     1       2.472   4.952  18.657  0.00  0.00    +0.000 A 
ATOM      8  N   UNL     1       3.282   5.384  17.690  0.00  0.00    +0.000 NA
ATOM      9  S   UNL     1       3.351   7.042  17.843  0.00  0.00    +0.000 S 
ATOM     10  C   UNL     1       1.261   8.139  21.181  0.00  0.00    +0.000 C 
ATOM     11  C   UNL     1      -0.177   8.701  21.260  0.00  0.00    +0.000 C 
ENDROOT
BRANCH   1  16
ATOM     12  N   UNL     1      -2.306  14.628  22.913  0.00  0.00    +0.000 N 
ATOM     13  C   UNL     1      -1.764  13.470  22.366  0.00  0.00    +0.000 A 
ATOM     14  C   UNL     1      -1.575  12.344  23.146  0.00  0.00    +0.000 A 
ATOM     15  C   UNL     1      -1.067  11.186  22.551  0.00  0.00    +0.000 A 
ATOM     16  C   UNL     1      -0.760  11.144  21.189  0.00  0.00    +0.000 A 
ATOM     17  C   UNL     1      -1.000  12.344  20.511  0.00  0.00    +0.000 A 
ATOM     18  N   UNL     1      -1.488  13.491  21.057  0.00  0.00    +0.000 NA
ATOM     19  H   UNL     1      -1.800  14.928  23.737  0.00  0.00    +0.000 HD
ATOM     20  H   UNL     1      -2.298  15.332  22.180  0.00  0.00    +0.000 HD
ENDBRANCH   1  16
BRANCH   7  21
ATOM     21  C   UNL     1       2.052   3.507  18.714  0.00  0.00    +0.000 C 
ATOM     22  C   UNL     1       3.218   2.541  18.971  0.00  0.00    +0.000 C 
ATOM     23  C   UNL     1       3.764   2.617  20.396  0.00  0.00    +0.000 C 
ATOM     24  C   UNL     1       2.672   2.515  21.460  0.00  0.00    +0.000 C 
ATOM     25  C   UNL     1       1.453   3.395  21.196  0.00  0.00    +0.000 C 
ATOM     26  C   UNL     1       0.947   3.279  19.758  0.00  0.00    +0.000 C 
ENDBRANCH   7  21
TORSDOF 2
ENDMDL
MODEL 3
REMARK VINA RESULT:      -7.4      3.325      4.528
REMARK  Name = 
REMARK  2 active torsions:
REMARK  status: ('A' for Active; 'I' for Inactive)
REMARK    1  A    between atoms: C_5  and  N_6
REMARK    2  A    between atoms: C_12  and  C_13
REMARK                            x       y       z     vdW  Elec       q    Type
REMARK                         _______ _______ _______ _____ _____    ______ ____
ROOT
ATOM      1  N   UNL     1      -0.298  10.374  21.443  0.00  0.00    +0.000 N 
ATOM      2  C   UNL     1      -0.192  10.117  19.997  0.00  0.00    +0.000 C 
ATOM      3  C   UNL     1       1.211   9.566  19.649  0.00  0.00    +0.000 C 
ATOM      4  N   UNL     1       1.562   8.418  20.492  0.00  0.00    +0.000 N 
ATOM      5  C   UNL     1       1.848   7.198  19.975  0.00  0.00    +0.000 A 
ATOM      6  N   UNL     1       1.639   6.059  20.598  0.00  0.00    +0.000 NA
ATOM      7  C   UNL     1       1.942   4.992  19.763  0.00  0.00    +0.000 A 
ATOM      8  N   UNL     1       2.474   5.234  18.565  0.00  0.00    +0.000 NA
ATOM      9  S   UNL     1       2.559   6.892  18.416  0.00  0.00    +0.000 S 
ATOM     10  C   UNL     1       1.367   8.587  21.941  0.00  0.00    +0.000 C 
ATOM     11  C   UNL     1      -0.011   9.197  22.284  0.00  0.00    +0.000 C 
ENDROOT
BRANCH   1  16
ATOM     12  N   UNL     1      -1.595  15.427  23.370  0.00  0.00    +0.000 N 
ATOM     13  C   UNL     1      -1.267  14.146  22.936  0.00  0.00    +0.000 A 
ATOM     14  C   UNL     1      -1.974  13.047  23.387  0.00  0.00    +0.000 A 
ATOM     15  C   UNL     1      -1.644  11.782  22.895  0.00  0.00    +0.000 A 
ATOM     16  C   UNL     1      -0.626  11.611  21.954  0.00  0.00    +0.000 A 
ATOM     17  C   UNL     1       0.009  12.799  21.577  0.00  0.00    +0.000 A 
ATOM     18  N   UNL     1      -0.282  14.046  22.036  0.00  0.00    +0.000 NA
ATOM     19  H   UNL     1      -1.612  15.488  24.381  0.00  0.00    +0.000 HD
ATOM     20  H   UNL     1      -0.915  16.060  22.958  0.00  0.00    +0.000 HD
ENDBRANCH   1  16
BRANCH   7  21
ATOM     21  C   UNL     1       1.569   3.589  20.165  0.00  0.00    +0.000 C 
ATOM     22  C   UNL     1       1.071   2.730  18.994  0.00  0.00    +0.000 C 
ATOM     23  C   UNL     1       2.177   2.340  18.015  0.00  0.00    +0.000 C 
ATOM     24  C   UNL     1       3.400   1.738  18.706  0.00  0.00    +0.000 C 
ATOM     25  C   UNL     1       3.876   2.514  19.931  0.00  0.00    +0.000 C 
ATOM     26  C   UNL     1       2.730   2.876  20.877  0.00  0.00    +0.000 C 
ENDBRANCH   7  21
TORSDOF 2
ENDMDL
MODEL 4
REMARK VINA RESULT:      -7.2      1.734      2.641
REMARK  Name = 
REMARK  2 active torsions:
REMARK  status: ('A' for Active; 'I' for Inactive)
REMARK    1  A    between atoms: C_5  and  N_6
REMARK    2  A    between atoms: C_12  and  C_13
REMARK                            x       y       z     vdW  Elec       q    Type
REMARK                         _______ _______ _______ _____ _____    ______ ____
ROOT
ATOM      1  N   UNL     1       0.727  10.030  20.734  0.00  0.00    +0.000 N 
ATOM      2  C   UNL     1       1.463   9.041  21.538  0.00  0.00    +0.000 C 
ATOM      3  C   UNL     1       1.385   7.644  20.879  0.00  0.00    +0.000 C 
ATOM      4  N   UNL     1       1.788   7.692  19.469  0.00  0.00    +0.000 N 
ATOM      5  C   UNL     1       2.824   6.965  18.985  0.00  0.00    +0.000 A 
ATOM      6  N   UNL     1       3.569   7.324  17.961  0.00  0.00    +0.000 NA
ATOM      7  C   UNL     1       4.606   6.418  17.781  0.00  0.00    +0.000 A 
ATOM      8  N   UNL     1       4.650   5.321  18.537  0.00  0.00    +0.000 NA
ATOM      9  S   UNL     1       3.364   5.426  19.591  0.00  0.00    +0.000 S 
ATOM     10  C   UNL     1       1.161   8.739  18.646  0.00  0.00    +0.000 C 
ATOM     11  C   UNL     1       1.183  10.123  19.334  0.00  0.00    +0.000 C 
ENDROOT
BRANCH   1  16
ATOM     12  N   UNL     1      -3.507  13.059  22.688  0.00  0.00    +0.000 N 
ATOM     13  C   UNL     1      -2.418  12.321  22.236  0.00  0.00    +0.000 A 
ATOM     14  C   UNL     1      -1.690  11.533  23.107  0.00  0.00    +0.000 A 
ATOM     15  C   UNL     1      -0.629  10.773  22.607  0.00  0.00    +0.000 A 
ATOM     16  C   UNL     1      -0.301  10.787  21.249  0.00  0.00    +0.000 A 
ATOM     17  C   UNL     1      -1.115  11.621  20.474  0.00  0.00    +0.000 A 
ATOM     18  N   UNL     1      -2.152  12.377  20.926  0.00  0.00    +0.000 NA
ATOM     19  H   UNL     1      -3.261  13.648  23.475  0.00  0.00    +0.000 HD
ATOM     20  H   UNL     1      -3.846  13.599  21.897  0.00  0.00    +0.000 HD
ENDBRANCH   1  16
BRANCH   7  21
ATOM     21  C   UNL     1       5.723   6.731  16.821  0.00  0.00    +0.000 C 
ATOM     22  C   UNL     1       7.081   6.162  17.257  0.00  0.00    +0.000 C 
ATOM     23  C   UNL     1       7.168   4.641  17.133  0.00  0.00    +0.000 C 
ATOM     24  C   UNL     1       6.730   4.128  15.762  0.00  0.00    +0.000 C 
ATOM     25  C   UNL     1       5.427   4.737  15.249  0.00  0.00    +0.000 C 
ATOM     26  C   UNL     1       5.394   6.259  15.395  0.00  0.00    +0.000 C 
ENDBRANCH   7  21
TORSDOF 2
ENDMDL
MODEL 5
REMARK VINA RESULT:      -7.1      2.676      4.096
REMARK  Name = 
REMARK  2 active torsions:
REMARK  status: ('A' for Active; 'I' for Inactive)
REMARK    1  A    between atoms: C_5  and  N_6
REMARK    2  A    between atoms: C_12  and  C_13
REMARK                            x       y       z     vdW  Elec       q    Type
REMARK                         _______ _______ _______ _____ _____    ______ ____
ROOT
ATOM      1  N   UNL     1      -0.252   9.788  19.666  0.00  0.00    +0.000 N 
ATOM      2  C   UNL     1       0.160   9.352  18.322  0.00  0.00    +0.000 C 
ATOM      3  C   UNL     1       1.688   9.115  18.277  0.00  0.00    +0.000 C 
ATOM      4  N   UNL     1       2.126   8.226  19.358  0.00  0.00    +0.000 N 
ATOM      5  C   UNL     1       2.757   7.050  19.121  0.00  0.00    +0.000 A 
ATOM      6  N   UNL     1       2.694   6.000  19.911  0.00  0.00    +0.000 NA
ATOM      7  C   UNL     1       3.364   4.927  19.338  0.00  0.00    +0.000 A 
ATOM      8  N   UNL     1       4.033   5.110  18.200  0.00  0.00    +0.000 NA
ATOM      9  S   UNL     1       3.780   6.697  17.758  0.00  0.00    +0.000 S 
ATOM     10  C   UNL     1       1.647   8.556  20.710  0.00  0.00    +0.000 C 
ATOM     11  C   UNL     1       0.132   8.855  20.743  0.00  0.00    +0.000 C 
ENDROOT
BRANCH   1  16
ATOM     12  N   UNL     1      -3.098  14.486  20.533  0.00  0.00    +0.000 N 
ATOM     13  C   UNL     1      -2.343  13.338  20.316  0.00  0.00    +0.000 A 
ATOM     14  C   UNL     1      -1.269  13.036  21.132  0.00  0.00    +0.000 A 
ATOM     15  C   UNL     1      -0.561  11.852  20.909  0.00  0.00    +0.000 A 
ATOM     16  C   UNL     1      -0.925  10.969  19.889  0.00  0.00    +0.000 A 
ATOM     17  C   UNL     1      -2.028  11.388  19.138  0.00  0.00    +0.000 A 
ATOM     18  N   UNL     1      -2.738  12.533  19.323  0.00  0.00    +0.000 NA
ATOM     19  H   UNL     1      -2.518  15.316  20.569  0.00  0.00    +0.000 HD
ATOM     20  H   UNL     1      -3.787  14.531  19.788  0.00  0.00    +0.000 HD
ENDBRANCH   1  16
BRANCH   7  21
ATOM     21  C   UNL     1       3.240   3.552  19.939  0.00  0.00    +0.000 C 
ATOM     22  C   UNL     1       1.966   3.363  20.776  0.00  0.00    +0.000 C 
ATOM     23  C   UNL     1       0.692   3.298  19.935  0.00  0.00    +0.000 C 
ATOM     24  C   UNL     1       0.790   2.301  18.780  0.00  0.00    +0.000 C 
ATOM     25  C   UNL     1       2.083   2.396  17.975  0.00  0.00    +0.000 C 
ATOM     26  C   UNL     1       3.325   2.455  18.865  0.00  0.00    +0.000 C 
ENDBRANCH   7  21
TORSDOF 2
ENDMDL
MODEL 6
REMARK VINA RESULT:      -7.1      2.943      4.043
REMARK  Name = 
REMARK  2 active torsions:
REMARK  status: ('A' for Active; 'I' for Inactive)
REMARK    1  A    between atoms: C_5  and  N_6
REMARK    2  A    between atoms: C_12  and  C_13
REMARK                            x       y       z     vdW  Elec       q    Type
REMARK                         _______ _______ _______ _____ _____    ______ ____
ROOT
ATOM      1  N   UNL     1       0.191  10.201  19.111  0.00  0.00    +0.000 N 
ATOM      2  C   UNL     1       0.869   9.906  17.838  0.00  0.00    +0.000 C 
ATOM      3  C   UNL     1       2.263   9.286  18.100  0.00  0.00    +0.000 C 
ATOM      4  N   UNL     1       2.178   8.143  19.014  0.00  0.00    +0.000 N 
ATOM      5  C   UNL     1       2.591   6.900  18.664  0.00  0.00    +0.000 A 
ATOM      6  N   UNL     1       2.088   5.786  19.149  0.00  0.00    +0.000 NA
ATOM      7  C   UNL     1       2.653   4.688  18.515  0.00  0.00    +0.000 A 
ATOM      8  N   UNL     1       3.643   4.879  17.642  0.00  0.00    +0.000 NA
ATOM      9  S   UNL     1       3.863   6.527  17.537  0.00  0.00    +0.000 S 
ATOM     10  C   UNL     1       1.413   8.353  20.255  0.00  0.00    +0.000 C 
ATOM     11  C   UNL     1       0.048   9.031  19.998  0.00  0.00    +0.000 C 
ENDROOT
BRANCH   1  16
ATOM     12  N   UNL     1      -1.640  15.317  20.290  0.00  0.00    +0.000 N 
ATOM     13  C   UNL     1      -1.162  14.035  20.041  0.00  0.00    +0.000 A 
ATOM     14  C   UNL     1      -1.451  12.995  20.906  0.00  0.00    +0.000 A 
ATOM     15  C   UNL     1      -0.989  11.712  20.601  0.00  0.00    +0.000 A 
ATOM     16  C   UNL     1      -0.255  11.462  19.439  0.00  0.00    +0.000 A 
ATOM     17  C   UNL     1      -0.034  12.594  18.648  0.00  0.00    +0.000 A 
ATOM     18  N   UNL     1      -0.464  13.857  18.914  0.00  0.00    +0.000 NA
ATOM     19  H   UNL     1      -1.395  15.636  21.219  0.00  0.00    +0.000 HD
ATOM     20  H   UNL     1      -1.260  15.919  19.564  0.00  0.00    +0.000 HD
ENDBRANCH   1  16
BRANCH   7  21
ATOM     21  C   UNL     1       2.079   3.313  18.730  0.00  0.00    +0.000 C 
ATOM     22  C   UNL     1       3.133   2.263  19.113  0.00  0.00    +0.000 C 
ATOM     23  C   UNL     1       3.681   2.443  20.528  0.00  0.00    +0.000 C 
ATOM     24  C   UNL     1       2.582   2.583  21.581  0.00  0.00    +0.000 C 
ATOM     25  C   UNL     1       1.465   3.553  21.200  0.00  0.00    +0.000 C 
ATOM     26  C   UNL     1       0.953   3.327  19.777  0.00  0.00    +0.000 C 
ENDBRANCH   7  21
TORSDOF 2
ENDMDL
MODEL 7
REMARK VINA RESULT:      -7.0      2.991      4.464
REMARK  Name = 
REMARK  2 active torsions:
REMARK  status: ('A' for Active; 'I' for Inactive)
REMARK    1  A    between atoms: C_5  and  N_6
REMARK    2  A    between atoms: C_12  and  C_13
REMARK                            x       y       z     vdW  Elec       q    Type
REMARK                         _______ _______ _______ _____ _____    ______ ____
ROOT
ATOM      1  N   UNL     1      -0.659  10.280  21.043  0.00  0.00    +0.000 N 
ATOM      2  C   UNL     1      -0.626   9.926  19.615  0.00  0.00    +0.000 C 
ATOM      3  C   UNL     1       0.836   9.792  19.127  0.00  0.00    +0.000 C 
ATOM      4  N   UNL     1       1.609   8.890  19.987  0.00  0.00    +0.000 N 
ATOM      5  C   UNL     1       2.206   7.768  19.515  0.00  0.00    +0.000 A 
ATOM      6  N   UNL     1       2.424   6.685  20.229  0.00  0.00    +0.000 NA
ATOM      7  C   UNL     1       2.956   5.683  19.430  0.00  0.00    +0.000 A 
ATOM      8  N   UNL     1       3.263   5.955  18.161  0.00  0.00    +0.000 NA
ATOM      9  S   UNL     1       2.814   7.538  17.900  0.00  0.00    +0.000 S 
ATOM     10  C   UNL     1       1.520   9.134  21.436  0.00  0.00    +0.000 C 
ATOM     11  C   UNL     1       0.063   9.332  21.913  0.00  0.00    +0.000 C 
ENDROOT
BRANCH   1  16
ATOM     12  N   UNL     1      -3.127  14.847  23.038  0.00  0.00    +0.000 N 
ATOM     13  C   UNL     1      -2.554  13.691  22.518  0.00  0.00    +0.000 A 
ATOM     14  C   UNL     1      -2.667  13.391  21.173  0.00  0.00    +0.000 A 
ATOM     15  C   UNL     1      -2.041  12.244  20.680  0.00  0.00    +0.000 A 
ATOM     16  C   UNL     1      -1.299  11.405  21.514  0.00  0.00    +0.000 A 
ATOM     17  C   UNL     1      -1.258  11.819  22.850  0.00  0.00    +0.000 A 
ATOM     18  N   UNL     1      -1.857  12.926  23.366  0.00  0.00    +0.000 NA
ATOM     19  H   UNL     1      -4.111  14.915  22.807  0.00  0.00    +0.000 HD
ATOM     20  H   UNL     1      -2.967  14.829  24.041  0.00  0.00    +0.000 HD
ENDBRANCH   1  16
BRANCH   7  21
ATOM     21  C   UNL     1       3.079   4.279  19.962  0.00  0.00    +0.000 C 
ATOM     22  C   UNL     1       1.922   3.871  20.885  0.00  0.00    +0.000 C 
ATOM     23  C   UNL     1       0.602   3.659  20.144  0.00  0.00    +0.000 C 
ATOM     24  C   UNL     1       0.739   2.738  18.932  0.00  0.00    +0.000 C 
ATOM     25  C   UNL     1       1.932   3.054  18.034  0.00  0.00    +0.000 C 
ATOM     26  C   UNL     1       3.225   3.254  18.825  0.00  0.00    +0.000 C 
ENDBRANCH   7  21
TORSDOF 2
ENDMDL
MODEL 8
REMARK VINA RESULT:      -7.0      2.722      4.056
REMARK  Name = 
REMARK  2 active torsions:
REMARK  status: ('A' for Active; 'I' for Inactive)
REMARK    1  A    between atoms: C_5  and  N_6
REMARK    2  A    between atoms: C_12  and  C_13
REMARK                            x       y       z     vdW  Elec       q    Type
REMARK                         _______ _______ _______ _____ _____    ______ ____
ROOT
ATOM      1  N   UNL     1      -0.469  10.016  19.734  0.00  0.00    +0.000 N 
ATOM      2  C   UNL     1      -0.093   9.580  18.380  0.00  0.00    +0.000 C 
ATOM      3  C   UNL     1       1.439   9.386  18.282  0.00  0.00    +0.000 C 
ATOM      4  N   UNL     1       1.940   8.519  19.353  0.00  0.00    +0.000 N 
ATOM      5  C   UNL     1       2.595   7.359  19.103  0.00  0.00    +0.000 A 
ATOM      6  N   UNL     1       2.590   6.315  19.903  0.00  0.00    +0.000 NA
ATOM      7  C   UNL     1       3.269   5.256  19.315  0.00  0.00    +0.000 A 
ATOM      8  N   UNL     1       3.892   5.448  18.151  0.00  0.00    +0.000 NA
ATOM      9  S   UNL     1       3.579   7.024  17.707  0.00  0.00    +0.000 S 
ATOM     10  C   UNL     1       1.500   8.847  20.719  0.00  0.00    +0.000 C 
ATOM     11  C   UNL     1      -0.021   9.104  20.804  0.00  0.00    +0.000 C 
ENDROOT
BRANCH   1  16
ATOM     12  N   UNL     1      -3.154  14.787  20.710  0.00  0.00    +0.000 N 
ATOM     13  C   UNL     1      -2.526  13.569  20.473  0.00  0.00    +0.000 A 
ATOM     14  C   UNL     1      -3.025  12.691  19.528  0.00  0.00    +0.000 A 
ATOM     15  C   UNL     1      -2.343  11.496  19.287  0.00  0.00    +0.000 A 
ATOM     16  C   UNL     1      -1.167  11.180  19.972  0.00  0.00    +0.000 A 
ATOM     17  C   UNL     1      -0.766  12.149  20.897  0.00  0.00    +0.000 A 
ATOM     18  N   UNL     1      -1.406  13.321  21.161  0.00  0.00    +0.000 NA
ATOM     19  H   UNL     1      -4.139  14.669  20.916  0.00  0.00    +0.000 HD
ATOM     20  H   UNL     1      -2.653  15.232  21.474  0.00  0.00    +0.000 HD
ENDBRANCH   1  16
BRANCH   7  21
ATOM     21  C   UNL     1       3.206   3.883  19.930  0.00  0.00    +0.000 C 
ATOM     22  C   UNL     1       1.962   3.661  20.803  0.00  0.00    +0.000 C 
ATOM     23  C   UNL     1       0.669   3.548  19.997  0.00  0.00    +0.000 C 
ATOM     24  C   UNL     1       0.767   2.544  18.849  0.00  0.00    +0.000 C 
ATOM     25  C   UNL     1       2.035   2.672  18.007  0.00  0.00    +0.000 C 
ATOM     26  C   UNL     1       3.298   2.780  18.863  0.00  0.00    +0.000 C 
ENDBRANCH   7  21
TORSDOF 2
ENDMDL
MODEL 9
REMARK VINA RESULT:      -6.9      2.929      4.592
REMARK  Name = 
REMARK  2 active torsions:
REMARK  status: ('A' for Active; 'I' for Inactive)
REMARK    1  A    between atoms: C_5  and  N_6
REMARK    2  A    between atoms: C_12  and  C_13
REMARK                            x       y       z     vdW  Elec       q    Type
REMARK                         _______ _______ _______ _____ _____    ______ ____
ROOT
ATOM      1  N   UNL     1      -0.760  10.779  21.788  0.00  0.00    +0.000 N 
ATOM      2  C   UNL     1      -0.644  10.686  20.323  0.00  0.00    +0.000 C 
ATOM      3  C   UNL     1       0.808  10.338  19.918  0.00  0.00    +0.000 C 
ATOM      4  N   UNL     1       1.297   9.156  20.635  0.00  0.00    +0.000 N 
ATOM      5  C   UNL     1       1.713   8.037  19.993  0.00  0.00    +0.000 A 
ATOM      6  N   UNL     1       1.641   6.823  20.494  0.00  0.00    +0.000 NA
ATOM      7  C   UNL     1       2.052   5.889  19.552  0.00  0.00    +0.000 A 
ATOM      8  N   UNL     1       2.538   6.313  18.385  0.00  0.00    +0.000 NA
ATOM      9  S   UNL     1       2.433   7.976  18.410  0.00  0.00    +0.000 S 
ATOM     10  C   UNL     1       1.103   9.150  22.094  0.00  0.00    +0.000 C 
ATOM     11  C   UNL     1      -0.330   9.561  22.501  0.00  0.00    +0.000 C 
ENDROOT
BRANCH   1  16
ATOM     12  N   UNL     1      -2.559  15.430  24.248  0.00  0.00    +0.000 N 
ATOM     13  C   UNL     1      -2.115  14.242  23.676  0.00  0.00    +0.000 A 
ATOM     14  C   UNL     1      -2.866  13.086  23.779  0.00  0.00    +0.000 A 
ATOM     15  C   UNL     1      -2.409  11.923  23.156  0.00  0.00    +0.000 A 
ATOM     16  C   UNL     1      -1.218  11.910  22.426  0.00  0.00    +0.000 A 
ATOM     17  C   UNL     1      -0.553  13.141  22.395  0.00  0.00    +0.000 A 
ATOM     18  N   UNL     1      -0.967  14.292  22.992  0.00  0.00    +0.000 NA
ATOM     19  H   UNL     1      -2.781  15.315  25.229  0.00  0.00    +0.000 HD
ATOM     20  H   UNL     1      -1.828  16.120  24.097  0.00  0.00    +0.000 HD
ENDBRANCH   1  16
BRANCH   7  21
ATOM     21  C   UNL     1       1.845   4.420  19.805  0.00  0.00    +0.000 C 
ATOM     22  C   UNL     1       1.365   3.648  18.567  0.00  0.00    +0.000 C 
ATOM     23  C   UNL     1       2.444   3.487  17.497  0.00  0.00    +0.000 C 
ATOM     24  C   UNL     1       3.760   2.945  18.053  0.00  0.00    +0.000 C 
ATOM     25  C   UNL     1       4.229   3.626  19.336  0.00  0.00    +0.000 C 
ATOM     26  C   UNL     1       3.112   3.758  20.372  0.00  0.00    +0.000 C 
ENDBRANCH   7  21
TORSDOF 2
ENDMDL
