MODEL 1
REMARK VINA RESULT:      -8.3      0.000      0.000
REMARK  Name = 
REMARK  5 active torsions:
REMARK  status: ('A' for Active; 'I' for Inactive)
REMARK    1  A    between atoms: C_1  and  C_2
REMARK    2  A    between atoms: C_6  and  N_7
REMARK    3  A    between atoms: C_8  and  C_10
REMARK    4  A    between atoms: C_10  and  N_11
REMARK    5  A    between atoms: C_22  and  C_23
REMARK                            x       y       z     vdW  Elec       q    Type
REMARK                         _______ _______ _______ _____ _____    ______ ____
ROOT
ATOM      1  N   UNL     1       2.989   6.304  19.919  0.00  0.00    +0.000 N 
ATOM      2  C   UNL     1       2.644   4.967  19.715  0.00  0.00    +0.000 C 
ATOM      3  O   UNL     1       1.504   4.508  19.766  0.00  0.00    +0.000 OA
ATOM      4  H   UNL     1       3.978   6.487  20.054  0.00  0.00    +0.000 HD
ENDROOT
BRANCH   1  10
ATOM      5  C   UNL     1       0.774  10.515  18.194  0.00  0.00    +0.000 C 
ATOM      6  C   UNL     1       0.987   9.440  19.232  0.00  0.00    +0.000 A 
ATOM      7  C   UNL     1       0.273   9.546  20.435  0.00  0.00    +0.000 A 
ATOM      8  C   UNL     1       0.437   8.600  21.425  0.00  0.00    +0.000 A 
ATOM      9  C   UNL     1       1.328   7.539  21.243  0.00  0.00    +0.000 A 
ATOM     10  C   UNL     1       2.083   7.401  20.065  0.00  0.00    +0.000 A 
ATOM     11  C   UNL     1       1.898   8.358  19.032  0.00  0.00    +0.000 A 
ATOM     12  C   UNL     1       2.661   8.321  17.729  0.00  0.00    +0.000 C 
ENDBRANCH   1  10
BRANCH   2  13
ATOM     13  C   UNL     1       3.833   4.025  19.435  0.00  0.00    +0.000 C 
BRANCH  13  14
ATOM     14  N   UNL     1       4.575   4.319  18.207  0.00  0.00    +0.000 N 
ATOM     15  C   UNL     1       3.966   3.988  17.000  0.00  0.00    +0.000 C 
ATOM     16  O   UNL     1       2.857   3.450  16.940  0.00  0.00    +0.000 OA
ATOM     17  C   UNL     1       4.786   4.237  15.758  0.00  0.00    +0.000 C 
ATOM     18  C   UNL     1       5.384   5.630  15.812  0.00  0.00    +0.000 C 
ATOM     19  C   UNL     1       6.167   5.791  17.082  0.00  0.00    +0.000 A 
ATOM     20  C   UNL     1       7.223   6.718  17.140  0.00  0.00    +0.000 A 
ATOM     21  C   UNL     1       7.947   6.876  18.318  0.00  0.00    +0.000 A 
ATOM     22  C   UNL     1       7.663   6.071  19.417  0.00  0.00    +0.000 A 
ATOM     23  C   UNL     1       6.595   5.172  19.373  0.00  0.00    +0.000 A 
ATOM     24  C   UNL     1       5.785   5.078  18.236  0.00  0.00    +0.000 A 
ENDBRANCH  13  14
ENDBRANCH   2  13
TORSDOF 3
ENDMDL
MODEL 2
REMARK VINA RESULT:      -7.7      1.435      2.688
REMARK  Name = 
REMARK  5 active torsions:
REMARK  status: ('A' for Active; 'I' for Inactive)
REMARK    1  A    between atoms: C_1  and  C_2
REMARK    2  A    between atoms: C_6  and  N_7
REMARK    3  A    between atoms: C_8  and  C_10
REMARK    4  A    between atoms: C_10  and  N_11
REMARK    5  A    between atoms: C_22  and  C_23
REMARK                            x       y       z     vdW  Elec       q    Type
REMARK                         _______ _______ _______ _____ _____    ______ ____
ROOT
ATOM      1  N   UNL     1       2.525   6.846  20.235  0.00  0.00    +0.000 N 
ATOM      2  C   UNL     1       1.927   5.611  20.493  0.00  0.00    +0.000 C 
ATOM      3  O   UNL     1       0.721   5.377  20.437  0.00  0.00    +0.000 OA
ATOM      4  H   UNL     1       3.493   6.934  20.527  0.00  0.00    +0.000 HD
ENDROOT
BRANCH   1  10
ATOM      5  C   UNL     1      -0.328  10.990  20.788  0.00  0.00    +0.000 C 
ATOM      6  C   UNL     1       0.506  10.034  19.969  0.00  0.00    +0.000 A 
ATOM      7  C   UNL     1       0.622  10.286  18.593  0.00  0.00    +0.000 A 
ATOM      8  C   UNL     1       1.360   9.441  17.793  0.00  0.00    +0.000 A 
ATOM      9  C   UNL     1       1.983   8.317  18.344  0.00  0.00    +0.000 A 
ATOM     10  C   UNL     1       1.878   8.009  19.711  0.00  0.00    +0.000 A 
ATOM     11  C   UNL     1       1.141   8.891  20.545  0.00  0.00    +0.000 A 
ATOM     12  C   UNL     1       0.948   8.658  22.024  0.00  0.00    +0.000 C 
ENDBRANCH   1  10
BRANCH   2  13
ATOM     13  C   UNL     1       2.903   4.491  20.909  0.00  0.00    +0.000 C 
BRANCH  13  14
ATOM     14  N   UNL     1       3.375   3.648  19.808  0.00  0.00    +0.000 N 
ATOM     15  C   UNL     1       2.668   2.477  19.551  0.00  0.00    +0.000 C 
ATOM     16  O   UNL     1       1.691   2.131  20.221  0.00  0.00    +0.000 OA
ATOM     17  C   UNL     1       3.223   1.598  18.459  0.00  0.00    +0.000 C 
ATOM     18  C   UNL     1       3.534   2.437  17.235  0.00  0.00    +0.000 C 
ATOM     19  C   UNL     1       4.454   3.560  17.617  0.00  0.00    +0.000 A 
ATOM     20  C   UNL     1       5.302   4.130  16.651  0.00  0.00    +0.000 A 
ATOM     21  C   UNL     1       6.152   5.176  17.000  0.00  0.00    +0.000 A 
ATOM     22  C   UNL     1       6.203   5.614  18.319  0.00  0.00    +0.000 A 
ATOM     23  C   UNL     1       5.341   5.071  19.274  0.00  0.00    +0.000 A 
ATOM     24  C   UNL     1       4.401   4.096  18.920  0.00  0.00    +0.000 A 
ENDBRANCH  13  14
ENDBRANCH   2  13
TORSDOF 3
ENDMDL
MODEL 3
REMARK VINA RESULT:      -7.6      1.343      2.035
REMARK  Name = 
REMARK  5 active torsions:
REMARK  status: ('A' for Active; 'I' for Inactive)
REMARK    1  A    between atoms: C_1  and  C_2
REMARK    2  A    between atoms: C_6  and  N_7
REMARK    3  A    between atoms: C_8  and  C_10
REMARK    4  A    between atoms: C_10  and  N_11
REMARK    5  A    between atoms: C_22  and  C_23
REMARK                            x       y       z     vdW  Elec       q    Type
REMARK                         _______ _______ _______ _____ _____    ______ ____
ROOT
ATOM      1  N   UNL     1       2.302   6.623  20.768  0.00  0.00    +0.000 N 
ATOM      2  C   UNL     1       1.806   5.322  20.666  0.00  0.00    +0.000 C 
ATOM      3  O   UNL     1       0.622   5.018  20.524  0.00  0.00    +0.000 OA
ATOM      4  H   UNL     1       3.260   6.702  21.092  0.00  0.00    +0.000 HD
ENDROOT
BRANCH   1  10
ATOM      5  C   UNL     1       0.890  10.568  17.929  0.00  0.00    +0.000 C 
ATOM      6  C   UNL     1       0.856   9.744  19.194  0.00  0.00    +0.000 A 
ATOM      7  C   UNL     1       0.072  10.217  20.258  0.00  0.00    +0.000 A 
ATOM      8  C   UNL     1       0.013   9.513  21.442  0.00  0.00    +0.000 A 
ATOM      9  C   UNL     1       0.746   8.334  21.596  0.00  0.00    +0.000 A 
ATOM     10  C   UNL     1       1.562   7.830  20.569  0.00  0.00    +0.000 A 
ATOM     11  C   UNL     1       1.606   8.537  19.338  0.00  0.00    +0.000 A 
ATOM     12  C   UNL     1       2.456   8.101  18.168  0.00  0.00    +0.000 C 
ENDBRANCH   1  10
BRANCH   2  13
ATOM     13  C   UNL     1       2.869   4.210  20.778  0.00  0.00    +0.000 C 
BRANCH  13  14
ATOM     14  N   UNL     1       3.281   3.622  19.501  0.00  0.00    +0.000 N 
ATOM     15  C   UNL     1       2.603   2.483  19.075  0.00  0.00    +0.000 C 
ATOM     16  O   UNL     1       1.703   1.960  19.736  0.00  0.00    +0.000 OA
ATOM     17  C   UNL     1       3.099   1.862  17.793  0.00  0.00    +0.000 C 
ATOM     18  C   UNL     1       3.270   2.937  16.737  0.00  0.00    +0.000 C 
ATOM     19  C   UNL     1       4.171   4.017  17.261  0.00  0.00    +0.000 A 
ATOM     20  C   UNL     1       4.909   4.809  16.364  0.00  0.00    +0.000 A 
ATOM     21  C   UNL     1       5.741   5.816  16.845  0.00  0.00    +0.000 A 
ATOM     22  C   UNL     1       5.887   5.996  18.217  0.00  0.00    +0.000 A 
ATOM     23  C   UNL     1       5.132   5.231  19.109  0.00  0.00    +0.000 A 
ATOM     24  C   UNL     1       4.207   4.290  18.643  0.00  0.00    +0.000 A 
ENDBRANCH  13  14
ENDBRANCH   2  13
TORSDOF 3
ENDMDL
MODEL 4
REMARK VINA RESULT:      -7.3      0.596      1.657
REMARK  Name = 
REMARK  5 active torsions:
REMARK  status: ('A' for Active; 'I' for Inactive)
REMARK    1  A    between atoms: C_1  and  C_2
REMARK    2  A    between atoms: C_6  and  N_7
REMARK    3  A    between atoms: C_8  and  C_10
REMARK    4  A    between atoms: C_10  and  N_11
REMARK    5  A    between atoms: C_22  and  C_23
REMARK                            x       y       z     vdW  Elec       q    Type
REMARK                         _______ _______ _______ _____ _____    ______ ____
ROOT
ATOM      1  N   UNL     1       2.899   6.721  19.300  0.00  0.00    +0.000 N 
ATOM      2  C   UNL     1       2.485   5.394  19.434  0.00  0.00    +0.000 C 
ATOM      3  O   UNL     1       1.324   5.021  19.600  0.00  0.00    +0.000 OA
ATOM      4  H   UNL     1       3.897   6.878  19.384  0.00  0.00    +0.000 HD
ENDROOT
BRANCH   1  10
ATOM      5  C   UNL     1      -0.179  10.228  21.260  0.00  0.00    +0.000 C 
ATOM      6  C   UNL     1       0.565   9.584  20.115  0.00  0.00    +0.000 A 
ATOM      7  C   UNL     1       0.383  10.127  18.834  0.00  0.00    +0.000 A 
ATOM      8  C   UNL     1       1.027   9.574  17.748  0.00  0.00    +0.000 A 
ATOM      9  C   UNL     1       1.853   8.458  17.914  0.00  0.00    +0.000 A 
ATOM     10  C   UNL     1       2.051   7.865  19.172  0.00  0.00    +0.000 A 
ATOM     11  C   UNL     1       1.410   8.447  20.299  0.00  0.00    +0.000 A 
ATOM     12  C   UNL     1       1.537   7.891  21.697  0.00  0.00    +0.000 C 
ENDBRANCH   1  10
BRANCH   2  13
ATOM     13  C   UNL     1       3.620   4.351  19.393  0.00  0.00    +0.000 C 
BRANCH  13  14
ATOM     14  N   UNL     1       4.471   4.415  18.203  0.00  0.00    +0.000 N 
ATOM     15  C   UNL     1       3.937   3.937  17.010  0.00  0.00    +0.000 C 
ATOM     16  O   UNL     1       2.803   3.456  16.936  0.00  0.00    +0.000 OA
ATOM     17  C   UNL     1       4.863   3.950  15.820  0.00  0.00    +0.000 C 
ATOM     18  C   UNL     1       5.545   5.301  15.718  0.00  0.00    +0.000 C 
ATOM     19  C   UNL     1       6.238   5.612  17.013  0.00  0.00    +0.000 A 
ATOM     20  C   UNL     1       7.344   6.480  17.024  0.00  0.00    +0.000 A 
ATOM     21  C   UNL     1       7.985   6.777  18.223  0.00  0.00    +0.000 A 
ATOM     22  C   UNL     1       7.566   6.165  19.401  0.00  0.00    +0.000 A 
ATOM     23  C   UNL     1       6.449   5.327  19.398  0.00  0.00    +0.000 A 
ATOM     24  C   UNL     1       5.722   5.104  18.223  0.00  0.00    +0.000 A 
ENDBRANCH  13  14
ENDBRANCH   2  13
TORSDOF 3
ENDMDL
MODEL 5
REMARK VINA RESULT:      -7.3      3.266      7.754
REMARK  Name = 
REMARK  5 active torsions:
REMARK  status: ('A' for Active; 'I' for Inactive)
REMARK    1  A    between atoms: C_1  and  C_2
REMARK    2  A    between atoms: C_6  and  N_7
REMARK    3  A    between atoms: C_8  and  C_10
REMARK    4  A    between atoms: C_10  and  N_11
REMARK    5  A    between atoms: C_22  and  C_23
REMARK                            x       y       z     vdW  Elec       q    Type
REMARK                         _______ _______ _______ _____ _____    ______ ____
ROOT
ATOM      1  N   UNL     1       2.144   6.984  20.575  0.00  0.00    +0.000 N 
ATOM      2  C   UNL     1       1.045   7.692  21.065  0.00  0.00    +0.000 C 
ATOM      3  O   UNL     1      -0.098   7.250  21.176  0.00  0.00    +0.000 OA
ATOM      4  H   UNL     1       2.959   7.542  20.347  0.00  0.00    +0.000 HD
ENDROOT
BRANCH   1  10
ATOM      5  C   UNL     1       2.591   3.159  17.290  0.00  0.00    +0.000 C 
ATOM      6  C   UNL     1       2.415   3.720  18.680  0.00  0.00    +0.000 A 
ATOM      7  C   UNL     1       2.243   2.808  19.733  0.00  0.00    +0.000 A 
ATOM      8  C   UNL     1       2.065   3.263  21.022  0.00  0.00    +0.000 A 
ATOM      9  C   UNL     1       2.038   4.635  21.287  0.00  0.00    +0.000 A 
ATOM     10  C   UNL     1       2.183   5.588  20.265  0.00  0.00    +0.000 A 
ATOM     11  C   UNL     1       2.393   5.125  18.938  0.00  0.00    +0.000 A 
ATOM     12  C   UNL     1       2.549   6.053  17.757  0.00  0.00    +0.000 C 
ENDBRANCH   1  10
BRANCH   2  13
ATOM     13  C   UNL     1       1.337   9.155  21.458  0.00  0.00    +0.000 C 
BRANCH  13  14
ATOM     14  N   UNL     1       0.148   9.981  21.677  0.00  0.00    +0.000 N 
ATOM     15  C   UNL     1      -0.245  10.197  22.995  0.00  0.00    +0.000 C 
ATOM     16  O   UNL     1       0.356   9.708  23.955  0.00  0.00    +0.000 OA
ATOM     17  C   UNL     1      -1.513  10.991  23.183  0.00  0.00    +0.000 C 
ATOM     18  C   UNL     1      -1.471  12.236  22.317  0.00  0.00    +0.000 C 
ATOM     19  C   UNL     1      -1.222  11.845  20.890  0.00  0.00    +0.000 A 
ATOM     20  C   UNL     1      -1.659  12.683  19.848  0.00  0.00    +0.000 A 
ATOM     21  C   UNL     1      -1.424  12.328  18.523  0.00  0.00    +0.000 A 
ATOM     22  C   UNL     1      -0.810  11.114  18.231  0.00  0.00    +0.000 A 
ATOM     23  C   UNL     1      -0.347  10.294  19.263  0.00  0.00    +0.000 A 
ATOM     24  C   UNL     1      -0.473  10.686  20.601  0.00  0.00    +0.000 A 
ENDBRANCH  13  14
ENDBRANCH   2  13
TORSDOF 3
ENDMDL
MODEL 6
REMARK VINA RESULT:      -7.3      1.706      3.312
REMARK  Name = 
REMARK  5 active torsions:
REMARK  status: ('A' for Active; 'I' for Inactive)
REMARK    1  A    between atoms: C_1  and  C_2
REMARK    2  A    between atoms: C_6  and  N_7
REMARK    3  A    between atoms: C_8  and  C_10
REMARK    4  A    between atoms: C_10  and  N_11
REMARK    5  A    between atoms: C_22  and  C_23
REMARK                            x       y       z     vdW  Elec       q    Type
REMARK                         _______ _______ _______ _____ _____    ______ ____
ROOT
ATOM      1  N   UNL     1       1.320   7.771  20.965  0.00  0.00    +0.000 N 
ATOM      2  C   UNL     1       2.093   7.010  20.086  0.00  0.00    +0.000 C 
ATOM      3  O   UNL     1       2.352   7.309  18.921  0.00  0.00    +0.000 OA
ATOM      4  H   UNL     1       1.023   7.297  21.811  0.00  0.00    +0.000 HD
ENDROOT
BRANCH   1  10
ATOM      5  C   UNL     1      -0.872  12.051  22.544  0.00  0.00    +0.000 C 
ATOM      6  C   UNL     1      -0.225  11.184  21.491  0.00  0.00    +0.000 A 
ATOM      7  C   UNL     1      -0.138  11.698  20.188  0.00  0.00    +0.000 A 
ATOM      8  C   UNL     1       0.431  10.947  19.182  0.00  0.00    +0.000 A 
ATOM      9  C   UNL     1       0.909   9.661  19.450  0.00  0.00    +0.000 A 
ATOM     10  C   UNL     1       0.825   9.092  20.732  0.00  0.00    +0.000 A 
ATOM     11  C   UNL     1       0.263   9.873  21.778  0.00  0.00    +0.000 A 
ATOM     12  C   UNL     1       0.108   9.365  23.192  0.00  0.00    +0.000 C 
ENDBRANCH   1  10
BRANCH   2  13
ATOM     13  C   UNL     1       2.617   5.680  20.666  0.00  0.00    +0.000 C 
BRANCH  13  14
ATOM     14  N   UNL     1       2.745   4.594  19.692  0.00  0.00    +0.000 N 
ATOM     15  C   UNL     1       1.634   3.779  19.494  0.00  0.00    +0.000 C 
ATOM     16  O   UNL     1       0.579   3.934  20.115  0.00  0.00    +0.000 OA
ATOM     17  C   UNL     1       1.822   2.627  18.539  0.00  0.00    +0.000 C 
ATOM     18  C   UNL     1       2.487   3.120  17.268  0.00  0.00    +0.000 C 
ATOM     19  C   UNL     1       3.769   3.821  17.612  0.00  0.00    +0.000 A 
ATOM     20  C   UNL     1       4.806   3.887  16.665  0.00  0.00    +0.000 A 
ATOM     21  C   UNL     1       5.994   4.542  16.977  0.00  0.00    +0.000 A 
ATOM     22  C   UNL     1       6.175   5.078  18.249  0.00  0.00    +0.000 A 
ATOM     23  C   UNL     1       5.135   5.042  19.180  0.00  0.00    +0.000 A 
ATOM     24  C   UNL     1       3.894   4.487  18.848  0.00  0.00    +0.000 A 
ENDBRANCH  13  14
ENDBRANCH   2  13
TORSDOF 3
ENDMDL
MODEL 7
REMARK VINA RESULT:      -7.1      1.427      2.597
REMARK  Name = 
REMARK  5 active torsions:
REMARK  status: ('A' for Active; 'I' for Inactive)
REMARK    1  A    between atoms: C_1  and  C_2
REMARK    2  A    between atoms: C_6  and  N_7
REMARK    3  A    between atoms: C_8  and  C_10
REMARK    4  A    between atoms: C_10  and  N_11
REMARK    5  A    between atoms: C_22  and  C_23
REMARK                            x       y       z     vdW  Elec       q    Type
REMARK                         _______ _______ _______ _____ _____    ______ ____
ROOT
ATOM      1  N   UNL     1       3.068   5.876  19.298  0.00  0.00    +0.000 N 
ATOM      2  C   UNL     1       2.609   4.680  18.740  0.00  0.00    +0.000 C 
ATOM      3  O   UNL     1       1.428   4.358  18.615  0.00  0.00    +0.000 OA
ATOM      4  H   UNL     1       4.056   5.903  19.524  0.00  0.00    +0.000 HD
ENDROOT
BRANCH   1  10
ATOM      5  C   UNL     1       1.121  10.461  18.405  0.00  0.00    +0.000 C 
ATOM      6  C   UNL     1       1.301   9.220  19.246  0.00  0.00    +0.000 A 
ATOM      7  C   UNL     1       0.665   9.183  20.496  0.00  0.00    +0.000 A 
ATOM      8  C   UNL     1       0.803   8.081  21.312  0.00  0.00    +0.000 A 
ATOM      9  C   UNL     1       1.591   7.000  20.907  0.00  0.00    +0.000 A 
ATOM     10  C   UNL     1       2.266   6.998  19.674  0.00  0.00    +0.000 A 
ATOM     11  C   UNL     1       2.105   8.120  18.818  0.00  0.00    +0.000 A 
ATOM     12  C   UNL     1       2.789   8.237  17.477  0.00  0.00    +0.000 C 
ENDBRANCH   1  10
BRANCH   2  13
ATOM     13  C   UNL     1       3.717   3.707  18.289  0.00  0.00    +0.000 C 
BRANCH  13  14
ATOM     14  N   UNL     1       5.007   4.336  17.997  0.00  0.00    +0.000 N 
ATOM     15  C   UNL     1       5.837   4.619  19.077  0.00  0.00    +0.000 C 
ATOM     16  O   UNL     1       5.516   4.377  20.243  0.00  0.00    +0.000 OA
ATOM     17  C   UNL     1       7.126   5.332  18.750  0.00  0.00    +0.000 C 
ATOM     18  C   UNL     1       7.808   4.644  17.582  0.00  0.00    +0.000 C 
ATOM     19  C   UNL     1       6.859   4.569  16.421  0.00  0.00    +0.000 A 
ATOM     20  C   UNL     1       7.363   4.493  15.110  0.00  0.00    +0.000 A 
ATOM     21  C   UNL     1       6.487   4.416  14.031  0.00  0.00    +0.000 A 
ATOM     22  C   UNL     1       5.114   4.475  14.249  0.00  0.00    +0.000 A 
ATOM     23  C   UNL     1       4.611   4.519  15.551  0.00  0.00    +0.000 A 
ATOM     24  C   UNL     1       5.472   4.484  16.654  0.00  0.00    +0.000 A 
ENDBRANCH  13  14
ENDBRANCH   2  13
TORSDOF 3
ENDMDL
MODEL 8
REMARK VINA RESULT:      -7.1      2.201      4.133
REMARK  Name = 
REMARK  5 active torsions:
REMARK  status: ('A' for Active; 'I' for Inactive)
REMARK    1  A    between atoms: C_1  and  C_2
REMARK    2  A    between atoms: C_6  and  N_7
REMARK    3  A    between atoms: C_8  and  C_10
REMARK    4  A    between atoms: C_10  and  N_11
REMARK    5  A    between atoms: C_22  and  C_23
REMARK                            x       y       z     vdW  Elec       q    Type
REMARK                         _______ _______ _______ _____ _____    ______ ____
ROOT
ATOM      1  N   UNL     1       1.638   8.391  20.122  0.00  0.00    +0.000 N 
ATOM      2  C   UNL     1       2.218   7.789  19.003  0.00  0.00    +0.000 C 
ATOM      3  O   UNL     1       1.915   8.018  17.833  0.00  0.00    +0.000 OA
ATOM      4  H   UNL     1       1.841   7.948  21.012  0.00  0.00    +0.000 HD
ENDROOT
BRANCH   1  10
ATOM      5  C   UNL     1      -1.452  11.628  22.485  0.00  0.00    +0.000 C 
ATOM      6  C   UNL     1      -0.780  11.071  21.254  0.00  0.00    +0.000 A 
ATOM      7  C   UNL     1      -1.115  11.640  20.015  0.00  0.00    +0.000 A 
ATOM      8  C   UNL     1      -0.543  11.163  18.856  0.00  0.00    +0.000 A 
ATOM      9  C   UNL     1       0.362  10.099  18.903  0.00  0.00    +0.000 A 
ATOM     10  C   UNL     1       0.713   9.481  20.116  0.00  0.00    +0.000 A 
ATOM     11  C   UNL     1       0.146   9.986  21.317  0.00  0.00    +0.000 A 
ATOM     12  C   UNL     1       0.438   9.395  22.675  0.00  0.00    +0.000 C 
ENDBRANCH   1  10
BRANCH   2  13
ATOM     13  C   UNL     1       3.301   6.737  19.319  0.00  0.00    +0.000 C 
BRANCH  13  14
ATOM     14  N   UNL     1       3.519   5.745  18.263  0.00  0.00    +0.000 N 
ATOM     15  C   UNL     1       4.552   5.988  17.363  0.00  0.00    +0.000 C 
ATOM     16  O   UNL     1       5.256   7.000  17.418  0.00  0.00    +0.000 OA
ATOM     17  C   UNL     1       4.704   4.985  16.247  0.00  0.00    +0.000 C 
ATOM     18  C   UNL     1       4.669   3.579  16.815  0.00  0.00    +0.000 C 
ATOM     19  C   UNL     1       3.413   3.392  17.614  0.00  0.00    +0.000 A 
ATOM     20  C   UNL     1       2.876   2.103  17.783  0.00  0.00    +0.000 A 
ATOM     21  C   UNL     1       1.715   1.924  18.529  0.00  0.00    +0.000 A 
ATOM     22  C   UNL     1       1.054   3.030  19.057  0.00  0.00    +0.000 A 
ATOM     23  C   UNL     1       1.602   4.307  18.918  0.00  0.00    +0.000 A 
ATOM     24  C   UNL     1       2.827   4.496  18.267  0.00  0.00    +0.000 A 
ENDBRANCH  13  14
ENDBRANCH   2  13
TORSDOF 3
ENDMDL
MODEL 9
REMARK VINA RESULT:      -7.0      2.671      7.673
REMARK  Name = 
REMARK  5 active torsions:
REMARK  status: ('A' for Active; 'I' for Inactive)
REMARK    1  A    between atoms: C_1  and  C_2
REMARK    2  A    between atoms: C_6  and  N_7
REMARK    3  A    between atoms: C_8  and  C_10
REMARK    4  A    between atoms: C_10  and  N_11
REMARK    5  A    between atoms: C_22  and  C_23
REMARK                            x       y       z     vdW  Elec       q    Type
REMARK                         _______ _______ _______ _____ _____    ______ ____
ROOT
ATOM      1  N   UNL     1       2.238   7.562  18.079  0.00  0.00    +0.000 N 
ATOM      2  C   UNL     1       1.913   8.134  19.311  0.00  0.00    +0.000 C 
ATOM      3  O   UNL     1       1.755   7.519  20.364  0.00  0.00    +0.000 OA
ATOM      4  H   UNL     1       2.125   8.166  17.272  0.00  0.00    +0.000 HD
ENDROOT
BRANCH   1  10
ATOM      5  C   UNL     1       5.555   4.007  16.676  0.00  0.00    +0.000 C 
ATOM      6  C   UNL     1       4.207   4.459  17.181  0.00  0.00    +0.000 A 
ATOM      7  C   UNL     1       3.231   3.475  17.403  0.00  0.00    +0.000 A 
ATOM      8  C   UNL     1       1.978   3.830  17.853  0.00  0.00    +0.000 A 
ATOM      9  C   UNL     1       1.664   5.174  18.075  0.00  0.00    +0.000 A 
ATOM     10  C   UNL     1       2.598   6.198  17.846  0.00  0.00    +0.000 A 
ATOM     11  C   UNL     1       3.900   5.835  17.408  0.00  0.00    +0.000 A 
ATOM     12  C   UNL     1       4.982   6.848  17.118  0.00  0.00    +0.000 C 
ENDBRANCH   1  10
BRANCH   2  13
ATOM     13  C   UNL     1       1.718   9.664  19.286  0.00  0.00    +0.000 C 
BRANCH  13  14
ATOM     14  N   UNL     1       0.460  10.133  19.871  0.00  0.00    +0.000 N 
ATOM     15  C   UNL     1       0.478  10.501  21.213  0.00  0.00    +0.000 C 
ATOM     16  O   UNL     1       1.495  10.427  21.908  0.00  0.00    +0.000 OA
ATOM     17  C   UNL     1      -0.849  10.910  21.802  0.00  0.00    +0.000 C 
ATOM     18  C   UNL     1      -1.537  11.897  20.878  0.00  0.00    +0.000 C 
ATOM     19  C   UNL     1      -1.656  11.299  19.506  0.00  0.00    +0.000 A 
ATOM     20  C   UNL     1      -2.679  11.729  18.642  0.00  0.00    +0.000 A 
ATOM     21  C   UNL     1      -2.789  11.183  17.367  0.00  0.00    +0.000 A 
ATOM     22  C   UNL     1      -1.922  10.169  16.972  0.00  0.00    +0.000 A 
ATOM     23  C   UNL     1      -0.886   9.762  17.815  0.00  0.00    +0.000 A 
ATOM     24  C   UNL     1      -0.689  10.377  19.057  0.00  0.00    +0.000 A 
ENDBRANCH  13  14
ENDBRANCH   2  13
TORSDOF 3
ENDMDL
