MODEL 1
REMARK VINA RESULT:      -7.5      0.000      0.000
REMARK  Name = 
REMARK  5 active torsions:
REMARK  status: ('A' for Active; 'I' for Inactive)
REMARK    1  A    between atoms: C_1  and  N_2
REMARK    2  A    between atoms: N_2  and  C_3
REMARK    3  A    between atoms: N_2  and  S_12
REMARK    4  A    between atoms: C_3  and  C_4
REMARK    5  A    between atoms: S_12  and  C_15
REMARK                            x       y       z     vdW  Elec       q    Type
REMARK                         _______ _______ _______ _____ _____    ______ ____
ROOT
ATOM      1  S   UNL     1       4.081   2.823  18.557  0.00  0.00    +0.000 S 
ATOM      2  O   UNL     1       4.897   2.682  19.743  0.00  0.00    +0.000 OA
ATOM      3  O   UNL     1       3.679   1.639  17.820  0.00  0.00    +0.000 OA
ENDROOT
BRANCH   1   4
ATOM      4  C   UNL     1       4.919   3.897  17.424  0.00  0.00    +0.000 A 
ATOM      5  C   UNL     1       4.568   3.837  16.062  0.00  0.00    +0.000 A 
ATOM      6  C   UNL     1       5.210   4.658  15.147  0.00  0.00    +0.000 A 
ATOM      7  C   UNL     1       6.198   5.530  15.592  0.00  0.00    +0.000 A 
ATOM      8  C   UNL     1       6.549   5.582  16.953  0.00  0.00    +0.000 A 
ATOM      9  C   UNL     1       7.545   6.468  17.388  0.00  0.00    +0.000 A 
ATOM     10  C   UNL     1       7.897   6.514  18.728  0.00  0.00    +0.000 A 
ATOM     11  C   UNL     1       7.241   5.667  19.592  0.00  0.00    +0.000 A 
ATOM     12  N   UNL     1       6.267   4.814  19.210  0.00  0.00    +0.000 NA
ATOM     13  C   UNL     1       5.913   4.752  17.905  0.00  0.00    +0.000 A 
ENDBRANCH   1   4
BRANCH   1  15
ATOM     14  C   UNL     1       1.427   2.778  18.984  0.00  0.00    +0.000 C 
ATOM     15  N   UNL     1       2.630   3.645  18.962  0.00  0.00    +0.000 NA
BRANCH  15  16
ATOM     16  C   UNL     1       2.783   4.427  20.223  0.00  0.00    +0.000 C 
BRANCH  16  17
ATOM     17  C   UNL     1       1.935   5.693  20.300  0.00  0.00    +0.000 C 
ATOM     18  O   UNL     1       0.808   5.642  20.803  0.00  0.00    +0.000 OA
ATOM     19  N   UNL     1       2.477   6.888  19.838  0.00  0.00    +0.000 N 
ATOM     20  C   UNL     1       1.784   8.146  20.106  0.00  0.00    +0.000 C 
ATOM     21  C   UNL     1       1.267   8.776  18.816  0.00  0.00    +0.000 C 
ATOM     22  C   UNL     1       2.388   8.914  17.787  0.00  0.00    +0.000 C 
ATOM     23  C   UNL     1       3.104   7.580  17.573  0.00  0.00    +0.000 C 
ATOM     24  C   UNL     1       3.591   6.985  18.894  0.00  0.00    +0.000 C 
ENDBRANCH  16  17
ENDBRANCH  15  16
ENDBRANCH   1  15
TORSDOF 4
ENDMDL
MODEL 2
REMARK VINA RESULT:      -6.7      1.363      2.573
REMARK  Name = 
REMARK  5 active torsions:
REMARK  status: ('A' for Active; 'I' for Inactive)
REMARK    1  A    between atoms: C_1  and  N_2
REMARK    2  A    between atoms: N_2  and  C_3
REMARK    3  A    between atoms: N_2  and  S_12
REMARK    4  A    between atoms: C_3  and  C_4
REMARK    5  A    between atoms: S_12  and  C_15
REMARK                            x       y       z     vdW  Elec       q    Type
REMARK                         _______ _______ _______ _____ _____    ______ ____
ROOT
ATOM      1  S   UNL     1       3.855   3.416  18.608  0.00  0.00    +0.000 S 
ATOM      2  O   UNL     1       3.712   3.300  20.043  0.00  0.00    +0.000 OA
ATOM      3  O   UNL     1       3.891   2.215  17.793  0.00  0.00    +0.000 OA
ENDROOT
BRANCH   1   4
ATOM      4  C   UNL     1       5.329   4.338  18.264  0.00  0.00    +0.000 A 
ATOM      5  C   UNL     1       5.995   4.957  19.339  0.00  0.00    +0.000 A 
ATOM      6  C   UNL     1       7.146   5.693  19.104  0.00  0.00    +0.000 A 
ATOM      7  C   UNL     1       7.625   5.811  17.804  0.00  0.00    +0.000 A 
ATOM      8  C   UNL     1       6.952   5.196  16.733  0.00  0.00    +0.000 A 
ATOM      9  C   UNL     1       7.448   5.321  15.428  0.00  0.00    +0.000 A 
ATOM     10  C   UNL     1       6.781   4.721  14.371  0.00  0.00    +0.000 A 
ATOM     11  C   UNL     1       5.634   4.015  14.656  0.00  0.00    +0.000 A 
ATOM     12  N   UNL     1       5.139   3.861  15.901  0.00  0.00    +0.000 NA
ATOM     13  C   UNL     1       5.774   4.443  16.945  0.00  0.00    +0.000 A 
ENDBRANCH   1   4
BRANCH   1  15
ATOM     14  C   UNL     1       1.231   3.991  18.489  0.00  0.00    +0.000 C 
ATOM     15  N   UNL     1       2.573   4.373  17.986  0.00  0.00    +0.000 NA
BRANCH  15  16
ATOM     16  C   UNL     1       2.848   5.829  18.163  0.00  0.00    +0.000 C 
BRANCH  16  17
ATOM     17  C   UNL     1       2.189   6.461  19.385  0.00  0.00    +0.000 C 
ATOM     18  O   UNL     1       1.808   5.742  20.314  0.00  0.00    +0.000 OA
ATOM     19  N   UNL     1       2.077   7.846  19.439  0.00  0.00    +0.000 N 
ATOM     20  C   UNL     1       1.663   8.489  20.684  0.00  0.00    +0.000 C 
ATOM     21  C   UNL     1       0.299   9.156  20.533  0.00  0.00    +0.000 C 
ATOM     22  C   UNL     1       0.280  10.102  19.334  0.00  0.00    +0.000 C 
ATOM     23  C   UNL     1       0.758   9.391  18.067  0.00  0.00    +0.000 C 
ATOM     24  C   UNL     1       2.122   8.729  18.273  0.00  0.00    +0.000 C 
ENDBRANCH  16  17
ENDBRANCH  15  16
ENDBRANCH   1  15
TORSDOF 4
ENDMDL
MODEL 3
REMARK VINA RESULT:      -6.7      1.320      1.895
REMARK  Name = 
REMARK  5 active torsions:
REMARK  status: ('A' for Active; 'I' for Inactive)
REMARK    1  A    between atoms: C_1  and  N_2
REMARK    2  A    between atoms: N_2  and  C_3
REMARK    3  A    between atoms: N_2  and  S_12
REMARK    4  A    between atoms: C_3  and  C_4
REMARK    5  A    between atoms: S_12  and  C_15
REMARK                            x       y       z     vdW  Elec       q    Type
REMARK                         _______ _______ _______ _____ _____    ______ ____
ROOT
ATOM      1  S   UNL     1       3.570   3.387  18.847  0.00  0.00    +0.000 S 
ATOM      2  O   UNL     1       4.359   3.136  20.034  0.00  0.00    +0.000 OA
ATOM      3  O   UNL     1       2.896   2.284  18.188  0.00  0.00    +0.000 OA
ENDROOT
BRANCH   1   4
ATOM      4  C   UNL     1       4.606   4.175  17.644  0.00  0.00    +0.000 A 
ATOM      5  C   UNL     1       4.265   4.047  16.284  0.00  0.00    +0.000 A 
ATOM      6  C   UNL     1       5.058   4.644  15.315  0.00  0.00    +0.000 A 
ATOM      7  C   UNL     1       6.185   5.361  15.705  0.00  0.00    +0.000 A 
ATOM      8  C   UNL     1       6.523   5.480  17.065  0.00  0.00    +0.000 A 
ATOM      9  C   UNL     1       7.660   6.208  17.444  0.00  0.00    +0.000 A 
ATOM     10  C   UNL     1       7.999   6.319  18.784  0.00  0.00    +0.000 A 
ATOM     11  C   UNL     1       7.188   5.695  19.703  0.00  0.00    +0.000 A 
ATOM     12  N   UNL     1       6.078   5.001  19.375  0.00  0.00    +0.000 NA
ATOM     13  C   UNL     1       5.734   4.878  18.072  0.00  0.00    +0.000 A 
ENDBRANCH   1   4
BRANCH   1  15
ATOM     14  C   UNL     1       1.194   3.984  19.955  0.00  0.00    +0.000 C 
ATOM     15  N   UNL     1       2.351   4.540  19.211  0.00  0.00    +0.000 NA
BRANCH  15  16
ATOM     16  C   UNL     1       2.924   5.744  19.877  0.00  0.00    +0.000 C 
BRANCH  16  17
ATOM     17  C   UNL     1       2.583   7.071  19.207  0.00  0.00    +0.000 C 
ATOM     18  O   UNL     1       3.201   7.421  18.196  0.00  0.00    +0.000 OA
ATOM     19  N   UNL     1       1.547   7.836  19.732  0.00  0.00    +0.000 N 
ATOM     20  C   UNL     1       1.050   8.989  18.984  0.00  0.00    +0.000 C 
ATOM     21  C   UNL     1       1.352  10.293  19.717  0.00  0.00    +0.000 C 
ATOM     22  C   UNL     1       0.841  10.244  21.155  0.00  0.00    +0.000 C 
ATOM     23  C   UNL     1       1.357   9.000  21.880  0.00  0.00    +0.000 C 
ATOM     24  C   UNL     1       1.042   7.723  21.100  0.00  0.00    +0.000 C 
ENDBRANCH  16  17
ENDBRANCH  15  16
ENDBRANCH   1  15
TORSDOF 4
ENDMDL
MODEL 4
REMARK VINA RESULT:      -6.6      2.349      6.198
REMARK  Name = 
REMARK  5 active torsions:
REMARK  status: ('A' for Active; 'I' for Inactive)
REMARK    1  A    between atoms: C_1  and  N_2
REMARK    2  A    between atoms: N_2  and  C_3
REMARK    3  A    between atoms: N_2  and  S_12
REMARK    4  A    between atoms: C_3  and  C_4
REMARK    5  A    between atoms: S_12  and  C_15
REMARK                            x       y       z     vdW  Elec       q    Type
REMARK                         _______ _______ _______ _____ _____    ______ ____
ROOT
ATOM      1  S   UNL     1       5.930   4.888  18.930  0.00  0.00    +0.000 S 
ATOM      2  O   UNL     1       5.955   3.445  18.829  0.00  0.00    +0.000 OA
ATOM      3  O   UNL     1       6.668   5.544  19.994  0.00  0.00    +0.000 OA
ENDROOT
BRANCH   1   4
ATOM      4  C   UNL     1       4.242   5.412  19.049  0.00  0.00    +0.000 A 
ATOM      5  C   UNL     1       3.872   6.619  18.426  0.00  0.00    +0.000 A 
ATOM      6  C   UNL     1       2.561   7.063  18.506  0.00  0.00    +0.000 A 
ATOM      7  C   UNL     1       1.628   6.306  19.208  0.00  0.00    +0.000 A 
ATOM      8  C   UNL     1       2.004   5.104  19.833  0.00  0.00    +0.000 A 
ATOM      9  C   UNL     1       1.053   4.350  20.533  0.00  0.00    +0.000 A 
ATOM     10  C   UNL     1       1.425   3.169  21.157  0.00  0.00    +0.000 A 
ATOM     11  C   UNL     1       2.742   2.781  21.060  0.00  0.00    +0.000 A 
ATOM     12  N   UNL     1       3.679   3.474  20.381  0.00  0.00    +0.000 NA
ATOM     13  C   UNL     1       3.336   4.632  19.769  0.00  0.00    +0.000 A 
ENDBRANCH   1   4
BRANCH   1  15
ATOM     14  C   UNL     1       7.345   6.779  17.645  0.00  0.00    +0.000 C 
ATOM     15  N   UNL     1       6.508   5.568  17.463  0.00  0.00    +0.000 NA
BRANCH  15  16
ATOM     16  C   UNL     1       7.179   4.541  16.616  0.00  0.00    +0.000 C 
BRANCH  16  17
ATOM     17  C   UNL     1       6.282   3.888  15.569  0.00  0.00    +0.000 C 
ATOM     18  O   UNL     1       5.597   2.907  15.877  0.00  0.00    +0.000 OA
ATOM     19  N   UNL     1       6.226   4.448  14.297  0.00  0.00    +0.000 N 
ATOM     20  C   UNL     1       5.214   3.988  13.349  0.00  0.00    +0.000 C 
ATOM     21  C   UNL     1       5.853   3.270  12.165  0.00  0.00    +0.000 C 
ATOM     22  C   UNL     1       6.934   4.135  11.517  0.00  0.00    +0.000 C 
ATOM     23  C   UNL     1       7.944   4.621  12.557  0.00  0.00    +0.000 C 
ATOM     24  C   UNL     1       7.254   5.321  13.728  0.00  0.00    +0.000 C 
ENDBRANCH  16  17
ENDBRANCH  15  16
ENDBRANCH   1  15
TORSDOF 4
ENDMDL
MODEL 5
REMARK VINA RESULT:      -6.6      1.835      3.083
REMARK  Name = 
REMARK  5 active torsions:
REMARK  status: ('A' for Active; 'I' for Inactive)
REMARK    1  A    between atoms: C_1  and  N_2
REMARK    2  A    between atoms: N_2  and  C_3
REMARK    3  A    between atoms: N_2  and  S_12
REMARK    4  A    between atoms: C_3  and  C_4
REMARK    5  A    between atoms: S_12  and  C_15
REMARK                            x       y       z     vdW  Elec       q    Type
REMARK                         _______ _______ _______ _____ _____    ______ ____
ROOT
ATOM      1  S   UNL     1       3.738   3.973  18.823  0.00  0.00    +0.000 S 
ATOM      2  O   UNL     1       3.710   3.792  20.258  0.00  0.00    +0.000 OA
ATOM      3  O   UNL     1       3.482   2.839  17.954  0.00  0.00    +0.000 OA
ENDROOT
BRANCH   1   4
ATOM      4  C   UNL     1       5.315   4.644  18.374  0.00  0.00    +0.000 A 
ATOM      5  C   UNL     1       6.124   5.187  19.390  0.00  0.00    +0.000 A 
ATOM      6  C   UNL     1       7.360   5.728  19.072  0.00  0.00    +0.000 A 
ATOM      7  C   UNL     1       7.782   5.729  17.747  0.00  0.00    +0.000 A 
ATOM      8  C   UNL     1       6.967   5.192  16.735  0.00  0.00    +0.000 A 
ATOM      9  C   UNL     1       7.406   5.196  15.403  0.00  0.00    +0.000 A 
ATOM     10  C   UNL     1       6.600   4.674  14.403  0.00  0.00    +0.000 A 
ATOM     11  C   UNL     1       5.376   4.163  14.770  0.00  0.00    +0.000 A 
ATOM     12  N   UNL     1       4.929   4.127  16.043  0.00  0.00    +0.000 NA
ATOM     13  C   UNL     1       5.700   4.637  17.032  0.00  0.00    +0.000 A 
ENDBRANCH   1   4
BRANCH   1  15
ATOM     14  C   UNL     1       1.287   4.638  17.940  0.00  0.00    +0.000 C 
ATOM     15  N   UNL     1       2.597   5.177  18.381  0.00  0.00    +0.000 NA
BRANCH  15  16
ATOM     16  C   UNL     1       2.452   6.206  19.452  0.00  0.00    +0.000 C 
BRANCH  16  17
ATOM     17  C   UNL     1       2.230   7.628  18.948  0.00  0.00    +0.000 C 
ATOM     18  O   UNL     1       2.874   8.039  17.976  0.00  0.00    +0.000 OA
ATOM     19  N   UNL     1       1.269   8.415  19.574  0.00  0.00    +0.000 N 
ATOM     20  C   UNL     1       0.876   9.688  18.975  0.00  0.00    +0.000 C 
ATOM     21  C   UNL     1       1.297  10.863  19.852  0.00  0.00    +0.000 C 
ATOM     22  C   UNL     1       0.789  10.689  21.282  0.00  0.00    +0.000 C 
ATOM     23  C   UNL     1       1.193   9.327  21.847  0.00  0.00    +0.000 C 
ATOM     24  C   UNL     1       0.761   8.185  20.926  0.00  0.00    +0.000 C 
ENDBRANCH  16  17
ENDBRANCH  15  16
ENDBRANCH   1  15
TORSDOF 4
ENDMDL
MODEL 6
REMARK VINA RESULT:      -6.5      7.783     10.537
REMARK  Name = 
REMARK  5 active torsions:
REMARK  status: ('A' for Active; 'I' for Inactive)
REMARK    1  A    between atoms: C_1  and  N_2
REMARK    2  A    between atoms: N_2  and  C_3
REMARK    3  A    between atoms: N_2  and  S_12
REMARK    4  A    between atoms: C_3  and  C_4
REMARK    5  A    between atoms: S_12  and  C_15
REMARK                            x       y       z     vdW  Elec       q    Type
REMARK                         _______ _______ _______ _____ _____    ______ ____
ROOT
ATOM      1  S   UNL     1      -0.949  12.914  21.224  0.00  0.00    +0.000 S 
ATOM      2  O   UNL     1      -1.685  13.987  20.590  0.00  0.00    +0.000 OA
ATOM      3  O   UNL     1       0.273  13.214  21.946  0.00  0.00    +0.000 OA
ENDROOT
BRANCH   1   4
ATOM      4  C   UNL     1      -0.558  11.701  19.993  0.00  0.00    +0.000 A 
ATOM      5  C   UNL     1       0.735  11.144  19.991  0.00  0.00    +0.000 A 
ATOM      6  C   UNL     1       1.077  10.198  19.036  0.00  0.00    +0.000 A 
ATOM      7  C   UNL     1       0.133   9.815  18.090  0.00  0.00    +0.000 A 
ATOM      8  C   UNL     1      -1.155  10.379  18.092  0.00  0.00    +0.000 A 
ATOM      9  C   UNL     1      -2.097   9.981  17.134  0.00  0.00    +0.000 A 
ATOM     10  C   UNL     1      -3.365  10.542  17.131  0.00  0.00    +0.000 A 
ATOM     11  C   UNL     1      -3.649  11.488  18.089  0.00  0.00    +0.000 A 
ATOM     12  N   UNL     1      -2.772  11.882  19.036  0.00  0.00    +0.000 NA
ATOM     13  C   UNL     1      -1.528  11.348  19.052  0.00  0.00    +0.000 A 
ENDBRANCH   1   4
BRANCH   1  15
ATOM     14  C   UNL     1      -1.315  10.999  23.075  0.00  0.00    +0.000 C 
ATOM     15  N   UNL     1      -1.974  12.106  22.339  0.00  0.00    +0.000 NA
BRANCH  15  16
ATOM     16  C   UNL     1      -2.647  13.071  23.255  0.00  0.00    +0.000 C 
BRANCH  16  17
ATOM     17  C   UNL     1      -4.059  12.676  23.677  0.00  0.00    +0.000 C 
ATOM     18  O   UNL     1      -4.219  11.888  24.615  0.00  0.00    +0.000 OA
ATOM     19  N   UNL     1      -5.138  13.255  23.017  0.00  0.00    +0.000 N 
ATOM     20  C   UNL     1      -6.489  13.074  23.544  0.00  0.00    +0.000 C 
ATOM     21  C   UNL     1      -7.344  12.242  22.594  0.00  0.00    +0.000 C 
ATOM     22  C   UNL     1      -7.324  12.827  21.183  0.00  0.00    +0.000 C 
ATOM     23  C   UNL     1      -5.889  13.032  20.694  0.00  0.00    +0.000 C 
ATOM     24  C   UNL     1      -5.070  13.860  21.686  0.00  0.00    +0.000 C 
ENDBRANCH  16  17
ENDBRANCH  15  16
ENDBRANCH   1  15
TORSDOF 4
ENDMDL
MODEL 7
REMARK VINA RESULT:      -6.5      1.044      2.239
REMARK  Name = 
REMARK  5 active torsions:
REMARK  status: ('A' for Active; 'I' for Inactive)
REMARK    1  A    between atoms: C_1  and  N_2
REMARK    2  A    between atoms: N_2  and  C_3
REMARK    3  A    between atoms: N_2  and  S_12
REMARK    4  A    between atoms: C_3  and  C_4
REMARK    5  A    between atoms: S_12  and  C_15
REMARK                            x       y       z     vdW  Elec       q    Type
REMARK                         _______ _______ _______ _____ _____    ______ ____
ROOT
ATOM      1  S   UNL     1       4.099   3.204  18.722  0.00  0.00    +0.000 S 
ATOM      2  O   UNL     1       4.380   2.621  20.016  0.00  0.00    +0.000 OA
ATOM      3  O   UNL     1       3.834   2.337  17.589  0.00  0.00    +0.000 OA
ENDROOT
BRANCH   1   4
ATOM      4  C   UNL     1       5.449   4.264  18.280  0.00  0.00    +0.000 A 
ATOM      5  C   UNL     1       6.130   4.941  19.308  0.00  0.00    +0.000 A 
ATOM      6  C   UNL     1       7.186   5.785  18.996  0.00  0.00    +0.000 A 
ATOM      7  C   UNL     1       7.554   5.951  17.665  0.00  0.00    +0.000 A 
ATOM      8  C   UNL     1       6.865   5.277  16.642  0.00  0.00    +0.000 A 
ATOM      9  C   UNL     1       7.249   5.451  15.305  0.00  0.00    +0.000 A 
ATOM     10  C   UNL     1       6.565   4.792  14.294  0.00  0.00    +0.000 A 
ATOM     11  C   UNL     1       5.516   3.980  14.656  0.00  0.00    +0.000 A 
ATOM     12  N   UNL     1       5.130   3.776  15.933  0.00  0.00    +0.000 NA
ATOM     13  C   UNL     1       5.783   4.414  16.932  0.00  0.00    +0.000 A 
ENDBRANCH   1   4
BRANCH   1  15
ATOM     14  C   UNL     1       1.484   3.671  18.308  0.00  0.00    +0.000 C 
ATOM     15  N   UNL     1       2.739   4.244  18.852  0.00  0.00    +0.000 NA
BRANCH  15  16
ATOM     16  C   UNL     1       2.572   4.746  20.247  0.00  0.00    +0.000 C 
BRANCH  16  17
ATOM     17  C   UNL     1       1.766   6.035  20.371  0.00  0.00    +0.000 C 
ATOM     18  O   UNL     1       0.685   6.024  20.971  0.00  0.00    +0.000 OA
ATOM     19  N   UNL     1       2.296   7.207  19.842  0.00  0.00    +0.000 N 
ATOM     20  C   UNL     1       1.661   8.488  20.143  0.00  0.00    +0.000 C 
ATOM     21  C   UNL     1       1.052   9.109  18.890  0.00  0.00    +0.000 C 
ATOM     22  C   UNL     1       2.082   9.199  17.766  0.00  0.00    +0.000 C 
ATOM     23  C   UNL     1       2.743   7.843  17.517  0.00  0.00    +0.000 C 
ATOM     24  C   UNL     1       3.326   7.257  18.804  0.00  0.00    +0.000 C 
ENDBRANCH  16  17
ENDBRANCH  15  16
ENDBRANCH   1  15
TORSDOF 4
ENDMDL
MODEL 8
REMARK VINA RESULT:      -6.3      0.833      1.065
REMARK  Name = 
REMARK  5 active torsions:
REMARK  status: ('A' for Active; 'I' for Inactive)
REMARK    1  A    between atoms: C_1  and  N_2
REMARK    2  A    between atoms: N_2  and  C_3
REMARK    3  A    between atoms: N_2  and  S_12
REMARK    4  A    between atoms: C_3  and  C_4
REMARK    5  A    between atoms: S_12  and  C_15
REMARK                            x       y       z     vdW  Elec       q    Type
REMARK                         _______ _______ _______ _____ _____    ______ ____
ROOT
ATOM      1  S   UNL     1       3.862   2.728  18.476  0.00  0.00    +0.000 S 
ATOM      2  O   UNL     1       3.998   3.265  19.813  0.00  0.00    +0.000 OA
ATOM      3  O   UNL     1       4.232   1.349  18.218  0.00  0.00    +0.000 OA
ENDROOT
BRANCH   1   4
ATOM      4  C   UNL     1       4.794   3.748  17.366  0.00  0.00    +0.000 A 
ATOM      5  C   UNL     1       4.515   3.664  15.989  0.00  0.00    +0.000 A 
ATOM      6  C   UNL     1       5.231   4.442  15.091  0.00  0.00    +0.000 A 
ATOM      7  C   UNL     1       6.221   5.294  15.569  0.00  0.00    +0.000 A 
ATOM      8  C   UNL     1       6.500   5.369  16.945  0.00  0.00    +0.000 A 
ATOM      9  C   UNL     1       7.498   6.235  17.413  0.00  0.00    +0.000 A 
ATOM     10  C   UNL     1       7.779   6.304  18.769  0.00  0.00    +0.000 A 
ATOM     11  C   UNL     1       7.050   5.500  19.615  0.00  0.00    +0.000 A 
ATOM     12  N   UNL     1       6.072   4.668  19.201  0.00  0.00    +0.000 NA
ATOM     13  C   UNL     1       5.787   4.584  17.880  0.00  0.00    +0.000 A 
ENDBRANCH   1   4
BRANCH   1  15
ATOM     14  C   UNL     1       1.255   2.172  18.824  0.00  0.00    +0.000 C 
ATOM     15  N   UNL     1       2.231   2.886  17.965  0.00  0.00    +0.000 NA
BRANCH  15  16
ATOM     16  C   UNL     1       1.862   4.316  17.761  0.00  0.00    +0.000 C 
BRANCH  16  17
ATOM     17  C   UNL     1       1.647   5.113  19.044  0.00  0.00    +0.000 C 
ATOM     18  O   UNL     1       1.006   4.611  19.974  0.00  0.00    +0.000 OA
ATOM     19  N   UNL     1       2.223   6.374  19.150  0.00  0.00    +0.000 N 
ATOM     20  C   UNL     1       2.227   7.060  20.441  0.00  0.00    +0.000 C 
ATOM     21  C   UNL     1       1.353   8.309  20.404  0.00  0.00    +0.000 C 
ATOM     22  C   UNL     1       1.742   9.218  19.239  0.00  0.00    +0.000 C 
ATOM     23  C   UNL     1       1.760   8.443  17.921  0.00  0.00    +0.000 C 
ATOM     24  C   UNL     1       2.639   7.195  18.013  0.00  0.00    +0.000 C 
ENDBRANCH  16  17
ENDBRANCH  15  16
ENDBRANCH   1  15
TORSDOF 4
ENDMDL
MODEL 9
REMARK VINA RESULT:      -6.1      4.330      6.550
REMARK  Name = 
REMARK  5 active torsions:
REMARK  status: ('A' for Active; 'I' for Inactive)
REMARK    1  A    between atoms: C_1  and  N_2
REMARK    2  A    between atoms: N_2  and  C_3
REMARK    3  A    between atoms: N_2  and  S_12
REMARK    4  A    between atoms: C_3  and  C_4
REMARK    5  A    between atoms: S_12  and  C_15
REMARK                            x       y       z     vdW  Elec       q    Type
REMARK                         _______ _______ _______ _____ _____    ______ ____
ROOT
ATOM      1  S   UNL     1       0.969   8.640  21.037  0.00  0.00    +0.000 S 
ATOM      2  O   UNL     1       1.851   8.905  22.152  0.00  0.00    +0.000 OA
ATOM      3  O   UNL     1      -0.257   7.896  21.255  0.00  0.00    +0.000 OA
ENDROOT
BRANCH   1   4
ATOM      4  C   UNL     1       1.891   7.793  19.782  0.00  0.00    +0.000 A 
ATOM      5  C   UNL     1       2.276   8.514  18.636  0.00  0.00    +0.000 A 
ATOM      6  C   UNL     1       2.991   7.880  17.631  0.00  0.00    +0.000 A 
ATOM      7  C   UNL     1       3.315   6.534  17.771  0.00  0.00    +0.000 A 
ATOM      8  C   UNL     1       2.922   5.818  18.916  0.00  0.00    +0.000 A 
ATOM      9  C   UNL     1       3.259   4.464  19.046  0.00  0.00    +0.000 A 
ATOM     10  C   UNL     1       2.865   3.754  20.170  0.00  0.00    +0.000 A 
ATOM     11  C   UNL     1       2.144   4.426  21.130  0.00  0.00    +0.000 A 
ATOM     12  N   UNL     1       1.817   5.733  21.046  0.00  0.00    +0.000 NA
ATOM     13  C   UNL     1       2.189   6.440  19.953  0.00  0.00    +0.000 A 
ENDBRANCH   1   4
BRANCH   1  15
ATOM     14  C   UNL     1      -0.862  10.116  19.734  0.00  0.00    +0.000 C 
ATOM     15  N   UNL     1       0.500  10.128  20.319  0.00  0.00    +0.000 NA
BRANCH  15  16
ATOM     16  C   UNL     1       0.701  11.269  21.258  0.00  0.00    +0.000 C 
BRANCH  16  17
ATOM     17  C   UNL     1      -0.408  11.455  22.288  0.00  0.00    +0.000 C 
ATOM     18  O   UNL     1      -0.501  10.666  23.235  0.00  0.00    +0.000 OA
ATOM     19  N   UNL     1      -1.264  12.544  22.157  0.00  0.00    +0.000 N 
ATOM     20  C   UNL     1      -2.183  12.875  23.244  0.00  0.00    +0.000 C 
ATOM     21  C   UNL     1      -3.634  12.665  22.822  0.00  0.00    +0.000 C 
ATOM     22  C   UNL     1      -3.942  13.413  21.526  0.00  0.00    +0.000 C 
ATOM     23  C   UNL     1      -2.930  13.060  20.435  0.00  0.00    +0.000 C 
ATOM     24  C   UNL     1      -1.492  13.275  20.911  0.00  0.00    +0.000 C 
ENDBRANCH  16  17
ENDBRANCH  15  16
ENDBRANCH   1  15
TORSDOF 4
ENDMDL
