MODEL 1
REMARK VINA RESULT:      -8.4      0.000      0.000
REMARK  Name = 
REMARK  8 active torsions:
REMARK  status: ('A' for Active; 'I' for Inactive)
REMARK    1  A    between atoms: C_1  and  C_2
REMARK    2  A    between atoms: C_2  and  C_3
REMARK    3  A    between atoms: C_3  and  C_4
REMARK    4  A    between atoms: C_4  and  N_5
REMARK    5  A    between atoms: C_4  and  C_20
REMARK    6  A    between atoms: C_10  and  C_11
REMARK    7  A    between atoms: C_14  and  C_15
REMARK    8  A    between atoms: C_15  and  O_16
REMARK                            x       y       z     vdW  Elec       q    Type
REMARK                         _______ _______ _______ _____ _____    ______ ____
ROOT
ATOM      1  N   UNL     1       4.748   3.578  17.332  0.00  0.00    +0.000 N 
ATOM      2  C   UNL     1       4.006   4.183  18.370  0.00  0.00    +0.000 A 
ATOM      3  C   UNL     1       3.746   3.418  19.520  0.00  0.00    +0.000 A 
ATOM      4  N   UNL     1       2.951   3.811  20.538  0.00  0.00    +0.000 NA
ATOM      5  C   UNL     1       2.405   5.031  20.369  0.00  0.00    +0.000 A 
ATOM      6  C   UNL     1       2.660   5.851  19.264  0.00  0.00    +0.000 A 
ATOM      7  N   UNL     1       3.446   5.413  18.238  0.00  0.00    +0.000 NA
ATOM      8  H   UNL     1       5.430   2.946  17.739  0.00  0.00    +0.000 HD
ENDROOT
BRANCH   6   9
ATOM      9  C   UNL     1       2.146   7.236  19.215  0.00  0.00    +0.000 A 
ATOM     10  C   UNL     1       2.239   7.980  18.021  0.00  0.00    +0.000 A 
ATOM     11  C   UNL     1       1.800   9.303  17.937  0.00  0.00    +0.000 A 
ATOM     12  C   UNL     1       1.231   9.934  19.043  0.00  0.00    +0.000 A 
ATOM     13  C   UNL     1       1.131   9.212  20.242  0.00  0.00    +0.000 A 
ATOM     14  C   UNL     1       1.571   7.878  20.322  0.00  0.00    +0.000 A 
BRANCH  12  15
ATOM     15  C   UNL     1       0.812  11.377  18.927  0.00  0.00    +0.000 C 
BRANCH  15  16
ATOM     16  O   UNL     1       1.629  12.098  18.016  0.00  0.00    +0.000 OA
ATOM     17  H   UNL     1       2.550  11.946  18.290  0.00  0.00    +0.000 HD
ENDBRANCH  15  16
ENDBRANCH  12  15
ENDBRANCH   6   9
BRANCH   1  18
ATOM     18  C   UNL     1       5.397   4.477  16.376  0.00  0.00    +0.000 C 
BRANCH  18  19
ATOM     19  C   UNL     1       6.378   5.375  17.136  0.00  0.00    +0.000 A 
ATOM     20  C   UNL     1       7.163   4.841  18.166  0.00  0.00    +0.000 A 
ATOM     21  C   UNL     1       8.027   5.662  18.897  0.00  0.00    +0.000 A 
ATOM     22  C   UNL     1       8.128   7.022  18.601  0.00  0.00    +0.000 A 
ATOM     23  C   UNL     1       7.373   7.564  17.568  0.00  0.00    +0.000 A 
ATOM     24  C   UNL     1       6.513   6.749  16.836  0.00  0.00    +0.000 A 
ENDBRANCH  18  19
BRANCH  18  25
ATOM     25  C   UNL     1       6.189   3.662  15.325  0.00  0.00    +0.000 C 
BRANCH  25  27
ATOM     26  C   UNL     1       5.992   3.533  12.782  0.00  0.00    +0.000 C 
ATOM     27  C   UNL     1       6.448   4.342  13.981  0.00  0.00    +0.000 C 
ENDBRANCH  25  27
ENDBRANCH  18  25
ENDBRANCH   1  18
TORSDOF 7
ENDMDL
MODEL 2
REMARK VINA RESULT:      -8.3      0.309      1.395
REMARK  Name = 
REMARK  8 active torsions:
REMARK  status: ('A' for Active; 'I' for Inactive)
REMARK    1  A    between atoms: C_1  and  C_2
REMARK    2  A    between atoms: C_2  and  C_3
REMARK    3  A    between atoms: C_3  and  C_4
REMARK    4  A    between atoms: C_4  and  N_5
REMARK    5  A    between atoms: C_4  and  C_20
REMARK    6  A    between atoms: C_10  and  C_11
REMARK    7  A    between atoms: C_14  and  C_15
REMARK    8  A    between atoms: C_15  and  O_16
REMARK                            x       y       z     vdW  Elec       q    Type
REMARK                         _______ _______ _______ _____ _____    ______ ____
ROOT
ATOM      1  N   UNL     1       4.454   3.709  17.279  0.00  0.00    +0.000 N 
ATOM      2  C   UNL     1       3.736   4.358  18.307  0.00  0.00    +0.000 A 
ATOM      3  C   UNL     1       3.414   3.613  19.453  0.00  0.00    +0.000 A 
ATOM      4  N   UNL     1       2.630   4.054  20.460  0.00  0.00    +0.000 NA
ATOM      5  C   UNL     1       2.161   5.305  20.282  0.00  0.00    +0.000 A 
ATOM      6  C   UNL     1       2.481   6.106  19.181  0.00  0.00    +0.000 A 
ATOM      7  N   UNL     1       3.254   5.620  18.166  0.00  0.00    +0.000 NA
ATOM      8  H   UNL     1       5.091   3.037  17.696  0.00  0.00    +0.000 HD
ENDROOT
BRANCH   6   9
ATOM      9  C   UNL     1       2.053   7.520  19.123  0.00  0.00    +0.000 A 
ATOM     10  C   UNL     1       1.509   8.140  20.266  0.00  0.00    +0.000 A 
ATOM     11  C   UNL     1       1.059   9.462  20.249  0.00  0.00    +0.000 A 
ATOM     12  C   UNL     1       1.152  10.228  19.087  0.00  0.00    +0.000 A 
ATOM     13  C   UNL     1       1.689   9.630  17.938  0.00  0.00    +0.000 A 
ATOM     14  C   UNL     1       2.144   8.298  17.959  0.00  0.00    +0.000 A 
BRANCH  12  15
ATOM     15  C   UNL     1       0.612  11.636  19.094  0.00  0.00    +0.000 C 
BRANCH  15  16
ATOM     16  O   UNL     1       1.049  12.379  17.965  0.00  0.00    +0.000 OA
ATOM     17  H   UNL     1       1.260  11.730  17.272  0.00  0.00    +0.000 HD
ENDBRANCH  15  16
ENDBRANCH  12  15
ENDBRANCH   6   9
BRANCH   1  18
ATOM     18  C   UNL     1       5.170   4.566  16.332  0.00  0.00    +0.000 C 
BRANCH  18  19
ATOM     19  C   UNL     1       6.163   5.434  17.111  0.00  0.00    +0.000 A 
ATOM     20  C   UNL     1       6.238   6.810  16.859  0.00  0.00    +0.000 A 
ATOM     21  C   UNL     1       7.173   7.602  17.531  0.00  0.00    +0.000 A 
ATOM     22  C   UNL     1       8.035   7.035  18.470  0.00  0.00    +0.000 A 
ATOM     23  C   UNL     1       7.960   5.676  18.747  0.00  0.00    +0.000 A 
ATOM     24  C   UNL     1       7.028   4.883  18.083  0.00  0.00    +0.000 A 
ENDBRANCH  18  19
BRANCH  18  25
ATOM     25  C   UNL     1       5.960   3.703  15.318  0.00  0.00    +0.000 C 
BRANCH  25  27
ATOM     26  C   UNL     1       6.141   3.553  12.775  0.00  0.00    +0.000 C 
ATOM     27  C   UNL     1       6.387   4.386  14.020  0.00  0.00    +0.000 C 
ENDBRANCH  25  27
ENDBRANCH  18  25
ENDBRANCH   1  18
TORSDOF 7
ENDMDL
MODEL 3
REMARK VINA RESULT:      -8.2      0.349      1.067
REMARK  Name = 
REMARK  8 active torsions:
REMARK  status: ('A' for Active; 'I' for Inactive)
REMARK    1  A    between atoms: C_1  and  C_2
REMARK    2  A    between atoms: C_2  and  C_3
REMARK    3  A    between atoms: C_3  and  C_4
REMARK    4  A    between atoms: C_4  and  N_5
REMARK    5  A    between atoms: C_4  and  C_20
REMARK    6  A    between atoms: C_10  and  C_11
REMARK    7  A    between atoms: C_14  and  C_15
REMARK    8  A    between atoms: C_15  and  O_16
REMARK                            x       y       z     vdW  Elec       q    Type
REMARK                         _______ _______ _______ _____ _____    ______ ____
ROOT
ATOM      1  N   UNL     1       4.622   3.589  17.415  0.00  0.00    +0.000 N 
ATOM      2  C   UNL     1       3.907   4.228  18.450  0.00  0.00    +0.000 A 
ATOM      3  C   UNL     1       3.642   3.491  19.616  0.00  0.00    +0.000 A 
ATOM      4  N   UNL     1       2.867   3.919  20.636  0.00  0.00    +0.000 NA
ATOM      5  C   UNL     1       2.348   5.149  20.450  0.00  0.00    +0.000 A 
ATOM      6  C   UNL     1       2.609   5.943  19.329  0.00  0.00    +0.000 A 
ATOM      7  N   UNL     1       3.374   5.469  18.302  0.00  0.00    +0.000 NA
ATOM      8  H   UNL     1       5.295   2.948  17.826  0.00  0.00    +0.000 HD
ENDROOT
BRANCH   6   9
ATOM      9  C   UNL     1       2.127   7.339  19.260  0.00  0.00    +0.000 A 
ATOM     10  C   UNL     1       1.543   7.941  20.392  0.00  0.00    +0.000 A 
ATOM     11  C   UNL     1       1.042   9.244  20.364  0.00  0.00    +0.000 A 
ATOM     12  C   UNL     1       1.121  10.009  19.201  0.00  0.00    +0.000 A 
ATOM     13  C   UNL     1       1.697   9.428  18.061  0.00  0.00    +0.000 A 
ATOM     14  C   UNL     1       2.204   8.116  18.094  0.00  0.00    +0.000 A 
BRANCH  12  15
ATOM     15  C   UNL     1       0.527  11.395  19.195  0.00  0.00    +0.000 C 
BRANCH  15  16
ATOM     16  O   UNL     1       0.874  12.118  18.022  0.00  0.00    +0.000 OA
ATOM     17  H   UNL     1       0.054  12.224  17.510  0.00  0.00    +0.000 HD
ENDBRANCH  15  16
ENDBRANCH  12  15
ENDBRANCH   6   9
BRANCH   1  18
ATOM     18  C   UNL     1       5.282   4.456  16.437  0.00  0.00    +0.000 C 
BRANCH  18  19
ATOM     19  C   UNL     1       6.292   5.343  17.170  0.00  0.00    +0.000 A 
ATOM     20  C   UNL     1       7.092   4.803  18.185  0.00  0.00    +0.000 A 
ATOM     21  C   UNL     1       7.983   5.616  18.892  0.00  0.00    +0.000 A 
ATOM     22  C   UNL     1       8.097   6.973  18.586  0.00  0.00    +0.000 A 
ATOM     23  C   UNL     1       7.326   7.520  17.567  0.00  0.00    +0.000 A 
ATOM     24  C   UNL     1       6.439   6.714  16.859  0.00  0.00    +0.000 A 
ENDBRANCH  18  19
BRANCH  18  25
ATOM     25  C   UNL     1       6.042   3.604  15.391  0.00  0.00    +0.000 C 
BRANCH  25  27
ATOM     26  C   UNL     1       7.273   4.895  13.564  0.00  0.00    +0.000 C 
ATOM     27  C   UNL     1       6.031   4.114  13.951  0.00  0.00    +0.000 C 
ENDBRANCH  25  27
ENDBRANCH  18  25
ENDBRANCH   1  18
TORSDOF 7
ENDMDL
MODEL 4
REMARK VINA RESULT:      -8.2      0.288      1.046
REMARK  Name = 
REMARK  8 active torsions:
REMARK  status: ('A' for Active; 'I' for Inactive)
REMARK    1  A    between atoms: C_1  and  C_2
REMARK    2  A    between atoms: C_2  and  C_3
REMARK    3  A    between atoms: C_3  and  C_4
REMARK    4  A    between atoms: C_4  and  N_5
REMARK    5  A    between atoms: C_4  and  C_20
REMARK    6  A    between atoms: C_10  and  C_11
REMARK    7  A    between atoms: C_14  and  C_15
REMARK    8  A    between atoms: C_15  and  O_16
REMARK                            x       y       z     vdW  Elec       q    Type
REMARK                         _______ _______ _______ _____ _____    ______ ____
ROOT
ATOM      1  N   UNL     1       4.739   3.619  17.394  0.00  0.00    +0.000 N 
ATOM      2  C   UNL     1       3.981   4.222  18.421  0.00  0.00    +0.000 A 
ATOM      3  C   UNL     1       3.696   3.454  19.562  0.00  0.00    +0.000 A 
ATOM      4  N   UNL     1       2.884   3.845  20.568  0.00  0.00    +0.000 NA
ATOM      5  C   UNL     1       2.347   5.069  20.393  0.00  0.00    +0.000 A 
ATOM      6  C   UNL     1       2.626   5.893  19.298  0.00  0.00    +0.000 A 
ATOM      7  N   UNL     1       3.430   5.456  18.284  0.00  0.00    +0.000 NA
ATOM      8  H   UNL     1       5.411   2.982  17.811  0.00  0.00    +0.000 HD
ENDROOT
BRANCH   6   9
ATOM      9  C   UNL     1       2.120   7.281  19.245  0.00  0.00    +0.000 A 
ATOM     10  C   UNL     1       2.189   8.012  18.042  0.00  0.00    +0.000 A 
ATOM     11  C   UNL     1       1.756   9.336  17.953  0.00  0.00    +0.000 A 
ATOM     12  C   UNL     1       1.217   9.982  19.066  0.00  0.00    +0.000 A 
ATOM     13  C   UNL     1       1.141   9.273  20.274  0.00  0.00    +0.000 A 
ATOM     14  C   UNL     1       1.575   7.938  20.359  0.00  0.00    +0.000 A 
BRANCH  12  15
ATOM     15  C   UNL     1       0.804  11.427  18.944  0.00  0.00    +0.000 C 
BRANCH  15  16
ATOM     16  O   UNL     1       1.531  12.105  17.929  0.00  0.00    +0.000 OA
ATOM     17  H   UNL     1       0.965  12.108  17.138  0.00  0.00    +0.000 HD
ENDBRANCH  15  16
ENDBRANCH  12  15
ENDBRANCH   6   9
BRANCH   1  18
ATOM     18  C   UNL     1       5.410   4.520  16.455  0.00  0.00    +0.000 C 
BRANCH  18  19
ATOM     19  C   UNL     1       6.367   5.423  17.240  0.00  0.00    +0.000 A 
ATOM     20  C   UNL     1       6.493   6.775  16.899  0.00  0.00    +0.000 A 
ATOM     21  C   UNL     1       7.398   7.596  17.579  0.00  0.00    +0.000 A 
ATOM     22  C   UNL     1       8.177   7.081  18.615  0.00  0.00    +0.000 A 
ATOM     23  C   UNL     1       8.050   5.746  18.980  0.00  0.00    +0.000 A 
ATOM     24  C   UNL     1       7.148   4.926  18.308  0.00  0.00    +0.000 A 
ENDBRANCH  18  19
BRANCH  18  25
ATOM     25  C   UNL     1       6.234   3.706  15.427  0.00  0.00    +0.000 C 
BRANCH  25  27
ATOM     26  C   UNL     1       7.267   4.848  13.389  0.00  0.00    +0.000 C 
ATOM     27  C   UNL     1       6.077   4.098  13.958  0.00  0.00    +0.000 C 
ENDBRANCH  25  27
ENDBRANCH  18  25
ENDBRANCH   1  18
TORSDOF 7
ENDMDL
MODEL 5
REMARK VINA RESULT:      -8.0      1.167      1.199
REMARK  Name = 
REMARK  8 active torsions:
REMARK  status: ('A' for Active; 'I' for Inactive)
REMARK    1  A    between atoms: C_1  and  C_2
REMARK    2  A    between atoms: C_2  and  C_3
REMARK    3  A    between atoms: C_3  and  C_4
REMARK    4  A    between atoms: C_4  and  N_5
REMARK    5  A    between atoms: C_4  and  C_20
REMARK    6  A    between atoms: C_10  and  C_11
REMARK    7  A    between atoms: C_14  and  C_15
REMARK    8  A    between atoms: C_15  and  O_16
REMARK                            x       y       z     vdW  Elec       q    Type
REMARK                         _______ _______ _______ _____ _____    ______ ____
ROOT
ATOM      1  N   UNL     1       4.906   3.967  16.100  0.00  0.00    +0.000 N 
ATOM      2  C   UNL     1       4.066   4.189  17.212  0.00  0.00    +0.000 A 
ATOM      3  C   UNL     1       3.670   3.073  17.968  0.00  0.00    +0.000 A 
ATOM      4  N   UNL     1       2.775   3.108  18.978  0.00  0.00    +0.000 NA
ATOM      5  C   UNL     1       2.271   4.334  19.221  0.00  0.00    +0.000 A 
ATOM      6  C   UNL     1       2.657   5.486  18.527  0.00  0.00    +0.000 A 
ATOM      7  N   UNL     1       3.544   5.411  17.491  0.00  0.00    +0.000 NA
ATOM      8  H   UNL     1       5.530   3.193  16.307  0.00  0.00    +0.000 HD
ENDROOT
BRANCH   6   9
ATOM      9  C   UNL     1       2.175   6.819  18.944  0.00  0.00    +0.000 A 
ATOM     10  C   UNL     1       2.118   7.873  18.010  0.00  0.00    +0.000 A 
ATOM     11  C   UNL     1       1.703   9.158  18.366  0.00  0.00    +0.000 A 
ATOM     12  C   UNL     1       1.308   9.438  19.674  0.00  0.00    +0.000 A 
ATOM     13  C   UNL     1       1.358   8.404  20.621  0.00  0.00    +0.000 A 
ATOM     14  C   UNL     1       1.774   7.110  20.257  0.00  0.00    +0.000 A 
BRANCH  12  15
ATOM     15  C   UNL     1       0.911  10.848  20.032  0.00  0.00    +0.000 C 
BRANCH  15  16
ATOM     16  O   UNL     1       0.862  11.047  21.438  0.00  0.00    +0.000 OA
ATOM     17  H   UNL     1       1.524  11.729  21.644  0.00  0.00    +0.000 HD
ENDBRANCH  15  16
ENDBRANCH  12  15
ENDBRANCH   6   9
BRANCH   1  18
ATOM     18  C   UNL     1       5.670   5.116  15.611  0.00  0.00    +0.000 C 
BRANCH  18  19
ATOM     19  C   UNL     1       6.588   5.609  16.734  0.00  0.00    +0.000 A 
ATOM     20  C   UNL     1       7.182   4.689  17.607  0.00  0.00    +0.000 A 
ATOM     21  C   UNL     1       7.983   5.132  18.664  0.00  0.00    +0.000 A 
ATOM     22  C   UNL     1       8.211   6.496  18.854  0.00  0.00    +0.000 A 
ATOM     23  C   UNL     1       7.646   7.420  17.984  0.00  0.00    +0.000 A 
ATOM     24  C   UNL     1       6.850   6.983  16.929  0.00  0.00    +0.000 A 
ENDBRANCH  18  19
BRANCH  18  25
ATOM     25  C   UNL     1       6.547   4.703  14.403  0.00  0.00    +0.000 C 
BRANCH  25  27
ATOM     26  C   UNL     1       6.723   3.581  12.116  0.00  0.00    +0.000 C 
ATOM     27  C   UNL     1       5.915   3.751  13.389  0.00  0.00    +0.000 C 
ENDBRANCH  25  27
ENDBRANCH  18  25
ENDBRANCH   1  18
TORSDOF 7
ENDMDL
MODEL 6
REMARK VINA RESULT:      -7.8      1.247      1.834
REMARK  Name = 
REMARK  8 active torsions:
REMARK  status: ('A' for Active; 'I' for Inactive)
REMARK    1  A    between atoms: C_1  and  C_2
REMARK    2  A    between atoms: C_2  and  C_3
REMARK    3  A    between atoms: C_3  and  C_4
REMARK    4  A    between atoms: C_4  and  N_5
REMARK    5  A    between atoms: C_4  and  C_20
REMARK    6  A    between atoms: C_10  and  C_11
REMARK    7  A    between atoms: C_14  and  C_15
REMARK    8  A    between atoms: C_15  and  O_16
REMARK                            x       y       z     vdW  Elec       q    Type
REMARK                         _______ _______ _______ _____ _____    ______ ____
ROOT
ATOM      1  N   UNL     1       4.909   4.106  16.037  0.00  0.00    +0.000 N 
ATOM      2  C   UNL     1       4.062   4.335  17.143  0.00  0.00    +0.000 A 
ATOM      3  C   UNL     1       3.644   3.222  17.890  0.00  0.00    +0.000 A 
ATOM      4  N   UNL     1       2.741   3.265  18.893  0.00  0.00    +0.000 NA
ATOM      5  C   UNL     1       2.251   4.497  19.136  0.00  0.00    +0.000 A 
ATOM      6  C   UNL     1       2.660   5.646  18.451  0.00  0.00    +0.000 A 
ATOM      7  N   UNL     1       3.554   5.563  17.422  0.00  0.00    +0.000 NA
ATOM      8  H   UNL     1       5.521   3.323  16.247  0.00  0.00    +0.000 HD
ENDROOT
BRANCH   6   9
ATOM      9  C   UNL     1       2.192   6.984  18.870  0.00  0.00    +0.000 A 
ATOM     10  C   UNL     1       1.819   7.214  20.209  0.00  0.00    +0.000 A 
ATOM     11  C   UNL     1       1.338   8.451  20.643  0.00  0.00    +0.000 A 
ATOM     12  C   UNL     1       1.226   9.520  19.753  0.00  0.00    +0.000 A 
ATOM     13  C   UNL     1       1.590   9.312  18.415  0.00  0.00    +0.000 A 
ATOM     14  C   UNL     1       2.078   8.065  17.982  0.00  0.00    +0.000 A 
BRANCH  12  15
ATOM     15  C   UNL     1       0.659  10.827  20.248  0.00  0.00    +0.000 C 
BRANCH  15  16
ATOM     16  O   UNL     1      -0.270  10.638  21.306  0.00  0.00    +0.000 OA
ATOM     17  H   UNL     1      -0.122  11.363  21.937  0.00  0.00    +0.000 HD
ENDBRANCH  15  16
ENDBRANCH  12  15
ENDBRANCH   6   9
BRANCH   1  18
ATOM     18  C   UNL     1       5.693   5.247  15.559  0.00  0.00    +0.000 C 
BRANCH  18  19
ATOM     19  C   UNL     1       6.551   5.770  16.715  0.00  0.00    +0.000 A 
ATOM     20  C   UNL     1       6.783   7.145  16.849  0.00  0.00    +0.000 A 
ATOM     21  C   UNL     1       7.603   7.628  17.872  0.00  0.00    +0.000 A 
ATOM     22  C   UNL     1       8.190   6.749  18.782  0.00  0.00    +0.000 A 
ATOM     23  C   UNL     1       7.953   5.384  18.677  0.00  0.00    +0.000 A 
ATOM     24  C   UNL     1       7.135   4.898  17.661  0.00  0.00    +0.000 A 
ENDBRANCH  18  19
BRANCH  18  25
ATOM     25  C   UNL     1       6.631   4.809  14.408  0.00  0.00    +0.000 C 
BRANCH  25  27
ATOM     26  C   UNL     1       6.703   3.673  12.122  0.00  0.00    +0.000 C 
ATOM     27  C   UNL     1       6.154   3.648  13.537  0.00  0.00    +0.000 C 
ENDBRANCH  25  27
ENDBRANCH  18  25
ENDBRANCH   1  18
TORSDOF 7
ENDMDL
MODEL 7
REMARK VINA RESULT:      -7.7      3.128      7.408
REMARK  Name = 
REMARK  8 active torsions:
REMARK  status: ('A' for Active; 'I' for Inactive)
REMARK    1  A    between atoms: C_1  and  C_2
REMARK    2  A    between atoms: C_2  and  C_3
REMARK    3  A    between atoms: C_3  and  C_4
REMARK    4  A    between atoms: C_4  and  N_5
REMARK    5  A    between atoms: C_4  and  C_20
REMARK    6  A    between atoms: C_10  and  C_11
REMARK    7  A    between atoms: C_14  and  C_15
REMARK    8  A    between atoms: C_15  and  O_16
REMARK                            x       y       z     vdW  Elec       q    Type
REMARK                         _______ _______ _______ _____ _____    ______ ____
ROOT
ATOM      1  N   UNL     1       4.228   6.510  19.292  0.00  0.00    +0.000 N 
ATOM      2  C   UNL     1       5.302   5.813  18.697  0.00  0.00    +0.000 A 
ATOM      3  C   UNL     1       6.380   5.445  19.519  0.00  0.00    +0.000 A 
ATOM      4  N   UNL     1       7.528   4.888  19.077  0.00  0.00    +0.000 NA
ATOM      5  C   UNL     1       7.567   4.702  17.742  0.00  0.00    +0.000 A 
ATOM      6  C   UNL     1       6.509   5.012  16.882  0.00  0.00    +0.000 A 
ATOM      7  N   UNL     1       5.373   5.601  17.358  0.00  0.00    +0.000 NA
ATOM      8  H   UNL     1       4.107   6.179  20.244  0.00  0.00    +0.000 HD
ENDROOT
BRANCH   6   9
ATOM      9  C   UNL     1       6.563   4.644  15.451  0.00  0.00    +0.000 A 
ATOM     10  C   UNL     1       5.626   3.735  14.920  0.00  0.00    +0.000 A 
ATOM     11  C   UNL     1       5.659   3.331  13.584  0.00  0.00    +0.000 A 
ATOM     12  C   UNL     1       6.627   3.835  12.715  0.00  0.00    +0.000 A 
ATOM     13  C   UNL     1       7.571   4.740  13.223  0.00  0.00    +0.000 A 
ATOM     14  C   UNL     1       7.532   5.147  14.569  0.00  0.00    +0.000 A 
BRANCH  12  15
ATOM     15  C   UNL     1       6.660   3.340  11.291  0.00  0.00    +0.000 C 
BRANCH  15  16
ATOM     16  O   UNL     1       7.335   2.095  11.176  0.00  0.00    +0.000 OA
ATOM     17  H   UNL     1       8.095   2.135  11.781  0.00  0.00    +0.000 HD
ENDBRANCH  15  16
ENDBRANCH  12  15
ENDBRANCH   6   9
BRANCH   1  18
ATOM     18  C   UNL     1       2.950   6.484  18.580  0.00  0.00    +0.000 C 
BRANCH  18  19
ATOM     19  C   UNL     1       2.193   5.213  18.977  0.00  0.00    +0.000 A 
ATOM     20  C   UNL     1       1.818   5.008  20.311  0.00  0.00    +0.000 A 
ATOM     21  C   UNL     1       1.170   3.830  20.691  0.00  0.00    +0.000 A 
ATOM     22  C   UNL     1       0.876   2.848  19.745  0.00  0.00    +0.000 A 
ATOM     23  C   UNL     1       1.221   3.044  18.413  0.00  0.00    +0.000 A 
ATOM     24  C   UNL     1       1.865   4.217  18.029  0.00  0.00    +0.000 A 
ENDBRANCH  18  19
BRANCH  18  25
ATOM     25  C   UNL     1       2.091   7.711  18.972  0.00  0.00    +0.000 C 
BRANCH  25  27
ATOM     26  C   UNL     1       0.950   9.898  18.310  0.00  0.00    +0.000 C 
ATOM     27  C   UNL     1       1.691   8.659  17.842  0.00  0.00    +0.000 C 
ENDBRANCH  25  27
ENDBRANCH  18  25
ENDBRANCH   1  18
TORSDOF 7
ENDMDL
MODEL 8
REMARK VINA RESULT:      -7.6      2.981      7.796
REMARK  Name = 
REMARK  8 active torsions:
REMARK  status: ('A' for Active; 'I' for Inactive)
REMARK    1  A    between atoms: C_1  and  C_2
REMARK    2  A    between atoms: C_2  and  C_3
REMARK    3  A    between atoms: C_3  and  C_4
REMARK    4  A    between atoms: C_4  and  N_5
REMARK    5  A    between atoms: C_4  and  C_20
REMARK    6  A    between atoms: C_10  and  C_11
REMARK    7  A    between atoms: C_14  and  C_15
REMARK    8  A    between atoms: C_15  and  O_16
REMARK                            x       y       z     vdW  Elec       q    Type
REMARK                         _______ _______ _______ _____ _____    ______ ____
ROOT
ATOM      1  N   UNL     1       1.027   9.420  20.087  0.00  0.00    +0.000 N 
ATOM      2  C   UNL     1       1.521   8.109  19.915  0.00  0.00    +0.000 A 
ATOM      3  C   UNL     1       1.181   7.148  20.882  0.00  0.00    +0.000 A 
ATOM      4  N   UNL     1       1.674   5.892  20.922  0.00  0.00    +0.000 NA
ATOM      5  C   UNL     1       2.547   5.614  19.934  0.00  0.00    +0.000 A 
ATOM      6  C   UNL     1       2.891   6.517  18.923  0.00  0.00    +0.000 A 
ATOM      7  N   UNL     1       2.396   7.790  18.927  0.00  0.00    +0.000 NA
ATOM      8  H   UNL     1       0.107   9.372  20.517  0.00  0.00    +0.000 HD
ENDROOT
BRANCH   6   9
ATOM      9  C   UNL     1       3.739   6.097  17.787  0.00  0.00    +0.000 A 
ATOM     10  C   UNL     1       3.876   4.729  17.477  0.00  0.00    +0.000 A 
ATOM     11  C   UNL     1       4.692   4.282  16.436  0.00  0.00    +0.000 A 
ATOM     12  C   UNL     1       5.396   5.192  15.647  0.00  0.00    +0.000 A 
ATOM     13  C   UNL     1       5.276   6.559  15.940  0.00  0.00    +0.000 A 
ATOM     14  C   UNL     1       4.449   7.005  16.987  0.00  0.00    +0.000 A 
BRANCH  12  15
ATOM     15  C   UNL     1       6.304   4.670  14.563  0.00  0.00    +0.000 C 
BRANCH  15  16
ATOM     16  O   UNL     1       7.577   5.301  14.584  0.00  0.00    +0.000 OA
ATOM     17  H   UNL     1       7.498   6.062  15.185  0.00  0.00    +0.000 HD
ENDBRANCH  15  16
ENDBRANCH  12  15
ENDBRANCH   6   9
BRANCH   1  18
ATOM     18  C   UNL     1       0.985  10.271  18.897  0.00  0.00    +0.000 C 
BRANCH  18  19
ATOM     19  C   UNL     1      -0.478  10.486  18.498  0.00  0.00    +0.000 A 
ATOM     20  C   UNL     1      -1.048   9.714  17.478  0.00  0.00    +0.000 A 
ATOM     21  C   UNL     1      -2.368   9.936  17.076  0.00  0.00    +0.000 A 
ATOM     22  C   UNL     1      -3.139  10.920  17.694  0.00  0.00    +0.000 A 
ATOM     23  C   UNL     1      -2.597  11.680  18.723  0.00  0.00    +0.000 A 
ATOM     24  C   UNL     1      -1.283  11.462  19.128  0.00  0.00    +0.000 A 
ENDBRANCH  18  19
BRANCH  18  25
ATOM     25  C   UNL     1       1.622  11.649  19.199  0.00  0.00    +0.000 C 
BRANCH  25  27
ATOM     26  C   UNL     1       2.799  13.746  18.339  0.00  0.00    +0.000 C 
ATOM     27  C   UNL     1       2.415  12.303  18.069  0.00  0.00    +0.000 C 
ENDBRANCH  25  27
ENDBRANCH  18  25
ENDBRANCH   1  18
TORSDOF 7
ENDMDL
MODEL 9
REMARK VINA RESULT:      -7.5      1.276      1.726
REMARK  Name = 
REMARK  8 active torsions:
REMARK  status: ('A' for Active; 'I' for Inactive)
REMARK    1  A    between atoms: C_1  and  C_2
REMARK    2  A    between atoms: C_2  and  C_3
REMARK    3  A    between atoms: C_3  and  C_4
REMARK    4  A    between atoms: C_4  and  N_5
REMARK    5  A    between atoms: C_4  and  C_20
REMARK    6  A    between atoms: C_10  and  C_11
REMARK    7  A    between atoms: C_14  and  C_15
REMARK    8  A    between atoms: C_15  and  O_16
REMARK                            x       y       z     vdW  Elec       q    Type
REMARK                         _______ _______ _______ _____ _____    ______ ____
ROOT
ATOM      1  N   UNL     1       4.279   4.877  17.293  0.00  0.00    +0.000 N 
ATOM      2  C   UNL     1       3.540   5.185  18.455  0.00  0.00    +0.000 A 
ATOM      3  C   UNL     1       3.297   4.148  19.371  0.00  0.00    +0.000 A 
ATOM      4  N   UNL     1       2.506   4.255  20.460  0.00  0.00    +0.000 NA
ATOM      5  C   UNL     1       1.946   5.472  20.613  0.00  0.00    +0.000 A 
ATOM      6  C   UNL     1       2.183   6.551  19.755  0.00  0.00    +0.000 A 
ATOM      7  N   UNL     1       2.966   6.401  18.646  0.00  0.00    +0.000 NA
ATOM      8  H   UNL     1       4.972   4.170  17.520  0.00  0.00    +0.000 HD
ENDROOT
BRANCH   6   9
ATOM      9  C   UNL     1       1.655   7.896  20.066  0.00  0.00    +0.000 A 
ATOM     10  C   UNL     1       1.229   8.202  21.374  0.00  0.00    +0.000 A 
ATOM     11  C   UNL     1       0.691   9.447  21.707  0.00  0.00    +0.000 A 
ATOM     12  C   UNL     1       0.572  10.448  20.743  0.00  0.00    +0.000 A 
ATOM     13  C   UNL     1       0.988  10.164  19.434  0.00  0.00    +0.000 A 
ATOM     14  C   UNL     1       1.533   8.910  19.103  0.00  0.00    +0.000 A 
BRANCH  12  15
ATOM     15  C   UNL     1      -0.057  11.763  21.128  0.00  0.00    +0.000 C 
BRANCH  15  16
ATOM     16  O   UNL     1      -1.035  12.182  20.186  0.00  0.00    +0.000 OA
ATOM     17  H   UNL     1      -0.551  12.456  19.388  0.00  0.00    +0.000 HD
ENDBRANCH  15  16
ENDBRANCH  12  15
ENDBRANCH   6   9
BRANCH   1  18
ATOM     18  C   UNL     1       4.912   6.000  16.597  0.00  0.00    +0.000 C 
BRANCH  18  19
ATOM     19  C   UNL     1       6.172   6.406  17.367  0.00  0.00    +0.000 A 
ATOM     20  C   UNL     1       6.710   5.547  18.333  0.00  0.00    +0.000 A 
ATOM     21  C   UNL     1       7.832   5.930  19.074  0.00  0.00    +0.000 A 
ATOM     22  C   UNL     1       8.438   7.167  18.851  0.00  0.00    +0.000 A 
ATOM     23  C   UNL     1       7.930   8.022  17.881  0.00  0.00    +0.000 A 
ATOM     24  C   UNL     1       6.814   7.645  17.140  0.00  0.00    +0.000 A 
ENDBRANCH  18  19
BRANCH  18  25
ATOM     25  C   UNL     1       5.323   5.581  15.165  0.00  0.00    +0.000 C 
BRANCH  25  27
ATOM     26  C   UNL     1       6.209   3.790  13.573  0.00  0.00    +0.000 C 
ATOM     27  C   UNL     1       5.990   4.214  15.014  0.00  0.00    +0.000 C 
ENDBRANCH  25  27
ENDBRANCH  18  25
ENDBRANCH   1  18
TORSDOF 7
ENDMDL
