MODEL 1
REMARK VINA RESULT:      -8.0      0.000      0.000
REMARK  Name = 
REMARK  8 active torsions:
REMARK  status: ('A' for Active; 'I' for Inactive)
REMARK    1  A    between atoms: C_2  and  C_3
REMARK    2  A    between atoms: C_3  and  N_4
REMARK    3  A    between atoms: C_5  and  S_6
REMARK    4  A    between atoms: S_6  and  C_7
REMARK    5  A    between atoms: C_7  and  C_8
REMARK    6  A    between atoms: C_14  and  C_15
REMARK    7  A    between atoms: C_22  and  C_23
REMARK    8  A    between atoms: C_27  and  C_28
REMARK                            x       y       z     vdW  Elec       q    Type
REMARK                         _______ _______ _______ _____ _____    ______ ____
ROOT
ATOM      1  N   UNL     1       5.530   6.205  17.947  0.00  0.00    +0.000 N 
ATOM      2  C   UNL     1       6.821   6.590  18.217  0.00  0.00    +0.000 A 
ATOM      3  N   UNL     1       7.381   5.735  19.034  0.00  0.00    +0.000 NA
ATOM      4  N   UNL     1       6.459   4.751  19.296  0.00  0.00    +0.000 NA
ATOM      5  C   UNL     1       5.330   5.024  18.652  0.00  0.00    +0.000 A 
ENDROOT
BRANCH   5   6
ATOM      6  C   UNL     1       4.149   4.139  18.638  0.00  0.00    +0.000 A 
ATOM      7  C   UNL     1       3.820   3.454  17.457  0.00  0.00    +0.000 A 
ATOM      8  C   UNL     1       2.665   2.666  17.374  0.00  0.00    +0.000 A 
ATOM      9  C   UNL     1       1.812   2.553  18.469  0.00  0.00    +0.000 A 
ATOM     10  C   UNL     1       2.131   3.193  19.667  0.00  0.00    +0.000 A 
ATOM     11  C   UNL     1       1.239   3.095  20.870  0.00  0.00    +0.000 C 
ATOM     12  C   UNL     1       3.317   3.941  19.748  0.00  0.00    +0.000 A 
ENDBRANCH   5   6
BRANCH   1  13
ATOM     13  C   UNL     1       4.590   6.906  17.089  0.00  0.00    +0.000 C 
BRANCH  13  15
ATOM     14  C   UNL     1       2.294   7.187  18.138  0.00  0.00    +0.000 C 
ATOM     15  C   UNL     1       3.502   7.663  17.800  0.00  0.00    +0.000 C 
ENDBRANCH  13  15
ENDBRANCH   1  13
BRANCH   2  16
ATOM     16  S   UNL     1       7.547   8.021  17.567  0.00  0.00    +0.000 S 
BRANCH  16  17
ATOM     17  C   UNL     1       8.801   8.441  18.806  0.00  0.00    +0.000 C 
BRANCH  17  18
ATOM     18  C   UNL     1       8.983   9.933  18.987  0.00  0.00    +0.000 A 
ATOM     19  C   UNL     1       9.059  10.729  17.914  0.00  0.00    +0.000 A 
ATOM     20  C   UNL     1       9.258  12.173  18.100  0.00  0.00    +0.000 A 
ATOM     21  O   UNL     1       9.363  12.890  17.106  0.00  0.00    +0.000 OA
ATOM     22  N   UNL     1       9.331  12.603  19.415  0.00  0.00    +0.000 N 
ATOM     23  C   UNL     1       9.489  13.960  19.675  0.00  0.00    +0.000 A 
ATOM     24  C   UNL     1       9.596  14.442  20.924  0.00  0.00    +0.000 A 
ATOM     25  C   UNL     1       9.755  15.901  21.224  0.00  0.00    +0.000 C 
ATOM     26  C   UNL     1       9.552  13.519  22.037  0.00  0.00    +0.000 A 
ATOM     27  C   UNL     1       9.394  12.206  21.832  0.00  0.00    +0.000 A 
ATOM     28  C   UNL     1       9.267  11.675  20.446  0.00  0.00    +0.000 A 
ATOM     29  N   UNL     1       9.113  10.396  20.277  0.00  0.00    +0.000 NA
ENDBRANCH  17  18
ENDBRANCH  16  17
ENDBRANCH   2  16
TORSDOF 6
ENDMDL
MODEL 2
REMARK VINA RESULT:      -8.0      6.396     10.007
REMARK  Name = 
REMARK  8 active torsions:
REMARK  status: ('A' for Active; 'I' for Inactive)
REMARK    1  A    between atoms: C_2  and  C_3
REMARK    2  A    between atoms: C_3  and  N_4
REMARK    3  A    between atoms: C_5  and  S_6
REMARK    4  A    between atoms: S_6  and  C_7
REMARK    5  A    between atoms: C_7  and  C_8
REMARK    6  A    between atoms: C_14  and  C_15
REMARK    7  A    between atoms: C_22  and  C_23
REMARK    8  A    between atoms: C_27  and  C_28
REMARK                            x       y       z     vdW  Elec       q    Type
REMARK                         _______ _______ _______ _____ _____    ______ ____
ROOT
ATOM      1  N   UNL     1      -0.070  10.686  21.152  0.00  0.00    +0.000 N 
ATOM      2  C   UNL     1       0.648   9.518  21.230  0.00  0.00    +0.000 A 
ATOM      3  N   UNL     1       0.732   9.127  22.477  0.00  0.00    +0.000 NA
ATOM      4  N   UNL     1       0.038  10.035  23.240  0.00  0.00    +0.000 NA
ATOM      5  C   UNL     1      -0.446  10.990  22.455  0.00  0.00    +0.000 A 
ENDROOT
BRANCH   5   6
ATOM      6  C   UNL     1      -1.314  12.087  22.925  0.00  0.00    +0.000 A 
ATOM      7  C   UNL     1      -2.637  11.804  23.296  0.00  0.00    +0.000 A 
ATOM      8  C   UNL     1      -3.520  12.824  23.673  0.00  0.00    +0.000 A 
ATOM      9  C   UNL     1      -3.096  14.152  23.678  0.00  0.00    +0.000 A 
ATOM     10  C   UNL     1      -1.776  14.461  23.348  0.00  0.00    +0.000 A 
ATOM     11  C   UNL     1      -1.281  15.877  23.344  0.00  0.00    +0.000 C 
ATOM     12  C   UNL     1      -0.892  13.421  23.018  0.00  0.00    +0.000 A 
ENDBRANCH   5   6
BRANCH   1  13
ATOM     13  C   UNL     1      -0.367  11.428  19.938  0.00  0.00    +0.000 C 
BRANCH  13  15
ATOM     14  C   UNL     1      -1.583  10.448  17.935  0.00  0.00    +0.000 C 
ATOM     15  C   UNL     1      -1.576  10.964  19.173  0.00  0.00    +0.000 C 
ENDBRANCH  13  15
ENDBRANCH   1  13
BRANCH   2  16
ATOM     16  S   UNL     1       1.344   8.731  19.855  0.00  0.00    +0.000 S 
BRANCH  16  17
ATOM     17  C   UNL     1       1.752   7.084  20.491  0.00  0.00    +0.000 C 
BRANCH  17  18
ATOM     18  C   UNL     1       2.483   6.221  19.484  0.00  0.00    +0.000 A 
ATOM     19  C   UNL     1       2.402   4.888  19.568  0.00  0.00    +0.000 A 
ATOM     20  C   UNL     1       3.133   4.057  18.600  0.00  0.00    +0.000 A 
ATOM     21  O   UNL     1       3.080   2.833  18.709  0.00  0.00    +0.000 OA
ATOM     22  N   UNL     1       3.851   4.750  17.639  0.00  0.00    +0.000 N 
ATOM     23  C   UNL     1       4.546   4.038  16.669  0.00  0.00    +0.000 A 
ATOM     24  C   UNL     1       5.285   4.644  15.726  0.00  0.00    +0.000 A 
ATOM     25  C   UNL     1       6.031   3.893  14.666  0.00  0.00    +0.000 C 
ATOM     26  C   UNL     1       5.367   6.088  15.722  0.00  0.00    +0.000 A 
ATOM     27  C   UNL     1       4.708   6.815  16.633  0.00  0.00    +0.000 A 
ATOM     28  C   UNL     1       3.882   6.139  17.673  0.00  0.00    +0.000 A 
ATOM     29  N   UNL     1       3.251   6.868  18.543  0.00  0.00    +0.000 NA
ENDBRANCH  17  18
ENDBRANCH  16  17
ENDBRANCH   2  16
TORSDOF 6
ENDMDL
MODEL 3
REMARK VINA RESULT:      -8.0      5.539      7.183
REMARK  Name = 
REMARK  8 active torsions:
REMARK  status: ('A' for Active; 'I' for Inactive)
REMARK    1  A    between atoms: C_2  and  C_3
REMARK    2  A    between atoms: C_3  and  N_4
REMARK    3  A    between atoms: C_5  and  S_6
REMARK    4  A    between atoms: S_6  and  C_7
REMARK    5  A    between atoms: C_7  and  C_8
REMARK    6  A    between atoms: C_14  and  C_15
REMARK    7  A    between atoms: C_22  and  C_23
REMARK    8  A    between atoms: C_27  and  C_28
REMARK                            x       y       z     vdW  Elec       q    Type
REMARK                         _______ _______ _______ _____ _____    ______ ____
ROOT
ATOM      1  N   UNL     1       5.196   4.816  16.851  0.00  0.00    +0.000 N 
ATOM      2  C   UNL     1       4.984   5.817  17.767  0.00  0.00    +0.000 A 
ATOM      3  N   UNL     1       5.390   6.962  17.278  0.00  0.00    +0.000 NA
ATOM      4  N   UNL     1       5.858   6.725  16.009  0.00  0.00    +0.000 NA
ATOM      5  C   UNL     1       5.756   5.429  15.737  0.00  0.00    +0.000 A 
ENDROOT
BRANCH   5   6
ATOM      6  C   UNL     1       6.089   4.827  14.432  0.00  0.00    +0.000 A 
ATOM      7  C   UNL     1       7.380   5.000  13.907  0.00  0.00    +0.000 A 
ATOM      8  C   UNL     1       7.717   4.513  12.637  0.00  0.00    +0.000 A 
ATOM      9  C   UNL     1       6.766   3.852  11.863  0.00  0.00    +0.000 A 
ATOM     10  C   UNL     1       5.486   3.635  12.373  0.00  0.00    +0.000 A 
ATOM     11  C   UNL     1       4.434   2.924  11.572  0.00  0.00    +0.000 C 
ATOM     12  C   UNL     1       5.178   4.087  13.666  0.00  0.00    +0.000 A 
ENDBRANCH   5   6
BRANCH   1  13
ATOM     13  C   UNL     1       4.882   3.409  17.036  0.00  0.00    +0.000 C 
BRANCH  13  15
ATOM     14  C   UNL     1       2.802   2.176  17.817  0.00  0.00    +0.000 C 
ATOM     15  C   UNL     1       3.418   3.063  17.021  0.00  0.00    +0.000 C 
ENDBRANCH  13  15
ENDBRANCH   1  13
BRANCH   2  16
ATOM     16  S   UNL     1       4.301   5.551  19.335  0.00  0.00    +0.000 S 
BRANCH  16  17
ATOM     17  C   UNL     1       2.523   5.754  19.045  0.00  0.00    +0.000 C 
BRANCH  17  18
ATOM     18  C   UNL     1       2.030   7.156  19.332  0.00  0.00    +0.000 A 
ATOM     19  C   UNL     1       2.162   8.111  18.404  0.00  0.00    +0.000 A 
ATOM     20  C   UNL     1       1.700   9.475  18.700  0.00  0.00    +0.000 A 
ATOM     21  O   UNL     1       1.861  10.352  17.853  0.00  0.00    +0.000 OA
ATOM     22  N   UNL     1       1.129   9.655  19.949  0.00  0.00    +0.000 N 
ATOM     23  C   UNL     1       0.640  10.909  20.295  0.00  0.00    +0.000 A 
ATOM     24  C   UNL     1       0.099  11.161  21.498  0.00  0.00    +0.000 A 
ATOM     25  C   UNL     1      -0.443  12.504  21.884  0.00  0.00    +0.000 C 
ATOM     26  C   UNL     1       0.030  10.094  22.472  0.00  0.00    +0.000 A 
ATOM     27  C   UNL     1       0.482   8.868  22.179  0.00  0.00    +0.000 A 
ATOM     28  C   UNL     1       1.073   8.590  20.839  0.00  0.00    +0.000 A 
ATOM     29  N   UNL     1       1.502   7.391  20.582  0.00  0.00    +0.000 NA
ENDBRANCH  17  18
ENDBRANCH  16  17
ENDBRANCH   2  16
TORSDOF 6
ENDMDL
MODEL 4
REMARK VINA RESULT:      -7.9      6.751     10.163
REMARK  Name = 
REMARK  8 active torsions:
REMARK  status: ('A' for Active; 'I' for Inactive)
REMARK    1  A    between atoms: C_2  and  C_3
REMARK    2  A    between atoms: C_3  and  N_4
REMARK    3  A    between atoms: C_5  and  S_6
REMARK    4  A    between atoms: S_6  and  C_7
REMARK    5  A    between atoms: C_7  and  C_8
REMARK    6  A    between atoms: C_14  and  C_15
REMARK    7  A    between atoms: C_22  and  C_23
REMARK    8  A    between atoms: C_27  and  C_28
REMARK                            x       y       z     vdW  Elec       q    Type
REMARK                         _______ _______ _______ _____ _____    ______ ____
ROOT
ATOM      1  N   UNL     1      -0.417  10.914  21.309  0.00  0.00    +0.000 N 
ATOM      2  C   UNL     1       0.421   9.831  21.424  0.00  0.00    +0.000 A 
ATOM      3  N   UNL     1       0.642   9.569  22.688  0.00  0.00    +0.000 NA
ATOM      4  N   UNL     1      -0.077  10.476  23.428  0.00  0.00    +0.000 NA
ATOM      5  C   UNL     1      -0.717  11.303  22.610  0.00  0.00    +0.000 A 
ENDROOT
BRANCH   5   6
ATOM      6  C   UNL     1      -1.651  12.354  23.057  0.00  0.00    +0.000 A 
ATOM      7  C   UNL     1      -1.154  13.635  23.344  0.00  0.00    +0.000 A 
ATOM      8  C   UNL     1      -1.989  14.641  23.846  0.00  0.00    +0.000 A 
ATOM      9  C   UNL     1      -3.338  14.382  24.080  0.00  0.00    +0.000 A 
ATOM     10  C   UNL     1      -3.868  13.129  23.771  0.00  0.00    +0.000 A 
ATOM     11  C   UNL     1      -5.316  12.811  24.006  0.00  0.00    +0.000 C 
ATOM     12  C   UNL     1      -3.027  12.146  23.224  0.00  0.00    +0.000 A 
ENDBRANCH   5   6
BRANCH   1  13
ATOM     13  C   UNL     1      -0.882  11.506  20.067  0.00  0.00    +0.000 C 
BRANCH  13  15
ATOM     14  C   UNL     1      -0.640  14.018  19.776  0.00  0.00    +0.000 C 
ATOM     15  C   UNL     1      -0.177  12.767  19.645  0.00  0.00    +0.000 C 
ENDBRANCH  13  15
ENDBRANCH   1  13
BRANCH   2  16
ATOM     16  S   UNL     1       1.081   8.986  20.066  0.00  0.00    +0.000 S 
BRANCH  16  17
ATOM     17  C   UNL     1       1.491   7.361  20.756  0.00  0.00    +0.000 C 
BRANCH  17  18
ATOM     18  C   UNL     1       2.251   6.478  19.790  0.00  0.00    +0.000 A 
ATOM     19  C   UNL     1       2.207   5.147  19.930  0.00  0.00    +0.000 A 
ATOM     20  C   UNL     1       2.966   4.298  19.001  0.00  0.00    +0.000 A 
ATOM     21  O   UNL     1       2.947   3.079  19.161  0.00  0.00    +0.000 OA
ATOM     22  N   UNL     1       3.668   4.970  18.013  0.00  0.00    +0.000 N 
ATOM     23  C   UNL     1       4.387   4.237  17.076  0.00  0.00    +0.000 A 
ATOM     24  C   UNL     1       5.112   4.824  16.110  0.00  0.00    +0.000 A 
ATOM     25  C   UNL     1       5.885   4.050  15.086  0.00  0.00    +0.000 C 
ATOM     26  C   UNL     1       5.153   6.268  16.046  0.00  0.00    +0.000 A 
ATOM     27  C   UNL     1       4.470   7.013  16.923  0.00  0.00    +0.000 A 
ATOM     28  C   UNL     1       3.659   6.359  17.988  0.00  0.00    +0.000 A 
ATOM     29  N   UNL     1       3.004   7.107  18.825  0.00  0.00    +0.000 NA
ENDBRANCH  17  18
ENDBRANCH  16  17
ENDBRANCH   2  16
TORSDOF 6
ENDMDL
MODEL 5
REMARK VINA RESULT:      -7.9      6.428      9.973
REMARK  Name = 
REMARK  8 active torsions:
REMARK  status: ('A' for Active; 'I' for Inactive)
REMARK    1  A    between atoms: C_2  and  C_3
REMARK    2  A    between atoms: C_3  and  N_4
REMARK    3  A    between atoms: C_5  and  S_6
REMARK    4  A    between atoms: S_6  and  C_7
REMARK    5  A    between atoms: C_7  and  C_8
REMARK    6  A    between atoms: C_14  and  C_15
REMARK    7  A    between atoms: C_22  and  C_23
REMARK    8  A    between atoms: C_27  and  C_28
REMARK                            x       y       z     vdW  Elec       q    Type
REMARK                         _______ _______ _______ _____ _____    ______ ____
ROOT
ATOM      1  N   UNL     1      -0.001  10.875  21.095  0.00  0.00    +0.000 N 
ATOM      2  C   UNL     1       0.828   9.788  21.235  0.00  0.00    +0.000 A 
ATOM      3  N   UNL     1       0.939   9.472  22.501  0.00  0.00    +0.000 NA
ATOM      4  N   UNL     1       0.155  10.346  23.214  0.00  0.00    +0.000 NA
ATOM      5  C   UNL     1      -0.415  11.207  22.380  0.00  0.00    +0.000 A 
ENDROOT
BRANCH   5   6
ATOM      6  C   UNL     1      -1.388  12.237  22.790  0.00  0.00    +0.000 A 
ATOM      7  C   UNL     1      -1.025  13.591  22.715  0.00  0.00    +0.000 A 
ATOM      8  C   UNL     1      -1.887  14.599  23.166  0.00  0.00    +0.000 A 
ATOM      9  C   UNL     1      -3.127  14.271  23.710  0.00  0.00    +0.000 A 
ATOM     10  C   UNL     1      -3.530  12.936  23.764  0.00  0.00    +0.000 A 
ATOM     11  C   UNL     1      -4.859  12.542  24.340  0.00  0.00    +0.000 C 
ATOM     12  C   UNL     1      -2.673  11.942  23.264  0.00  0.00    +0.000 A 
ENDBRANCH   5   6
BRANCH   1  13
ATOM     13  C   UNL     1      -0.359  11.521  19.843  0.00  0.00    +0.000 C 
BRANCH  13  15
ATOM     14  C   UNL     1      -1.451  10.289  17.909  0.00  0.00    +0.000 C 
ATOM     15  C   UNL     1      -1.511  10.902  19.100  0.00  0.00    +0.000 C 
ENDBRANCH  13  15
ENDBRANCH   1  13
BRANCH   2  16
ATOM     16  S   UNL     1       1.607   9.003  19.904  0.00  0.00    +0.000 S 
BRANCH  16  17
ATOM     17  C   UNL     1       1.791   7.297  20.488  0.00  0.00    +0.000 C 
BRANCH  17  18
ATOM     18  C   UNL     1       2.439   6.385  19.468  0.00  0.00    +0.000 A 
ATOM     19  C   UNL     1       2.184   5.072  19.494  0.00  0.00    +0.000 A 
ATOM     20  C   UNL     1       2.835   4.191  18.513  0.00  0.00    +0.000 A 
ATOM     21  O   UNL     1       2.621   2.981  18.569  0.00  0.00    +0.000 OA
ATOM     22  N   UNL     1       3.668   4.821  17.604  0.00  0.00    +0.000 N 
ATOM     23  C   UNL     1       4.299   4.061  16.625  0.00  0.00    +0.000 A 
ATOM     24  C   UNL     1       5.141   4.601  15.729  0.00  0.00    +0.000 A 
ATOM     25  C   UNL     1       5.821   3.800  14.661  0.00  0.00    +0.000 C 
ATOM     26  C   UNL     1       5.409   6.022  15.789  0.00  0.00    +0.000 A 
ATOM     27  C   UNL     1       4.818   6.793  16.710  0.00  0.00    +0.000 A 
ATOM     28  C   UNL     1       3.877   6.191  17.696  0.00  0.00    +0.000 A 
ATOM     29  N   UNL     1       3.316   6.963  18.578  0.00  0.00    +0.000 NA
ENDBRANCH  17  18
ENDBRANCH  16  17
ENDBRANCH   2  16
TORSDOF 6
ENDMDL
MODEL 6
REMARK VINA RESULT:      -7.9      4.625      7.290
REMARK  Name = 
REMARK  8 active torsions:
REMARK  status: ('A' for Active; 'I' for Inactive)
REMARK    1  A    between atoms: C_2  and  C_3
REMARK    2  A    between atoms: C_3  and  N_4
REMARK    3  A    between atoms: C_5  and  S_6
REMARK    4  A    between atoms: S_6  and  C_7
REMARK    5  A    between atoms: C_7  and  C_8
REMARK    6  A    between atoms: C_14  and  C_15
REMARK    7  A    between atoms: C_22  and  C_23
REMARK    8  A    between atoms: C_27  and  C_28
REMARK                            x       y       z     vdW  Elec       q    Type
REMARK                         _______ _______ _______ _____ _____    ______ ____
ROOT
ATOM      1  N   UNL     1       5.397   5.221  16.868  0.00  0.00    +0.000 N 
ATOM      2  C   UNL     1       4.810   4.750  18.016  0.00  0.00    +0.000 A 
ATOM      3  N   UNL     1       4.408   3.516  17.839  0.00  0.00    +0.000 NA
ATOM      4  N   UNL     1       4.753   3.150  16.560  0.00  0.00    +0.000 NA
ATOM      5  C   UNL     1       5.345   4.173  15.955  0.00  0.00    +0.000 A 
ENDROOT
BRANCH   5   6
ATOM      6  C   UNL     1       5.922   4.112  14.599  0.00  0.00    +0.000 A 
ATOM      7  C   UNL     1       7.058   4.883  14.302  0.00  0.00    +0.000 A 
ATOM      8  C   UNL     1       7.593   4.917  13.007  0.00  0.00    +0.000 A 
ATOM      9  C   UNL     1       6.997   4.186  11.982  0.00  0.00    +0.000 A 
ATOM     10  C   UNL     1       5.889   3.383  12.255  0.00  0.00    +0.000 A 
ATOM     11  C   UNL     1       5.220   2.579  11.179  0.00  0.00    +0.000 C 
ATOM     12  C   UNL     1       5.394   3.323  13.568  0.00  0.00    +0.000 A 
ENDBRANCH   5   6
BRANCH   1  13
ATOM     13  C   UNL     1       5.957   6.548  16.676  0.00  0.00    +0.000 C 
BRANCH  13  15
ATOM     14  C   UNL     1       7.809   7.791  17.893  0.00  0.00    +0.000 C 
ATOM     15  C   UNL     1       7.358   6.742  17.189  0.00  0.00    +0.000 C 
ENDBRANCH  13  15
ENDBRANCH   1  13
BRANCH   2  16
ATOM     16  S   UNL     1       4.627   5.696  19.454  0.00  0.00    +0.000 S 
BRANCH  16  17
ATOM     17  C   UNL     1       2.841   5.644  19.753  0.00  0.00    +0.000 C 
BRANCH  17  18
ATOM     18  C   UNL     1       2.188   7.009  19.699  0.00  0.00    +0.000 A 
ATOM     19  C   UNL     1       2.300   7.756  18.594  0.00  0.00    +0.000 A 
ATOM     20  C   UNL     1       1.682   9.089  18.559  0.00  0.00    +0.000 A 
ATOM     21  O   UNL     1       1.823   9.782  17.552  0.00  0.00    +0.000 OA
ATOM     22  N   UNL     1       0.996   9.461  19.703  0.00  0.00    +0.000 N 
ATOM     23  C   UNL     1       0.358  10.696  19.738  0.00  0.00    +0.000 A 
ATOM     24  C   UNL     1      -0.301  11.132  20.824  0.00  0.00    +0.000 A 
ATOM     25  C   UNL     1      -1.004  12.454  20.877  0.00  0.00    +0.000 C 
ATOM     26  C   UNL     1      -0.343  10.292  22.001  0.00  0.00    +0.000 A 
ATOM     27  C   UNL     1       0.251   9.092  22.009  0.00  0.00    +0.000 A 
ATOM     28  C   UNL     1       0.974   8.608  20.799  0.00  0.00    +0.000 A 
ATOM     29  N   UNL     1       1.540   7.439  20.834  0.00  0.00    +0.000 NA
ENDBRANCH  17  18
ENDBRANCH  16  17
ENDBRANCH   2  16
TORSDOF 6
ENDMDL
MODEL 7
REMARK VINA RESULT:      -7.8      6.178      9.395
REMARK  Name = 
REMARK  8 active torsions:
REMARK  status: ('A' for Active; 'I' for Inactive)
REMARK    1  A    between atoms: C_2  and  C_3
REMARK    2  A    between atoms: C_3  and  N_4
REMARK    3  A    between atoms: C_5  and  S_6
REMARK    4  A    between atoms: S_6  and  C_7
REMARK    5  A    between atoms: C_7  and  C_8
REMARK    6  A    between atoms: C_14  and  C_15
REMARK    7  A    between atoms: C_22  and  C_23
REMARK    8  A    between atoms: C_27  and  C_28
REMARK                            x       y       z     vdW  Elec       q    Type
REMARK                         _______ _______ _______ _____ _____    ______ ____
ROOT
ATOM      1  N   UNL     1       2.246   7.471  19.387  0.00  0.00    +0.000 N 
ATOM      2  C   UNL     1       1.627   8.688  19.237  0.00  0.00    +0.000 A 
ATOM      3  N   UNL     1       1.895   9.184  18.056  0.00  0.00    +0.000 NA
ATOM      4  N   UNL     1       2.687   8.274  17.398  0.00  0.00    +0.000 NA
ATOM      5  C   UNL     1       2.916   7.235  18.192  0.00  0.00    +0.000 A 
ENDROOT
BRANCH   5   6
ATOM      6  C   UNL     1       3.661   6.028  17.784  0.00  0.00    +0.000 A 
ATOM      7  C   UNL     1       2.949   4.872  17.427  0.00  0.00    +0.000 A 
ATOM      8  C   UNL     1       3.614   3.681  17.108  0.00  0.00    +0.000 A 
ATOM      9  C   UNL     1       5.006   3.621  17.150  0.00  0.00    +0.000 A 
ATOM     10  C   UNL     1       5.741   4.764  17.467  0.00  0.00    +0.000 A 
ATOM     11  C   UNL     1       7.240   4.741  17.519  0.00  0.00    +0.000 C 
ATOM     12  C   UNL     1       5.060   5.962  17.737  0.00  0.00    +0.000 A 
ENDBRANCH   5   6
BRANCH   1  13
ATOM     13  C   UNL     1       2.189   6.623  20.565  0.00  0.00    +0.000 C 
BRANCH  13  15
ATOM     14  C   UNL     1       1.522   4.177  20.736  0.00  0.00    +0.000 C 
ATOM     15  C   UNL     1       1.235   5.463  20.484  0.00  0.00    +0.000 C 
ENDBRANCH  13  15
ENDBRANCH   1  13
BRANCH   2  16
ATOM     16  S   UNL     1       0.664   9.428  20.470  0.00  0.00    +0.000 S 
BRANCH  16  17
ATOM     17  C   UNL     1       0.354  11.086  19.806  0.00  0.00    +0.000 C 
BRANCH  17  18
ATOM     18  C   UNL     1      -1.003  11.220  19.150  0.00  0.00    +0.000 A 
ATOM     19  C   UNL     1      -1.196  10.742  17.915  0.00  0.00    +0.000 A 
ATOM     20  C   UNL     1      -2.511  10.897  17.277  0.00  0.00    +0.000 A 
ATOM     21  O   UNL     1      -2.665  10.485  16.128  0.00  0.00    +0.000 OA
ATOM     22  N   UNL     1      -3.477  11.528  18.044  0.00  0.00    +0.000 N 
ATOM     23  C   UNL     1      -4.756  11.687  17.523  0.00  0.00    +0.000 A 
ATOM     24  C   UNL     1      -5.732  12.314  18.200  0.00  0.00    +0.000 A 
ATOM     25  C   UNL     1      -7.119  12.485  17.660  0.00  0.00    +0.000 C 
ATOM     26  C   UNL     1      -5.442  12.849  19.512  0.00  0.00    +0.000 A 
ATOM     27  C   UNL     1      -4.227  12.712  20.055  0.00  0.00    +0.000 A 
ATOM     28  C   UNL     1      -3.148  12.008  19.305  0.00  0.00    +0.000 A 
ATOM     29  N   UNL     1      -1.978  11.888  19.857  0.00  0.00    +0.000 NA
ENDBRANCH  17  18
ENDBRANCH  16  17
ENDBRANCH   2  16
TORSDOF 6
ENDMDL
MODEL 8
REMARK VINA RESULT:      -7.7      4.627      7.304
REMARK  Name = 
REMARK  8 active torsions:
REMARK  status: ('A' for Active; 'I' for Inactive)
REMARK    1  A    between atoms: C_2  and  C_3
REMARK    2  A    between atoms: C_3  and  N_4
REMARK    3  A    between atoms: C_5  and  S_6
REMARK    4  A    between atoms: S_6  and  C_7
REMARK    5  A    between atoms: C_7  and  C_8
REMARK    6  A    between atoms: C_14  and  C_15
REMARK    7  A    between atoms: C_22  and  C_23
REMARK    8  A    between atoms: C_27  and  C_28
REMARK                            x       y       z     vdW  Elec       q    Type
REMARK                         _______ _______ _______ _____ _____    ______ ____
ROOT
ATOM      1  N   UNL     1       5.584   4.876  16.956  0.00  0.00    +0.000 N 
ATOM      2  C   UNL     1       4.604   4.557  17.864  0.00  0.00    +0.000 A 
ATOM      3  N   UNL     1       3.626   3.928  17.261  0.00  0.00    +0.000 NA
ATOM      4  N   UNL     1       3.969   3.807  15.937  0.00  0.00    +0.000 NA
ATOM      5  C   UNL     1       5.147   4.382  15.733  0.00  0.00    +0.000 A 
ENDROOT
BRANCH   5   6
ATOM      6  C   UNL     1       5.864   4.370  14.443  0.00  0.00    +0.000 A 
ATOM      7  C   UNL     1       5.451   3.481  13.438  0.00  0.00    +0.000 A 
ATOM      8  C   UNL     1       6.148   3.379  12.228  0.00  0.00    +0.000 A 
ATOM      9  C   UNL     1       7.280   4.160  12.002  0.00  0.00    +0.000 A 
ATOM     10  C   UNL     1       7.694   5.078  12.968  0.00  0.00    +0.000 A 
ATOM     11  C   UNL     1       8.905   5.939  12.761  0.00  0.00    +0.000 C 
ATOM     12  C   UNL     1       6.955   5.201  14.156  0.00  0.00    +0.000 A 
ENDBRANCH   5   6
BRANCH   1  13
ATOM     13  C   UNL     1       6.820   5.583  17.247  0.00  0.00    +0.000 C 
BRANCH  13  15
ATOM     14  C   UNL     1       7.713   7.944  17.532  0.00  0.00    +0.000 C 
ATOM     15  C   UNL     1       6.707   7.081  17.330  0.00  0.00    +0.000 C 
ENDBRANCH  13  15
ENDBRANCH   1  13
BRANCH   2  16
ATOM     16  S   UNL     1       4.685   4.968  19.543  0.00  0.00    +0.000 S 
BRANCH  16  17
ATOM     17  C   UNL     1       2.940   5.118  20.010  0.00  0.00    +0.000 C 
BRANCH  17  18
ATOM     18  C   UNL     1       2.382   6.507  19.791  0.00  0.00    +0.000 A 
ATOM     19  C   UNL     1       2.558   7.116  18.612  0.00  0.00    +0.000 A 
ATOM     20  C   UNL     1       2.032   8.475  18.415  0.00  0.00    +0.000 A 
ATOM     21  O   UNL     1       2.232   9.038  17.340  0.00  0.00    +0.000 OA
ATOM     22  N   UNL     1       1.357   9.017  19.496  0.00  0.00    +0.000 N 
ATOM     23  C   UNL     1       0.803  10.287  19.380  0.00  0.00    +0.000 A 
ATOM     24  C   UNL     1       0.161  10.885  20.397  0.00  0.00    +0.000 A 
ATOM     25  C   UNL     1      -0.452  12.247  20.286  0.00  0.00    +0.000 C 
ATOM     26  C   UNL     1       0.047  10.188  21.659  0.00  0.00    +0.000 A 
ATOM     27  C   UNL     1       0.559   8.961  21.813  0.00  0.00    +0.000 A 
ATOM     28  C   UNL     1       1.264   8.297  20.680  0.00  0.00    +0.000 A 
ATOM     29  N   UNL     1       1.749   7.105  20.857  0.00  0.00    +0.000 NA
ENDBRANCH  17  18
ENDBRANCH  16  17
ENDBRANCH   2  16
TORSDOF 6
ENDMDL
MODEL 9
REMARK VINA RESULT:      -7.6      1.337      1.944
REMARK  Name = 
REMARK  8 active torsions:
REMARK  status: ('A' for Active; 'I' for Inactive)
REMARK    1  A    between atoms: C_2  and  C_3
REMARK    2  A    between atoms: C_3  and  N_4
REMARK    3  A    between atoms: C_5  and  S_6
REMARK    4  A    between atoms: S_6  and  C_7
REMARK    5  A    between atoms: C_7  and  C_8
REMARK    6  A    between atoms: C_14  and  C_15
REMARK    7  A    between atoms: C_22  and  C_23
REMARK    8  A    between atoms: C_27  and  C_28
REMARK                            x       y       z     vdW  Elec       q    Type
REMARK                         _______ _______ _______ _____ _____    ______ ____
ROOT
ATOM      1  N   UNL     1       5.532   6.142  17.874  0.00  0.00    +0.000 N 
ATOM      2  C   UNL     1       6.875   6.420  17.947  0.00  0.00    +0.000 A 
ATOM      3  N   UNL     1       7.507   5.424  18.517  0.00  0.00    +0.000 NA
ATOM      4  N   UNL     1       6.575   4.457  18.807  0.00  0.00    +0.000 NA
ATOM      5  C   UNL     1       5.372   4.879  18.433  0.00  0.00    +0.000 A 
ENDROOT
BRANCH   5   6
ATOM      6  C   UNL     1       4.145   4.065  18.518  0.00  0.00    +0.000 A 
ATOM      7  C   UNL     1       3.707   3.364  17.383  0.00  0.00    +0.000 A 
ATOM      8  C   UNL     1       2.507   2.642  17.394  0.00  0.00    +0.000 A 
ATOM      9  C   UNL     1       1.716   2.613  18.541  0.00  0.00    +0.000 A 
ATOM     10  C   UNL     1       2.143   3.270  19.696  0.00  0.00    +0.000 A 
ATOM     11  C   UNL     1       1.322   3.260  20.951  0.00  0.00    +0.000 C 
ATOM     12  C   UNL     1       3.372   3.950  19.681  0.00  0.00    +0.000 A 
ENDBRANCH   5   6
BRANCH   1  13
ATOM     13  C   UNL     1       4.509   7.010  17.315  0.00  0.00    +0.000 C 
BRANCH  13  15
ATOM     14  C   UNL     1       2.240   7.994  17.897  0.00  0.00    +0.000 C 
ATOM     15  C   UNL     1       3.349   7.314  18.224  0.00  0.00    +0.000 C 
ENDBRANCH  13  15
ENDBRANCH   1  13
BRANCH   2  16
ATOM     16  S   UNL     1       7.578   7.895  17.378  0.00  0.00    +0.000 S 
BRANCH  16  17
ATOM     17  C   UNL     1       8.714   8.348  18.716  0.00  0.00    +0.000 C 
BRANCH  17  18
ATOM     18  C   UNL     1       8.904   9.843  18.855  0.00  0.00    +0.000 A 
ATOM     19  C   UNL     1       9.694  10.326  19.822  0.00  0.00    +0.000 A 
ATOM     20  C   UNL     1       9.855  11.780  19.964  0.00  0.00    +0.000 A 
ATOM     21  O   UNL     1      10.554  12.213  20.879  0.00  0.00    +0.000 OA
ATOM     22  N   UNL     1       9.169  12.551  19.039  0.00  0.00    +0.000 N 
ATOM     23  C   UNL     1       9.293  13.935  19.088  0.00  0.00    +0.000 A 
ATOM     24  C   UNL     1       8.635  14.744  18.241  0.00  0.00    +0.000 A 
ATOM     25  C   UNL     1       8.765  16.236  18.271  0.00  0.00    +0.000 C 
ATOM     26  C   UNL     1       7.761  14.156  17.250  0.00  0.00    +0.000 A 
ATOM     27  C   UNL     1       7.617  12.828  17.163  0.00  0.00    +0.000 A 
ATOM     28  C   UNL     1       8.356  11.934  18.098  0.00  0.00    +0.000 A 
ATOM     29  N   UNL     1       8.199  10.649  17.990  0.00  0.00    +0.000 NA
ENDBRANCH  17  18
ENDBRANCH  16  17
ENDBRANCH   2  16
TORSDOF 6
ENDMDL
