MODEL 1
REMARK VINA RESULT:      -8.2      0.000      0.000
REMARK  Name = 
REMARK  6 active torsions:
REMARK  status: ('A' for Active; 'I' for Inactive)
REMARK    1  A    between atoms: C_1  and  C_2
REMARK    2  A    between atoms: C_2  and  C_3
REMARK    3  A    between atoms: C_2  and  N_4
REMARK    4  A    between atoms: C_11  and  C_12
REMARK    5  A    between atoms: C_22  and  C_23
REMARK    6  A    between atoms: C_29  and  O_30
REMARK                            x       y       z     vdW  Elec       q    Type
REMARK                         _______ _______ _______ _____ _____    ______ ____
ROOT
ATOM      1  N   UNL     1      -0.120  13.593  22.351  0.00  0.00    +0.000 NA
ATOM      2  C   UNL     1      -0.903  12.351  22.337  0.00  0.00    +0.000 C 
ATOM      3  C   UNL     1      -0.093  11.141  21.862  0.00  0.00    +0.000 C 
ATOM      4  C   UNL     1       0.523  11.368  20.469  0.00  0.00    +0.000 C 
ATOM      5  C   UNL     1       1.405  12.626  20.600  0.00  0.00    +0.000 C 
ATOM      6  C   UNL     1       0.610  13.839  21.095  0.00  0.00    +0.000 C 
ATOM      7  N   UNL     1       1.412  10.245  20.167  0.00  0.00    +0.000 NA
ATOM      8  C   UNL     1       1.057   9.338  19.323  0.00  0.00    +0.000 C 
ATOM      9  C   UNL     1      -0.269   9.339  18.589  0.00  0.00    +0.000 C 
ATOM     10  C   UNL     1      -1.213  10.421  19.074  0.00  0.00    +0.000 C 
ATOM     11  N   UNL     1      -0.446  11.616  19.404  0.00  0.00    +0.000 NA
ATOM     12  H   UNL     1      -1.095  12.346  19.693  0.00  0.00    +0.000 HD
ENDROOT
BRANCH   8  13
ATOM     13  C   UNL     1       2.022   8.237  18.984  0.00  0.00    +0.000 A 
ATOM     14  C   UNL     1       2.745   8.296  17.768  0.00  0.00    +0.000 A 
ATOM     15  C   UNL     1       3.606   7.255  17.393  0.00  0.00    +0.000 A 
ATOM     16  C   UNL     1       3.716   6.175  18.242  0.00  0.00    +0.000 A 
ATOM     17  C   UNL     1       3.024   6.120  19.427  0.00  0.00    +0.000 A 
ATOM     18  C   UNL     1       2.178   7.130  19.828  0.00  0.00    +0.000 A 
ATOM     19  O   UNL     1       3.256   4.972  20.117  0.00  0.00    +0.000 OA
ATOM     20  C   UNL     1       4.135   4.285  19.204  0.00  0.00    +0.000 C 
ATOM     21  O   UNL     1       4.472   5.065  18.036  0.00  0.00    +0.000 OA
ENDBRANCH   8  13
BRANCH  10  22
ATOM     22  C   UNL     1      -2.266  10.721  18.014  0.00  0.00    +0.000 A 
ATOM     23  C   UNL     1      -2.135  10.216  16.706  0.00  0.00    +0.000 A 
ATOM     24  C   UNL     1      -3.077  10.520  15.726  0.00  0.00    +0.000 A 
ATOM     25 CL   UNL     1      -2.871   9.921  14.126  0.00  0.00    +0.000 Cl
ATOM     26  C   UNL     1      -4.178  11.314  16.031  0.00  0.00    +0.000 A 
ATOM     27  C   UNL     1      -4.350  11.792  17.331  0.00  0.00    +0.000 A 
ATOM     28  C   UNL     1      -3.403  11.486  18.313  0.00  0.00    +0.000 A 
BRANCH  28  29
ATOM     29  O   UNL     1      -3.583  11.935  19.591  0.00  0.00    +0.000 OA
ATOM     30  H   UNL     1      -4.467  11.672  19.897  0.00  0.00    +0.000 HD
ENDBRANCH  28  29
ENDBRANCH  10  22
BRANCH   1  32
ATOM     31  C   UNL     1      -1.968  15.275  21.813  0.00  0.00    +0.000 C 
ATOM     32  C   UNL     1      -0.879  14.793  22.784  0.00  0.00    +0.000 C 
ATOM     33  C   UNL     1      -1.489  14.603  24.179  0.00  0.00    +0.000 C 
ENDBRANCH   1  32
TORSDOF 4
ENDMDL
MODEL 2
REMARK VINA RESULT:      -8.0      1.703      2.403
REMARK  Name = 
REMARK  6 active torsions:
REMARK  status: ('A' for Active; 'I' for Inactive)
REMARK    1  A    between atoms: C_1  and  C_2
REMARK    2  A    between atoms: C_2  and  C_3
REMARK    3  A    between atoms: C_2  and  N_4
REMARK    4  A    between atoms: C_11  and  C_12
REMARK    5  A    between atoms: C_22  and  C_23
REMARK    6  A    between atoms: C_29  and  O_30
REMARK                            x       y       z     vdW  Elec       q    Type
REMARK                         _______ _______ _______ _____ _____    ______ ____
ROOT
ATOM      1  N   UNL     1       1.786  14.874  19.541  0.00  0.00    +0.000 NA
ATOM      2  C   UNL     1       0.940  13.975  20.336  0.00  0.00    +0.000 C 
ATOM      3  C   UNL     1       1.416  12.520  20.300  0.00  0.00    +0.000 C 
ATOM      4  C   UNL     1       1.518  11.980  18.861  0.00  0.00    +0.000 C 
ATOM      5  C   UNL     1       2.500  12.918  18.130  0.00  0.00    +0.000 C 
ATOM      6  C   UNL     1       2.044  14.380  18.177  0.00  0.00    +0.000 C 
ATOM      7  N   UNL     1       2.138  10.655  18.906  0.00  0.00    +0.000 NA
ATOM      8  C   UNL     1       1.427   9.594  18.732  0.00  0.00    +0.000 C 
ATOM      9  C   UNL     1      -0.067   9.610  18.477  0.00  0.00    +0.000 C 
ATOM     10  C   UNL     1      -0.676  10.990  18.618  0.00  0.00    +0.000 C 
ATOM     11  N   UNL     1       0.263  11.985  18.115  0.00  0.00    +0.000 NA
ATOM     12  H   UNL     1      -0.173  12.903  18.182  0.00  0.00    +0.000 HD
ENDROOT
BRANCH   8  13
ATOM     13  C   UNL     1       2.106   8.254  18.714  0.00  0.00    +0.000 A 
ATOM     14  C   UNL     1       1.961   7.385  19.823  0.00  0.00    +0.000 A 
ATOM     15  C   UNL     1       2.632   6.155  19.865  0.00  0.00    +0.000 A 
ATOM     16  C   UNL     1       3.439   5.828  18.797  0.00  0.00    +0.000 A 
ATOM     17  C   UNL     1       3.574   6.663  17.716  0.00  0.00    +0.000 A 
ATOM     18  C   UNL     1       2.921   7.873  17.640  0.00  0.00    +0.000 A 
ATOM     19  O   UNL     1       4.420   6.169  16.774  0.00  0.00    +0.000 OA
ATOM     20  C   UNL     1       4.846   4.948  17.411  0.00  0.00    +0.000 C 
ATOM     21  O   UNL     1       4.188   4.700  18.672  0.00  0.00    +0.000 OA
ENDBRANCH   8  13
BRANCH  10  22
ATOM     22  C   UNL     1      -2.005  11.063  17.874  0.00  0.00    +0.000 A 
ATOM     23  C   UNL     1      -2.128  10.549  16.569  0.00  0.00    +0.000 A 
ATOM     24  C   UNL     1      -3.330  10.649  15.873  0.00  0.00    +0.000 A 
ATOM     25 CL   UNL     1      -3.440  10.046  14.266  0.00  0.00    +0.000 Cl
ATOM     26  C   UNL     1      -4.439  11.243  16.468  0.00  0.00    +0.000 A 
ATOM     27  C   UNL     1      -4.352  11.722  17.775  0.00  0.00    +0.000 A 
ATOM     28  C   UNL     1      -3.144  11.622  18.471  0.00  0.00    +0.000 A 
BRANCH  28  29
ATOM     29  O   UNL     1      -3.065  12.072  19.759  0.00  0.00    +0.000 OA
ATOM     30  H   UNL     1      -3.941  12.387  20.038  0.00  0.00    +0.000 HD
ENDBRANCH  28  29
ENDBRANCH  10  22
BRANCH   1  32
ATOM     31  C   UNL     1       2.036  17.197  18.506  0.00  0.00    +0.000 C 
ATOM     32  C   UNL     1       1.341  16.290  19.534  0.00  0.00    +0.000 C 
ATOM     33  C   UNL     1      -0.179  16.404  19.368  0.00  0.00    +0.000 C 
ENDBRANCH   1  32
TORSDOF 4
ENDMDL
MODEL 3
REMARK VINA RESULT:      -8.0      1.518      1.943
REMARK  Name = 
REMARK  6 active torsions:
REMARK  status: ('A' for Active; 'I' for Inactive)
REMARK    1  A    between atoms: C_1  and  C_2
REMARK    2  A    between atoms: C_2  and  C_3
REMARK    3  A    between atoms: C_2  and  N_4
REMARK    4  A    between atoms: C_11  and  C_12
REMARK    5  A    between atoms: C_22  and  C_23
REMARK    6  A    between atoms: C_29  and  O_30
REMARK                            x       y       z     vdW  Elec       q    Type
REMARK                         _______ _______ _______ _____ _____    ______ ____
ROOT
ATOM      1  N   UNL     1       1.294  14.963  20.016  0.00  0.00    +0.000 NA
ATOM      2  C   UNL     1       0.437  13.983  20.694  0.00  0.00    +0.000 C 
ATOM      3  C   UNL     1       0.985  12.555  20.614  0.00  0.00    +0.000 C 
ATOM      4  C   UNL     1       1.218  12.105  19.159  0.00  0.00    +0.000 C 
ATOM      5  C   UNL     1       2.203  13.126  18.556  0.00  0.00    +0.000 C 
ATOM      6  C   UNL     1       1.675  14.562  18.650  0.00  0.00    +0.000 C 
ATOM      7  N   UNL     1       1.896  10.808  19.178  0.00  0.00    +0.000 NA
ATOM      8  C   UNL     1       1.252   9.729  18.893  0.00  0.00    +0.000 C 
ATOM      9  C   UNL     1      -0.219   9.693  18.527  0.00  0.00    +0.000 C 
ATOM     10  C   UNL     1      -0.903  11.035  18.698  0.00  0.00    +0.000 C 
ATOM     11  N   UNL     1       0.021  12.097  18.322  0.00  0.00    +0.000 NA
ATOM     12  H   UNL     1      -0.463  12.990  18.406  0.00  0.00    +0.000 HD
ENDROOT
BRANCH   8  13
ATOM     13  C   UNL     1       1.995   8.423  18.853  0.00  0.00    +0.000 A 
ATOM     14  C   UNL     1       2.817   8.124  17.740  0.00  0.00    +0.000 A 
ATOM     15  C   UNL     1       3.473   6.889  17.643  0.00  0.00    +0.000 A 
ATOM     16  C   UNL     1       3.284   5.980  18.661  0.00  0.00    +0.000 A 
ATOM     17  C   UNL     1       2.496   6.271  19.747  0.00  0.00    +0.000 A 
ATOM     18  C   UNL     1       1.845   7.478  19.876  0.00  0.00    +0.000 A 
ATOM     19  O   UNL     1       2.426   5.244  20.634  0.00  0.00    +0.000 OA
ATOM     20  C   UNL     1       3.219   4.250  19.956  0.00  0.00    +0.000 C 
ATOM     21  O   UNL     1       3.810   4.728  18.728  0.00  0.00    +0.000 OA
ENDBRANCH   8  13
BRANCH  10  22
ATOM     22  C   UNL     1      -2.175  11.092  17.861  0.00  0.00    +0.000 A 
ATOM     23  C   UNL     1      -2.203  10.563  16.556  0.00  0.00    +0.000 A 
ATOM     24  C   UNL     1      -3.354  10.648  15.776  0.00  0.00    +0.000 A 
ATOM     25 CL   UNL     1      -3.347  10.028  14.171  0.00  0.00    +0.000 Cl
ATOM     26  C   UNL     1      -4.505  11.242  16.284  0.00  0.00    +0.000 A 
ATOM     27  C   UNL     1      -4.513  11.736  17.589  0.00  0.00    +0.000 A 
ATOM     28  C   UNL     1      -3.357  11.651  18.369  0.00  0.00    +0.000 A 
BRANCH  28  29
ATOM     29  O   UNL     1      -3.372  12.114  19.655  0.00  0.00    +0.000 OA
ATOM     30  H   UNL     1      -2.466  12.351  19.915  0.00  0.00    +0.000 HD
ENDBRANCH  28  29
ENDBRANCH  10  22
BRANCH   1  32
ATOM     31  C   UNL     1       1.817  17.432  20.420  0.00  0.00    +0.000 C 
ATOM     32  C   UNL     1       0.783  16.356  20.053  0.00  0.00    +0.000 C 
ATOM     33  C   UNL     1       0.094  16.741  18.737  0.00  0.00    +0.000 C 
ENDBRANCH   1  32
TORSDOF 4
ENDMDL
MODEL 4
REMARK VINA RESULT:      -7.9      0.626      1.316
REMARK  Name = 
REMARK  6 active torsions:
REMARK  status: ('A' for Active; 'I' for Inactive)
REMARK    1  A    between atoms: C_1  and  C_2
REMARK    2  A    between atoms: C_2  and  C_3
REMARK    3  A    between atoms: C_2  and  N_4
REMARK    4  A    between atoms: C_11  and  C_12
REMARK    5  A    between atoms: C_22  and  C_23
REMARK    6  A    between atoms: C_29  and  O_30
REMARK                            x       y       z     vdW  Elec       q    Type
REMARK                         _______ _______ _______ _____ _____    ______ ____
ROOT
ATOM      1  N   UNL     1       0.010  13.542  22.249  0.00  0.00    +0.000 NA
ATOM      2  C   UNL     1      -0.790  12.310  22.252  0.00  0.00    +0.000 C 
ATOM      3  C   UNL     1      -0.002  11.086  21.775  0.00  0.00    +0.000 C 
ATOM      4  C   UNL     1       0.602  11.296  20.373  0.00  0.00    +0.000 C 
ATOM      5  C   UNL     1       1.502  12.542  20.487  0.00  0.00    +0.000 C 
ATOM      6  C   UNL     1       0.730  13.769  20.983  0.00  0.00    +0.000 C 
ATOM      7  N   UNL     1       1.472  10.159  20.070  0.00  0.00    +0.000 NA
ATOM      8  C   UNL     1       1.095   9.252  19.235  0.00  0.00    +0.000 C 
ATOM      9  C   UNL     1      -0.239   9.266  18.515  0.00  0.00    +0.000 C 
ATOM     10  C   UNL     1      -1.162  10.365  19.004  0.00  0.00    +0.000 C 
ATOM     11  N   UNL     1      -0.375  11.551  19.318  0.00  0.00    +0.000 NA
ATOM     12  H   UNL     1      -1.011  12.292  19.610  0.00  0.00    +0.000 HD
ENDROOT
BRANCH   8  13
ATOM     13  C   UNL     1       2.041   8.136  18.892  0.00  0.00    +0.000 A 
ATOM     14  C   UNL     1       2.189   7.049  19.786  0.00  0.00    +0.000 A 
ATOM     15  C   UNL     1       3.110   6.024  19.526  0.00  0.00    +0.000 A 
ATOM     16  C   UNL     1       3.865   6.117  18.377  0.00  0.00    +0.000 A 
ATOM     17  C   UNL     1       3.716   7.164  17.502  0.00  0.00    +0.000 A 
ATOM     18  C   UNL     1       2.815   8.182  17.725  0.00  0.00    +0.000 A 
ATOM     19  O   UNL     1       4.557   7.082  16.438  0.00  0.00    +0.000 OA
ATOM     20  C   UNL     1       5.293   5.887  16.770  0.00  0.00    +0.000 C 
ATOM     21  O   UNL     1       4.823   5.241  17.973  0.00  0.00    +0.000 OA
ENDBRANCH   8  13
BRANCH  10  22
ATOM     22  C   UNL     1      -2.223  10.672  17.954  0.00  0.00    +0.000 A 
ATOM     23  C   UNL     1      -2.112  10.161  16.647  0.00  0.00    +0.000 A 
ATOM     24  C   UNL     1      -3.061  10.472  15.675  0.00  0.00    +0.000 A 
ATOM     25 CL   UNL     1      -2.878   9.865  14.076  0.00  0.00    +0.000 Cl
ATOM     26  C   UNL     1      -4.149  11.280  15.989  0.00  0.00    +0.000 A 
ATOM     27  C   UNL     1      -4.301  11.764  17.289  0.00  0.00    +0.000 A 
ATOM     28  C   UNL     1      -3.348  11.452  18.262  0.00  0.00    +0.000 A 
BRANCH  28  29
ATOM     29  O   UNL     1      -3.509  11.907  19.540  0.00  0.00    +0.000 OA
ATOM     30  H   UNL     1      -3.960  11.224  20.064  0.00  0.00    +0.000 HD
ENDBRANCH  28  29
ENDBRANCH  10  22
BRANCH   1  32
ATOM     31  C   UNL     1      -1.668  15.368  21.635  0.00  0.00    +0.000 C 
ATOM     32  C   UNL     1      -0.727  14.754  22.683  0.00  0.00    +0.000 C 
ATOM     33  C   UNL     1      -1.504  14.509  23.982  0.00  0.00    +0.000 C 
ENDBRANCH   1  32
TORSDOF 4
ENDMDL
MODEL 5
REMARK VINA RESULT:      -7.6      2.868      4.121
REMARK  Name = 
REMARK  6 active torsions:
REMARK  status: ('A' for Active; 'I' for Inactive)
REMARK    1  A    between atoms: C_1  and  C_2
REMARK    2  A    between atoms: C_2  and  C_3
REMARK    3  A    between atoms: C_2  and  N_4
REMARK    4  A    between atoms: C_11  and  C_12
REMARK    5  A    between atoms: C_22  and  C_23
REMARK    6  A    between atoms: C_29  and  O_30
REMARK                            x       y       z     vdW  Elec       q    Type
REMARK                         _______ _______ _______ _____ _____    ______ ____
ROOT
ATOM      1  N   UNL     1      -2.839  12.667  22.021  0.00  0.00    +0.000 NA
ATOM      2  C   UNL     1      -2.711  12.610  20.559  0.00  0.00    +0.000 C 
ATOM      3  C   UNL     1      -1.890  11.411  20.078  0.00  0.00    +0.000 C 
ATOM      4  C   UNL     1      -0.486  11.378  20.711  0.00  0.00    +0.000 C 
ATOM      5  C   UNL     1      -0.715  11.335  22.235  0.00  0.00    +0.000 C 
ATOM      6  C   UNL     1      -1.554  12.520  22.727  0.00  0.00    +0.000 C 
ATOM      7  N   UNL     1       0.162  10.122  20.335  0.00  0.00    +0.000 NA
ATOM      8  C   UNL     1       1.098  10.108  19.448  0.00  0.00    +0.000 C 
ATOM      9  C   UNL     1       1.598  11.344  18.728  0.00  0.00    +0.000 C 
ATOM     10  C   UNL     1       0.771  12.578  19.028  0.00  0.00    +0.000 C 
ATOM     11  N   UNL     1       0.344  12.545  20.421  0.00  0.00    +0.000 NA
ATOM     12  H   UNL     1      -0.180  13.396  20.618  0.00  0.00    +0.000 HD
ENDROOT
BRANCH   8  13
ATOM     13  C   UNL     1       1.791   8.812  19.137  0.00  0.00    +0.000 A 
ATOM     14  C   UNL     1       2.409   8.638  17.875  0.00  0.00    +0.000 A 
ATOM     15  C   UNL     1       3.009   7.419  17.530  0.00  0.00    +0.000 A 
ATOM     16  C   UNL     1       2.970   6.400  18.456  0.00  0.00    +0.000 A 
ATOM     17  C   UNL     1       2.380   6.568  19.685  0.00  0.00    +0.000 A 
ATOM     18  C   UNL     1       1.790   7.755  20.057  0.00  0.00    +0.000 A 
ATOM     19  O   UNL     1       2.433   5.446  20.450  0.00  0.00    +0.000 OA
ATOM     20  C   UNL     1       3.078   4.532  19.540  0.00  0.00    +0.000 C 
ATOM     21  O   UNL     1       3.468   5.146  18.293  0.00  0.00    +0.000 OA
ENDBRANCH   8  13
BRANCH  10  22
ATOM     22  C   UNL     1       1.572  13.840  18.730  0.00  0.00    +0.000 A 
ATOM     23  C   UNL     1       2.929  13.760  18.360  0.00  0.00    +0.000 A 
ATOM     24  C   UNL     1       3.673  14.914  18.124  0.00  0.00    +0.000 A 
ATOM     25 CL   UNL     1       5.338  14.788  17.710  0.00  0.00    +0.000 Cl
ATOM     26  C   UNL     1       3.080  16.168  18.232  0.00  0.00    +0.000 A 
ATOM     27  C   UNL     1       1.726  16.269  18.557  0.00  0.00    +0.000 A 
ATOM     28  C   UNL     1       0.982  15.110  18.794  0.00  0.00    +0.000 A 
BRANCH  28  29
ATOM     29  O   UNL     1      -0.349  15.209  19.091  0.00  0.00    +0.000 OA
ATOM     30  H   UNL     1      -0.864  15.084  18.277  0.00  0.00    +0.000 HD
ENDBRANCH  28  29
ENDBRANCH  10  22
BRANCH   1  32
ATOM     31  C   UNL     1      -5.051  13.946  22.006  0.00  0.00    +0.000 C 
ATOM     32  C   UNL     1      -3.609  13.830  22.526  0.00  0.00    +0.000 C 
ATOM     33  C   UNL     1      -3.616  13.881  24.059  0.00  0.00    +0.000 C 
ENDBRANCH   1  32
TORSDOF 4
ENDMDL
MODEL 6
REMARK VINA RESULT:      -7.6      2.117      2.526
REMARK  Name = 
REMARK  6 active torsions:
REMARK  status: ('A' for Active; 'I' for Inactive)
REMARK    1  A    between atoms: C_1  and  C_2
REMARK    2  A    between atoms: C_2  and  C_3
REMARK    3  A    between atoms: C_2  and  N_4
REMARK    4  A    between atoms: C_11  and  C_12
REMARK    5  A    between atoms: C_22  and  C_23
REMARK    6  A    between atoms: C_29  and  O_30
REMARK                            x       y       z     vdW  Elec       q    Type
REMARK                         _______ _______ _______ _____ _____    ______ ____
ROOT
ATOM      1  N   UNL     1       0.413  15.700  20.353  0.00  0.00    +0.000 NA
ATOM      2  C   UNL     1      -0.295  14.664  21.115  0.00  0.00    +0.000 C 
ATOM      3  C   UNL     1       0.332  13.275  20.958  0.00  0.00    +0.000 C 
ATOM      4  C   UNL     1       0.426  12.846  19.482  0.00  0.00    +0.000 C 
ATOM      5  C   UNL     1       1.268  13.931  18.782  0.00  0.00    +0.000 C 
ATOM      6  C   UNL     1       0.661  15.329  18.949  0.00  0.00    +0.000 C 
ATOM      7  N   UNL     1       1.184  11.596  19.411  0.00  0.00    +0.000 NA
ATOM      8  C   UNL     1       0.583  10.478  19.189  0.00  0.00    +0.000 C 
ATOM      9  C   UNL     1      -0.914  10.347  18.992  0.00  0.00    +0.000 C 
ATOM     10  C   UNL     1      -1.660  11.640  19.253  0.00  0.00    +0.000 C 
ATOM     11  N   UNL     1      -0.856  12.762  18.786  0.00  0.00    +0.000 NA
ATOM     12  H   UNL     1      -1.384  13.621  18.934  0.00  0.00    +0.000 HD
ENDROOT
BRANCH   8  13
ATOM     13  C   UNL     1       1.400   9.224  19.051  0.00  0.00    +0.000 A 
ATOM     14  C   UNL     1       2.164   9.016  17.878  0.00  0.00    +0.000 A 
ATOM     15  C   UNL     1       2.887   7.829  17.692  0.00  0.00    +0.000 A 
ATOM     16  C   UNL     1       2.820   6.875  18.684  0.00  0.00    +0.000 A 
ATOM     17  C   UNL     1       2.088   7.078  19.827  0.00  0.00    +0.000 A 
ATOM     18  C   UNL     1       1.375   8.236  20.044  0.00  0.00    +0.000 A 
ATOM     19  O   UNL     1       2.139   6.018  20.677  0.00  0.00    +0.000 OA
ATOM     20  C   UNL     1       2.945   5.100  19.912  0.00  0.00    +0.000 C 
ATOM     21  O   UNL     1       3.424   5.657  18.669  0.00  0.00    +0.000 OA
ENDBRANCH   8  13
BRANCH  10  22
ATOM     22  C   UNL     1      -3.020  11.616  18.567  0.00  0.00    +0.000 A 
ATOM     23  C   UNL     1      -4.207  11.718  19.318  0.00  0.00    +0.000 A 
ATOM     24  C   UNL     1      -5.453  11.659  18.696  0.00  0.00    +0.000 A 
ATOM     25 CL   UNL     1      -6.886  11.748  19.643  0.00  0.00    +0.000 Cl
ATOM     26  C   UNL     1      -5.543  11.517  17.315  0.00  0.00    +0.000 A 
ATOM     27  C   UNL     1      -4.379  11.455  16.547  0.00  0.00    +0.000 A 
ATOM     28  C   UNL     1      -3.131  11.514  17.172  0.00  0.00    +0.000 A 
BRANCH  28  29
ATOM     29  O   UNL     1      -1.992  11.475  16.418  0.00  0.00    +0.000 OA
ATOM     30  H   UNL     1      -1.602  12.365  16.390  0.00  0.00    +0.000 HD
ENDBRANCH  28  29
ENDBRANCH  10  22
BRANCH   1  32
ATOM     31  C   UNL     1      -0.880  17.577  19.198  0.00  0.00    +0.000 C 
ATOM     32  C   UNL     1      -0.179  17.056  20.463  0.00  0.00    +0.000 C 
ATOM     33  C   UNL     1      -1.139  17.160  21.655  0.00  0.00    +0.000 C 
ENDBRANCH   1  32
TORSDOF 4
ENDMDL
MODEL 7
REMARK VINA RESULT:      -7.6      2.244      2.899
REMARK  Name = 
REMARK  6 active torsions:
REMARK  status: ('A' for Active; 'I' for Inactive)
REMARK    1  A    between atoms: C_1  and  C_2
REMARK    2  A    between atoms: C_2  and  C_3
REMARK    3  A    between atoms: C_2  and  N_4
REMARK    4  A    between atoms: C_11  and  C_12
REMARK    5  A    between atoms: C_22  and  C_23
REMARK    6  A    between atoms: C_29  and  O_30
REMARK                            x       y       z     vdW  Elec       q    Type
REMARK                         _______ _______ _______ _____ _____    ______ ____
ROOT
ATOM      1  N   UNL     1       0.602  15.752  19.935  0.00  0.00    +0.000 NA
ATOM      2  C   UNL     1      -0.173  14.859  20.807  0.00  0.00    +0.000 C 
ATOM      3  C   UNL     1       0.365  13.425  20.821  0.00  0.00    +0.000 C 
ATOM      4  C   UNL     1       0.436  12.819  19.407  0.00  0.00    +0.000 C 
ATOM      5  C   UNL     1       1.346  13.759  18.592  0.00  0.00    +0.000 C 
ATOM      6  C   UNL     1       0.830  15.202  18.588  0.00  0.00    +0.000 C 
ATOM      7  N   UNL     1       1.114  11.525  19.491  0.00  0.00    +0.000 NA
ATOM      8  C   UNL     1       0.444  10.428  19.397  0.00  0.00    +0.000 C 
ATOM      9  C   UNL     1      -1.058  10.369  19.202  0.00  0.00    +0.000 C 
ATOM     10  C   UNL     1      -1.721  11.728  19.301  0.00  0.00    +0.000 C 
ATOM     11  N   UNL     1      -0.847  12.734  18.713  0.00  0.00    +0.000 NA
ATOM     12  H   UNL     1      -1.320  13.636  18.753  0.00  0.00    +0.000 HD
ENDROOT
BRANCH   8  13
ATOM     13  C   UNL     1       1.180   9.118  19.417  0.00  0.00    +0.000 A 
ATOM     14  C   UNL     1       1.147   8.318  20.584  0.00  0.00    +0.000 A 
ATOM     15  C   UNL     1       1.874   7.122  20.657  0.00  0.00    +0.000 A 
ATOM     16  C   UNL     1       2.623   6.759  19.559  0.00  0.00    +0.000 A 
ATOM     17  C   UNL     1       2.649   7.527  18.421  0.00  0.00    +0.000 A 
ATOM     18  C   UNL     1       1.939   8.702  18.315  0.00  0.00    +0.000 A 
ATOM     19  O   UNL     1       3.453   7.007  17.456  0.00  0.00    +0.000 OA
ATOM     20  C   UNL     1       3.974   5.848  18.138  0.00  0.00    +0.000 C 
ATOM     21  O   UNL     1       3.411   5.656  19.454  0.00  0.00    +0.000 OA
ENDBRANCH   8  13
BRANCH  10  22
ATOM     22  C   UNL     1      -3.079  11.708  18.609  0.00  0.00    +0.000 A 
ATOM     23  C   UNL     1      -4.266  11.882  19.347  0.00  0.00    +0.000 A 
ATOM     24  C   UNL     1      -5.510  11.827  18.722  0.00  0.00    +0.000 A 
ATOM     25 CL   UNL     1      -6.944  12.005  19.654  0.00  0.00    +0.000 Cl
ATOM     26  C   UNL     1      -5.597  11.617  17.349  0.00  0.00    +0.000 A 
ATOM     27  C   UNL     1      -4.433  11.483  16.591  0.00  0.00    +0.000 A 
ATOM     28  C   UNL     1      -3.186  11.538  17.221  0.00  0.00    +0.000 A 
BRANCH  28  29
ATOM     29  O   UNL     1      -2.046  11.429  16.476  0.00  0.00    +0.000 OA
ATOM     30  H   UNL     1      -2.289  11.312  15.542  0.00  0.00    +0.000 HD
ENDBRANCH  28  29
ENDBRANCH  10  22
BRANCH   1  32
ATOM     31  C   UNL     1      -0.776  17.484  18.658  0.00  0.00    +0.000 C 
ATOM     32  C   UNL     1       0.096  17.146  19.878  0.00  0.00    +0.000 C 
ATOM     33  C   UNL     1      -0.652  17.529  21.161  0.00  0.00    +0.000 C 
ENDBRANCH   1  32
TORSDOF 4
ENDMDL
MODEL 8
REMARK VINA RESULT:      -7.5      1.823      2.030
REMARK  Name = 
REMARK  6 active torsions:
REMARK  status: ('A' for Active; 'I' for Inactive)
REMARK    1  A    between atoms: C_1  and  C_2
REMARK    2  A    between atoms: C_2  and  C_3
REMARK    3  A    between atoms: C_2  and  N_4
REMARK    4  A    between atoms: C_11  and  C_12
REMARK    5  A    between atoms: C_22  and  C_23
REMARK    6  A    between atoms: C_29  and  O_30
REMARK                            x       y       z     vdW  Elec       q    Type
REMARK                         _______ _______ _______ _____ _____    ______ ____
ROOT
ATOM      1  N   UNL     1       1.960  14.688  19.745  0.00  0.00    +0.000 NA
ATOM      2  C   UNL     1       1.174  13.687  20.477  0.00  0.00    +0.000 C 
ATOM      3  C   UNL     1       1.663  12.255  20.239  0.00  0.00    +0.000 C 
ATOM      4  C   UNL     1       1.680  11.891  18.743  0.00  0.00    +0.000 C 
ATOM      5  C   UNL     1       2.604  12.925  18.070  0.00  0.00    +0.000 C 
ATOM      6  C   UNL     1       2.138  14.364  18.319  0.00  0.00    +0.000 C 
ATOM      7  N   UNL     1       2.315  10.581  18.593  0.00  0.00    +0.000 NA
ATOM      8  C   UNL     1       1.605   9.535  18.337  0.00  0.00    +0.000 C 
ATOM      9  C   UNL     1       0.098   9.555  18.177  0.00  0.00    +0.000 C 
ATOM     10  C   UNL     1      -0.515  10.898  18.518  0.00  0.00    +0.000 C 
ATOM     11  N   UNL     1       0.380  11.961  18.080  0.00  0.00    +0.000 NA
ATOM     12  H   UNL     1      -0.060  12.858  18.282  0.00  0.00    +0.000 HD
ENDROOT
BRANCH   8  13
ATOM     13  C   UNL     1       2.296   8.219  18.119  0.00  0.00    +0.000 A 
ATOM     14  C   UNL     1       3.578   8.195  17.520  0.00  0.00    +0.000 A 
ATOM     15  C   UNL     1       4.221   6.981  17.245  0.00  0.00    +0.000 A 
ATOM     16  C   UNL     1       3.561   5.817  17.572  0.00  0.00    +0.000 A 
ATOM     17  C   UNL     1       2.322   5.836  18.163  0.00  0.00    +0.000 A 
ATOM     18  C   UNL     1       1.667   7.012  18.454  0.00  0.00    +0.000 A 
ATOM     19  O   UNL     1       1.833   4.589  18.397  0.00  0.00    +0.000 OA
ATOM     20  C   UNL     1       2.886   3.780  17.835  0.00  0.00    +0.000 C 
ATOM     21  O   UNL     1       4.009   4.552  17.357  0.00  0.00    +0.000 OA
ENDBRANCH   8  13
BRANCH  10  22
ATOM     22  C   UNL     1      -1.888  11.035  17.870  0.00  0.00    +0.000 A 
ATOM     23  C   UNL     1      -2.126  10.532  16.577  0.00  0.00    +0.000 A 
ATOM     24  C   UNL     1      -3.370  10.690  15.968  0.00  0.00    +0.000 A 
ATOM     25 CL   UNL     1      -3.621  10.099  14.372  0.00  0.00    +0.000 Cl
ATOM     26  C   UNL     1      -4.405  11.332  16.640  0.00  0.00    +0.000 A 
ATOM     27  C   UNL     1      -4.203  11.802  17.938  0.00  0.00    +0.000 A 
ATOM     28  C   UNL     1      -2.955  11.644  18.547  0.00  0.00    +0.000 A 
BRANCH  28  29
ATOM     29  O   UNL     1      -2.764  12.084  19.826  0.00  0.00    +0.000 OA
ATOM     30  H   UNL     1      -2.971  13.033  19.868  0.00  0.00    +0.000 HD
ENDBRANCH  28  29
ENDBRANCH  10  22
BRANCH   1  32
ATOM     31  C   UNL     1       0.112  16.412  19.361  0.00  0.00    +0.000 C 
ATOM     32  C   UNL     1       1.501  16.087  19.933  0.00  0.00    +0.000 C 
ATOM     33  C   UNL     1       1.555  16.507  21.407  0.00  0.00    +0.000 C 
ENDBRANCH   1  32
TORSDOF 4
ENDMDL
MODEL 9
REMARK VINA RESULT:      -7.4      2.780      7.143
REMARK  Name = 
REMARK  6 active torsions:
REMARK  status: ('A' for Active; 'I' for Inactive)
REMARK    1  A    between atoms: C_1  and  C_2
REMARK    2  A    between atoms: C_2  and  C_3
REMARK    3  A    between atoms: C_2  and  N_4
REMARK    4  A    between atoms: C_11  and  C_12
REMARK    5  A    between atoms: C_22  and  C_23
REMARK    6  A    between atoms: C_29  and  O_30
REMARK                            x       y       z     vdW  Elec       q    Type
REMARK                         _______ _______ _______ _____ _____    ______ ____
ROOT
ATOM      1  N   UNL     1       2.804  14.575  20.073  0.00  0.00    +0.000 NA
ATOM      2  C   UNL     1       2.656  13.865  18.797  0.00  0.00    +0.000 C 
ATOM      3  C   UNL     1       1.192  13.619  18.418  0.00  0.00    +0.000 C 
ATOM      4  C   UNL     1       0.430  12.855  19.517  0.00  0.00    +0.000 C 
ATOM      5  C   UNL     1       0.550  13.718  20.789  0.00  0.00    +0.000 C 
ATOM      6  C   UNL     1       2.011  13.988  21.167  0.00  0.00    +0.000 C 
ATOM      7  N   UNL     1      -0.987  12.814  19.154  0.00  0.00    +0.000 NA
ATOM      8  C   UNL     1      -1.518  11.725  18.713  0.00  0.00    +0.000 C 
ATOM      9  C   UNL     1      -0.757  10.428  18.526  0.00  0.00    +0.000 C 
ATOM     10  C   UNL     1       0.735  10.581  18.747  0.00  0.00    +0.000 C 
ATOM     11  N   UNL     1       0.966  11.532  19.827  0.00  0.00    +0.000 NA
ATOM     12  H   UNL     1       1.970  11.598  19.990  0.00  0.00    +0.000 HD
ENDROOT
BRANCH   8  13
ATOM     13  C   UNL     1      -2.991  11.698  18.416  0.00  0.00    +0.000 A 
ATOM     14  C   UNL     1      -3.441  11.217  17.163  0.00  0.00    +0.000 A 
ATOM     15  C   UNL     1      -4.803  11.238  16.832  0.00  0.00    +0.000 A 
ATOM     16  C   UNL     1      -5.682  11.746  17.763  0.00  0.00    +0.000 A 
ATOM     17  C   UNL     1      -5.250  12.204  18.983  0.00  0.00    +0.000 A 
ATOM     18  C   UNL     1      -3.921  12.189  19.342  0.00  0.00    +0.000 A 
ATOM     19  O   UNL     1      -6.265  12.676  19.755  0.00  0.00    +0.000 OA
ATOM     20  C   UNL     1      -7.382  12.512  18.857  0.00  0.00    +0.000 C 
ATOM     21  O   UNL     1      -7.027  11.875  17.612  0.00  0.00    +0.000 OA
ENDBRANCH   8  13
BRANCH  10  22
ATOM     22  C   UNL     1       1.366   9.230  19.061  0.00  0.00    +0.000 A 
ATOM     23  C   UNL     1       2.226   8.606  18.137  0.00  0.00    +0.000 A 
ATOM     24  C   UNL     1       2.775   7.354  18.405  0.00  0.00    +0.000 A 
ATOM     25 CL   UNL     1       3.791   6.598  17.241  0.00  0.00    +0.000 Cl
ATOM     26  C   UNL     1       2.496   6.707  19.605  0.00  0.00    +0.000 A 
ATOM     27  C   UNL     1       1.679   7.325  20.553  0.00  0.00    +0.000 A 
ATOM     28  C   UNL     1       1.129   8.581  20.281  0.00  0.00    +0.000 A 
BRANCH  28  29
ATOM     29  O   UNL     1       0.348   9.196  21.219  0.00  0.00    +0.000 OA
ATOM     30  H   UNL     1       0.438   8.724  22.064  0.00  0.00    +0.000 HD
ENDBRANCH  28  29
ENDBRANCH  10  22
BRANCH   1  32
ATOM     31  C   UNL     1       5.164  15.253  19.364  0.00  0.00    +0.000 C 
ATOM     32  C   UNL     1       4.211  14.811  20.485  0.00  0.00    +0.000 C 
ATOM     33  C   UNL     1       4.300  15.805  21.650  0.00  0.00    +0.000 C 
ENDBRANCH   1  32
TORSDOF 4
ENDMDL
