MODEL 1
REMARK VINA RESULT:     -10.3      0.000      0.000
REMARK  Name = 
REMARK  5 active torsions:
REMARK  status: ('A' for Active; 'I' for Inactive)
REMARK    1  A    between atoms: C_2  and  C_4
REMARK    2  A    between atoms: N_7  and  C_8
REMARK    3  A    between atoms: C_8  and  C_9
REMARK    4  A    between atoms: C_13  and  C_14
REMARK    5  A    between atoms: C_26  and  C_27
REMARK                            x       y       z     vdW  Elec       q    Type
REMARK                         _______ _______ _______ _____ _____    ______ ____
ROOT
ATOM      1  C   UNL     1       2.590   7.193  19.455  0.00  0.00    +0.000 C 
ATOM      2  O   UNL     1       2.214   7.193  20.627  0.00  0.00    +0.000 OA
ATOM      3  N   UNL     1       3.492   6.273  18.943  0.00  0.00    +0.000 N 
ATOM      4  N   UNL     1       4.088   6.441  17.728  0.00  0.00    +0.000 NA
ATOM      5  C   UNL     1       4.853   5.412  17.520  0.00  0.00    +0.000 C 
ATOM      6  C   UNL     1       4.854   4.395  18.636  0.00  0.00    +0.000 C 
ATOM      7  C   UNL     1       3.898   5.053  19.631  0.00  0.00    +0.000 C 
ENDROOT
BRANCH   5   8
ATOM      8  C   UNL     1       5.669   5.242  16.288  0.00  0.00    +0.000 A 
ATOM      9  C   UNL     1       5.148   4.459  15.325  0.00  0.00    +0.000 A 
ATOM     10  C   UNL     1       5.853   4.254  14.072  0.00  0.00    +0.000 A 
ATOM     11  C   UNL     1       5.338   3.455  13.048  0.00  0.00    +0.000 A 
ATOM     12  C   UNL     1       6.045   3.315  11.849  0.00  0.00    +0.000 A 
ATOM     13  C   UNL     1       7.267   3.972  11.670  0.00  0.00    +0.000 A 
ATOM     14  C   UNL     1       7.787   4.763  12.692  0.00  0.00    +0.000 A 
ATOM     15  C   UNL     1       7.071   4.892  13.878  0.00  0.00    +0.000 A 
ATOM     16  O   UNL     1       7.629   5.695  14.886  0.00  0.00    +0.000 OA
ATOM     17  C   UNL     1       6.986   5.895  16.103  0.00  0.00    +0.000 A 
ATOM     18  O   UNL     1       7.503   6.584  16.973  0.00  0.00    +0.000 OA
ENDBRANCH   5   8
BRANCH   7  19
ATOM     19  C   UNL     1       2.716   4.157  19.957  0.00  0.00    +0.000 A 
ATOM     20  C   UNL     1       1.845   3.736  18.942  0.00  0.00    +0.000 A 
ATOM     21  C   UNL     1       0.778   2.883  19.233  0.00  0.00    +0.000 A 
ATOM     22  C   UNL     1       0.569   2.443  20.539  0.00  0.00    +0.000 A 
ATOM     23  C   UNL     1       1.425   2.854  21.558  0.00  0.00    +0.000 A 
ATOM     24  C   UNL     1       2.491   3.705  21.269  0.00  0.00    +0.000 A 
ENDBRANCH   7  19
BRANCH   1  25
ATOM     25  C   UNL     1       2.022   8.186  18.429  0.00  0.00    +0.000 C 
BRANCH  25  29
ATOM     26  C   UNL     1       0.045  11.912  19.420  0.00  0.00    +0.000 C 
ATOM     27  C   UNL     1       1.407  11.928  18.723  0.00  0.00    +0.000 C 
ATOM     28  C   UNL     1       1.739  10.581  18.080  0.00  0.00    +0.000 C 
ATOM     29  N   UNL     1       1.696   9.494  19.068  0.00  0.00    +0.000 NA
ATOM     30  C   UNL     1       0.378   9.401  19.712  0.00  0.00    +0.000 C 
ATOM     31  C   UNL     1      -0.037  10.717  20.375  0.00  0.00    +0.000 C 
BRANCH  26  33
ATOM     32  N   UNL     1      -1.010  12.865  17.435  0.00  0.00    +0.000 N 
ATOM     33  C   UNL     1      -1.105  11.923  18.419  0.00  0.00    +0.000 C 
ATOM     34  O   UNL     1      -2.080  11.183  18.469  0.00  0.00    +0.000 OA
ATOM     35  H   UNL     1      -1.790  12.943  16.794  0.00  0.00    +0.000 HD
ATOM     36  H   UNL     1      -0.322  13.604  17.449  0.00  0.00    +0.000 HD
ENDBRANCH  26  33
ENDBRANCH  25  29
ENDBRANCH   1  25
TORSDOF 5
ENDMDL
MODEL 2
REMARK VINA RESULT:     -10.0      0.845      1.015
REMARK  Name = 
REMARK  5 active torsions:
REMARK  status: ('A' for Active; 'I' for Inactive)
REMARK    1  A    between atoms: C_2  and  C_4
REMARK    2  A    between atoms: N_7  and  C_8
REMARK    3  A    between atoms: C_8  and  C_9
REMARK    4  A    between atoms: C_13  and  C_14
REMARK    5  A    between atoms: C_26  and  C_27
REMARK                            x       y       z     vdW  Elec       q    Type
REMARK                         _______ _______ _______ _____ _____    ______ ____
ROOT
ATOM      1  C   UNL     1       2.531   7.336  19.473  0.00  0.00    +0.000 C 
ATOM      2  O   UNL     1       2.139   7.342  20.640  0.00  0.00    +0.000 OA
ATOM      3  N   UNL     1       3.448   6.420  18.980  0.00  0.00    +0.000 N 
ATOM      4  N   UNL     1       4.058   6.583  17.772  0.00  0.00    +0.000 NA
ATOM      5  C   UNL     1       4.835   5.560  17.583  0.00  0.00    +0.000 C 
ATOM      6  C   UNL     1       4.832   4.553  18.708  0.00  0.00    +0.000 C 
ATOM      7  C   UNL     1       3.857   5.210  19.684  0.00  0.00    +0.000 C 
ENDROOT
BRANCH   5   8
ATOM      8  C   UNL     1       5.669   5.387  16.363  0.00  0.00    +0.000 A 
ATOM      9  C   UNL     1       5.182   4.568  15.413  0.00  0.00    +0.000 A 
ATOM     10  C   UNL     1       5.905   4.356  14.171  0.00  0.00    +0.000 A 
ATOM     11  C   UNL     1       5.425   3.519  13.161  0.00  0.00    +0.000 A 
ATOM     12  C   UNL     1       6.149   3.374  11.972  0.00  0.00    +0.000 A 
ATOM     13  C   UNL     1       7.352   4.063  11.790  0.00  0.00    +0.000 A 
ATOM     14  C   UNL     1       7.838   4.892  12.799  0.00  0.00    +0.000 A 
ATOM     15  C   UNL     1       7.106   5.026  13.976  0.00  0.00    +0.000 A 
ATOM     16  O   UNL     1       7.629   5.868  14.970  0.00  0.00    +0.000 OA
ATOM     17  C   UNL     1       6.968   6.075  16.176  0.00  0.00    +0.000 A 
ATOM     18  O   UNL     1       7.455   6.798  17.036  0.00  0.00    +0.000 OA
ENDBRANCH   5   8
BRANCH   7  19
ATOM     19  C   UNL     1       2.679   4.305  20.004  0.00  0.00    +0.000 A 
ATOM     20  C   UNL     1       1.843   3.842  18.977  0.00  0.00    +0.000 A 
ATOM     21  C   UNL     1       0.781   2.982  19.263  0.00  0.00    +0.000 A 
ATOM     22  C   UNL     1       0.543   2.575  20.575  0.00  0.00    +0.000 A 
ATOM     23  C   UNL     1       1.364   3.028  21.605  0.00  0.00    +0.000 A 
ATOM     24  C   UNL     1       2.425   3.887  21.321  0.00  0.00    +0.000 A 
ENDBRANCH   7  19
BRANCH   1  25
ATOM     25  C   UNL     1       1.967   8.313  18.430  0.00  0.00    +0.000 C 
BRANCH  25  29
ATOM     26  C   UNL     1      -0.912  11.441  19.271  0.00  0.00    +0.000 C 
ATOM     27  C   UNL     1       0.004  10.923  20.382  0.00  0.00    +0.000 C 
ATOM     28  C   UNL     1       1.208  10.163  19.825  0.00  0.00    +0.000 C 
ATOM     29  N   UNL     1       0.783   9.048  18.966  0.00  0.00    +0.000 NA
ATOM     30  C   UNL     1      -0.044   9.514  17.845  0.00  0.00    +0.000 C 
ATOM     31  C   UNL     1      -1.271  10.298  18.317  0.00  0.00    +0.000 C 
BRANCH  26  33
ATOM     32  N   UNL     1      -0.910  12.964  17.362  0.00  0.00    +0.000 N 
ATOM     33  C   UNL     1      -0.298  12.627  18.536  0.00  0.00    +0.000 C 
ATOM     34  O   UNL     1       0.688  13.247  18.913  0.00  0.00    +0.000 OA
ATOM     35  H   UNL     1      -0.487  13.704  16.817  0.00  0.00    +0.000 HD
ATOM     36  H   UNL     1      -1.613  12.384  16.925  0.00  0.00    +0.000 HD
ENDBRANCH  26  33
ENDBRANCH  25  29
ENDBRANCH   1  25
TORSDOF 5
ENDMDL
MODEL 3
REMARK VINA RESULT:      -9.0      1.242      1.638
REMARK  Name = 
REMARK  5 active torsions:
REMARK  status: ('A' for Active; 'I' for Inactive)
REMARK    1  A    between atoms: C_2  and  C_4
REMARK    2  A    between atoms: N_7  and  C_8
REMARK    3  A    between atoms: C_8  and  C_9
REMARK    4  A    between atoms: C_13  and  C_14
REMARK    5  A    between atoms: C_26  and  C_27
REMARK                            x       y       z     vdW  Elec       q    Type
REMARK                         _______ _______ _______ _____ _____    ______ ____
ROOT
ATOM      1  C   UNL     1       2.251   7.563  18.907  0.00  0.00    +0.000 C 
ATOM      2  O   UNL     1       1.864   7.743  20.063  0.00  0.00    +0.000 OA
ATOM      3  N   UNL     1       3.264   6.679  18.570  0.00  0.00    +0.000 N 
ATOM      4  N   UNL     1       3.849   6.682  17.339  0.00  0.00    +0.000 NA
ATOM      5  C   UNL     1       4.736   5.735  17.323  0.00  0.00    +0.000 C 
ATOM      6  C   UNL     1       4.850   4.959  18.614  0.00  0.00    +0.000 C 
ATOM      7  C   UNL     1       3.810   5.674  19.475  0.00  0.00    +0.000 C 
ENDROOT
BRANCH   5   8
ATOM      8  C   UNL     1       5.581   5.432  16.136  0.00  0.00    +0.000 A 
ATOM      9  C   UNL     1       5.043   4.622  15.206  0.00  0.00    +0.000 A 
ATOM     10  C   UNL     1       5.774   4.290  13.995  0.00  0.00    +0.000 A 
ATOM     11  C   UNL     1       5.243   3.460  13.006  0.00  0.00    +0.000 A 
ATOM     12  C   UNL     1       5.980   3.196  11.846  0.00  0.00    +0.000 A 
ATOM     13  C   UNL     1       7.247   3.761  11.672  0.00  0.00    +0.000 A 
ATOM     14  C   UNL     1       7.784   4.583  12.661  0.00  0.00    +0.000 A 
ATOM     15  C   UNL     1       7.038   4.835  13.809  0.00  0.00    +0.000 A 
ATOM     16  O   UNL     1       7.613   5.666  14.784  0.00  0.00    +0.000 OA
ATOM     17  C   UNL     1       6.944   5.986  15.960  0.00  0.00    +0.000 A 
ATOM     18  O   UNL     1       7.475   6.697  16.804  0.00  0.00    +0.000 OA
ENDBRANCH   5   8
BRANCH   7  19
ATOM     19  C   UNL     1       2.743   4.719  19.983  0.00  0.00    +0.000 A 
ATOM     20  C   UNL     1       1.769   4.215  19.109  0.00  0.00    +0.000 A 
ATOM     21  C   UNL     1       0.809   3.309  19.564  0.00  0.00    +0.000 A 
ATOM     22  C   UNL     1       0.810   2.899  20.896  0.00  0.00    +0.000 A 
ATOM     23  C   UNL     1       1.770   3.392  21.777  0.00  0.00    +0.000 A 
ATOM     24  C   UNL     1       2.730   4.297  21.323  0.00  0.00    +0.000 A 
ENDBRANCH   7  19
BRANCH   1  25
ATOM     25  C   UNL     1       1.576   8.262  17.716  0.00  0.00    +0.000 C 
BRANCH  25  29
ATOM     26  C   UNL     1       0.115  11.569  20.105  0.00  0.00    +0.000 C 
ATOM     27  C   UNL     1      -0.854  10.761  19.240  0.00  0.00    +0.000 C 
ATOM     28  C   UNL     1      -0.265   9.413  18.824  0.00  0.00    +0.000 C 
ATOM     29  N   UNL     1       1.013   9.584  18.117  0.00  0.00    +0.000 NA
ATOM     30  C   UNL     1       1.995  10.298  18.943  0.00  0.00    +0.000 C 
ATOM     31  C   UNL     1       1.478  11.661  19.412  0.00  0.00    +0.000 C 
BRANCH  26  33
ATOM     32  N   UNL     1      -0.872  11.182  22.304  0.00  0.00    +0.000 N 
ATOM     33  C   UNL     1       0.228  11.001  21.515  0.00  0.00    +0.000 C 
ATOM     34  O   UNL     1       1.220  10.442  21.964  0.00  0.00    +0.000 OA
ATOM     35  H   UNL     1      -0.805  10.876  23.267  0.00  0.00    +0.000 HD
ATOM     36  H   UNL     1      -1.642  11.781  22.041  0.00  0.00    +0.000 HD
ENDBRANCH  26  33
ENDBRANCH  25  29
ENDBRANCH   1  25
TORSDOF 5
ENDMDL
MODEL 4
REMARK VINA RESULT:      -8.2      3.707      7.613
REMARK  Name = 
REMARK  5 active torsions:
REMARK  status: ('A' for Active; 'I' for Inactive)
REMARK    1  A    between atoms: C_2  and  C_4
REMARK    2  A    between atoms: N_7  and  C_8
REMARK    3  A    between atoms: C_8  and  C_9
REMARK    4  A    between atoms: C_13  and  C_14
REMARK    5  A    between atoms: C_26  and  C_27
REMARK                            x       y       z     vdW  Elec       q    Type
REMARK                         _______ _______ _______ _____ _____    ______ ____
ROOT
ATOM      1  C   UNL     1      -0.938  12.281  18.675  0.00  0.00    +0.000 C 
ATOM      2  O   UNL     1      -1.009  13.377  18.118  0.00  0.00    +0.000 OA
ATOM      3  N   UNL     1       0.192  11.478  18.640  0.00  0.00    +0.000 N 
ATOM      4  N   UNL     1       0.168  10.174  19.036  0.00  0.00    +0.000 NA
ATOM      5  C   UNL     1       1.371   9.702  18.909  0.00  0.00    +0.000 C 
ATOM      6  C   UNL     1       2.381  10.692  18.381  0.00  0.00    +0.000 C 
ATOM      7  C   UNL     1       1.502  11.926  18.182  0.00  0.00    +0.000 C 
ENDROOT
BRANCH   5   8
ATOM      8  C   UNL     1       1.734   8.300  19.249  0.00  0.00    +0.000 A 
ATOM      9  C   UNL     1       2.357   7.591  18.290  0.00  0.00    +0.000 A 
ATOM     10  C   UNL     1       2.780   6.223  18.532  0.00  0.00    +0.000 A 
ATOM     11  C   UNL     1       3.436   5.461  17.562  0.00  0.00    +0.000 A 
ATOM     12  C   UNL     1       3.848   4.157  17.860  0.00  0.00    +0.000 A 
ATOM     13  C   UNL     1       3.606   3.612  19.124  0.00  0.00    +0.000 A 
ATOM     14  C   UNL     1       2.945   4.366  20.092  0.00  0.00    +0.000 A 
ATOM     15  C   UNL     1       2.541   5.661  19.780  0.00  0.00    +0.000 A 
ATOM     16  O   UNL     1       1.876   6.389  20.779  0.00  0.00    +0.000 OA
ATOM     17  C   UNL     1       1.442   7.694  20.569  0.00  0.00    +0.000 A 
ATOM     18  O   UNL     1       0.846   8.300  21.450  0.00  0.00    +0.000 OA
ENDBRANCH   5   8
BRANCH   7  19
ATOM     19  C   UNL     1       2.011  13.118  18.976  0.00  0.00    +0.000 A 
ATOM     20  C   UNL     1       2.416  14.287  18.316  0.00  0.00    +0.000 A 
ATOM     21  C   UNL     1       2.849  15.397  19.044  0.00  0.00    +0.000 A 
ATOM     22  C   UNL     1       2.884  15.351  20.437  0.00  0.00    +0.000 A 
ATOM     23  C   UNL     1       2.486  14.196  21.106  0.00  0.00    +0.000 A 
ATOM     24  C   UNL     1       2.052  13.087  20.380  0.00  0.00    +0.000 A 
ENDBRANCH   7  19
BRANCH   1  25
ATOM     25  C   UNL     1      -2.093  11.739  19.532  0.00  0.00    +0.000 C 
BRANCH  25  29
ATOM     26  C   UNL     1      -6.335  11.769  18.651  0.00  0.00    +0.000 C 
ATOM     27  C   UNL     1      -5.341  11.233  17.619  0.00  0.00    +0.000 C 
ATOM     28  C   UNL     1      -3.986  10.903  18.244  0.00  0.00    +0.000 C 
ATOM     29  N   UNL     1      -3.415  12.073  18.927  0.00  0.00    +0.000 NA
ATOM     30  C   UNL     1      -4.312  12.577  19.975  0.00  0.00    +0.000 C 
ATOM     31  C   UNL     1      -5.701  12.923  19.433  0.00  0.00    +0.000 C 
BRANCH  26  33
ATOM     32  N   UNL     1      -7.296   9.543  18.941  0.00  0.00    +0.000 N 
ATOM     33  C   UNL     1      -6.847  10.668  19.573  0.00  0.00    +0.000 C 
ATOM     34  O   UNL     1      -6.899  10.748  20.794  0.00  0.00    +0.000 OA
ATOM     35  H   UNL     1      -7.704   8.820  19.521  0.00  0.00    +0.000 HD
ATOM     36  H   UNL     1      -7.433   9.494  17.942  0.00  0.00    +0.000 HD
ENDBRANCH  26  33
ENDBRANCH  25  29
ENDBRANCH   1  25
TORSDOF 5
ENDMDL
MODEL 5
REMARK VINA RESULT:      -8.2      4.260      8.163
REMARK  Name = 
REMARK  5 active torsions:
REMARK  status: ('A' for Active; 'I' for Inactive)
REMARK    1  A    between atoms: C_2  and  C_4
REMARK    2  A    between atoms: N_7  and  C_8
REMARK    3  A    between atoms: C_8  and  C_9
REMARK    4  A    between atoms: C_13  and  C_14
REMARK    5  A    between atoms: C_26  and  C_27
REMARK                            x       y       z     vdW  Elec       q    Type
REMARK                         _______ _______ _______ _____ _____    ______ ____
ROOT
ATOM      1  C   UNL     1       0.352  14.026  21.581  0.00  0.00    +0.000 C 
ATOM      2  O   UNL     1      -0.128  14.720  22.478  0.00  0.00    +0.000 OA
ATOM      3  N   UNL     1       0.225  12.647  21.532  0.00  0.00    +0.000 N 
ATOM      4  N   UNL     1       0.970  11.879  20.688  0.00  0.00    +0.000 NA
ATOM      5  C   UNL     1       0.610  10.643  20.858  0.00  0.00    +0.000 C 
ATOM      6  C   UNL     1      -0.469  10.441  21.895  0.00  0.00    +0.000 C 
ATOM      7  C   UNL     1      -0.695  11.878  22.363  0.00  0.00    +0.000 C 
ENDROOT
BRANCH   5   8
ATOM      8  C   UNL     1       1.208   9.510  20.101  0.00  0.00    +0.000 A 
ATOM      9  C   UNL     1       1.294   8.334  20.749  0.00  0.00    +0.000 A 
ATOM     10  C   UNL     1       1.835   7.159  20.088  0.00  0.00    +0.000 A 
ATOM     11  C   UNL     1       1.931   5.921  20.727  0.00  0.00    +0.000 A 
ATOM     12  C   UNL     1       2.433   4.814  20.033  0.00  0.00    +0.000 A 
ATOM     13  C   UNL     1       2.840   4.941  18.702  0.00  0.00    +0.000 A 
ATOM     14  C   UNL     1       2.753   6.177  18.064  0.00  0.00    +0.000 A 
ATOM     15  C   UNL     1       2.251   7.268  18.767  0.00  0.00    +0.000 A 
ATOM     16  O   UNL     1       2.181   8.497  18.092  0.00  0.00    +0.000 OA
ATOM     17  C   UNL     1       1.686   9.642  18.705  0.00  0.00    +0.000 A 
ATOM     18  O   UNL     1       1.654  10.707  18.101  0.00  0.00    +0.000 OA
ENDBRANCH   5   8
BRANCH   7  19
ATOM     19  C   UNL     1      -2.138  12.314  22.176  0.00  0.00    +0.000 A 
ATOM     20  C   UNL     1      -2.663  12.492  20.888  0.00  0.00    +0.000 A 
ATOM     21  C   UNL     1      -3.999  12.858  20.711  0.00  0.00    +0.000 A 
ATOM     22  C   UNL     1      -4.824  13.050  21.818  0.00  0.00    +0.000 A 
ATOM     23  C   UNL     1      -4.317  12.877  23.104  0.00  0.00    +0.000 A 
ATOM     24  C   UNL     1      -2.983  12.512  23.281  0.00  0.00    +0.000 A 
ENDBRANCH   7  19
BRANCH   1  25
ATOM     25  C   UNL     1       1.080  14.654  20.382  0.00  0.00    +0.000 C 
BRANCH  25  29
ATOM     26  C   UNL     1       0.188  18.357  18.317  0.00  0.00    +0.000 C 
ATOM     27  C   UNL     1       1.023  18.375  19.599  0.00  0.00    +0.000 C 
ATOM     28  C   UNL     1       1.588  16.995  19.936  0.00  0.00    +0.000 C 
ATOM     29  N   UNL     1       0.517  15.995  20.052  0.00  0.00    +0.000 NA
ATOM     30  C   UNL     1      -0.268  15.898  18.814  0.00  0.00    +0.000 C 
ATOM     31  C   UNL     1      -0.863  17.246  18.397  0.00  0.00    +0.000 C 
BRANCH  26  33
ATOM     32  N   UNL     1       0.422  18.475  15.890  0.00  0.00    +0.000 N 
ATOM     33  C   UNL     1       1.059  18.231  17.073  0.00  0.00    +0.000 C 
ATOM     34  O   UNL     1       2.240  17.908  17.078  0.00  0.00    +0.000 OA
ATOM     35  H   UNL     1       0.955  18.335  15.040  0.00  0.00    +0.000 HD
ATOM     36  H   UNL     1      -0.581  18.575  15.819  0.00  0.00    +0.000 HD
ENDBRANCH  26  33
ENDBRANCH  25  29
ENDBRANCH   1  25
TORSDOF 5
ENDMDL
MODEL 6
REMARK VINA RESULT:      -8.0      3.252      6.989
REMARK  Name = 
REMARK  5 active torsions:
REMARK  status: ('A' for Active; 'I' for Inactive)
REMARK    1  A    between atoms: C_2  and  C_4
REMARK    2  A    between atoms: N_7  and  C_8
REMARK    3  A    between atoms: C_8  and  C_9
REMARK    4  A    between atoms: C_13  and  C_14
REMARK    5  A    between atoms: C_26  and  C_27
REMARK                            x       y       z     vdW  Elec       q    Type
REMARK                         _______ _______ _______ _____ _____    ______ ____
ROOT
ATOM      1  C   UNL     1       0.625  12.714  18.825  0.00  0.00    +0.000 C 
ATOM      2  O   UNL     1      -0.242  13.500  19.206  0.00  0.00    +0.000 OA
ATOM      3  N   UNL     1       0.541  11.341  19.000  0.00  0.00    +0.000 N 
ATOM      4  N   UNL     1       1.611  10.518  18.809  0.00  0.00    +0.000 NA
ATOM      5  C   UNL     1       1.215   9.301  19.025  0.00  0.00    +0.000 C 
ATOM      6  C   UNL     1      -0.240   9.174  19.411  0.00  0.00    +0.000 C 
ATOM      7  C   UNL     1      -0.672  10.639  19.405  0.00  0.00    +0.000 C 
ENDROOT
BRANCH   5   8
ATOM      8  C   UNL     1       2.114   8.121  18.909  0.00  0.00    +0.000 A 
ATOM      9  C   UNL     1       2.872   8.050  17.800  0.00  0.00    +0.000 A 
ATOM     10  C   UNL     1       3.805   6.954  17.606  0.00  0.00    +0.000 A 
ATOM     11  C   UNL     1       4.613   6.853  16.471  0.00  0.00    +0.000 A 
ATOM     12  C   UNL     1       5.516   5.791  16.349  0.00  0.00    +0.000 A 
ATOM     13  C   UNL     1       5.613   4.828  17.358  0.00  0.00    +0.000 A 
ATOM     14  C   UNL     1       4.802   4.921  18.488  0.00  0.00    +0.000 A 
ATOM     15  C   UNL     1       3.910   5.984  18.594  0.00  0.00    +0.000 A 
ATOM     16  O   UNL     1       3.108   6.042  19.745  0.00  0.00    +0.000 OA
ATOM     17  C   UNL     1       2.193   7.069  19.949  0.00  0.00    +0.000 A 
ATOM     18  O   UNL     1       1.491   7.086  20.952  0.00  0.00    +0.000 OA
ENDBRANCH   5   8
BRANCH   7  19
ATOM     19  C   UNL     1      -1.825  10.885  18.447  0.00  0.00    +0.000 A 
ATOM     20  C   UNL     1      -2.950  11.610  18.864  0.00  0.00    +0.000 A 
ATOM     21  C   UNL     1      -3.995  11.870  17.976  0.00  0.00    +0.000 A 
ATOM     22  C   UNL     1      -3.928  11.408  16.662  0.00  0.00    +0.000 A 
ATOM     23  C   UNL     1      -2.817  10.686  16.233  0.00  0.00    +0.000 A 
ATOM     24  C   UNL     1      -1.773  10.426  17.120  0.00  0.00    +0.000 A 
ENDBRANCH   7  19
BRANCH   1  25
ATOM     25  C   UNL     1       1.857  13.194  18.043  0.00  0.00    +0.000 C 
BRANCH  25  29
ATOM     26  C   UNL     1       4.680  16.130  19.521  0.00  0.00    +0.000 C 
ATOM     27  C   UNL     1       3.795  15.356  20.500  0.00  0.00    +0.000 C 
ATOM     28  C   UNL     1       3.199  14.100  19.865  0.00  0.00    +0.000 C 
ATOM     29  N   UNL     1       2.435  14.427  18.652  0.00  0.00    +0.000 NA
ATOM     30  C   UNL     1       3.270  15.112  17.657  0.00  0.00    +0.000 C 
ATOM     31  C   UNL     1       3.917  16.381  18.217  0.00  0.00    +0.000 C 
BRANCH  26  33
ATOM     32  N   UNL     1       6.615  14.924  20.394  0.00  0.00    +0.000 N 
ATOM     33  C   UNL     1       6.010  15.425  19.278  0.00  0.00    +0.000 C 
ATOM     34  O   UNL     1       6.552  15.317  18.185  0.00  0.00    +0.000 OA
ATOM     35  H   UNL     1       7.531  14.509  20.276  0.00  0.00    +0.000 HD
ATOM     36  H   UNL     1       6.298  15.135  21.330  0.00  0.00    +0.000 HD
ENDBRANCH  26  33
ENDBRANCH  25  29
ENDBRANCH   1  25
TORSDOF 5
ENDMDL
MODEL 7
REMARK VINA RESULT:      -8.0      3.319      7.048
REMARK  Name = 
REMARK  5 active torsions:
REMARK  status: ('A' for Active; 'I' for Inactive)
REMARK    1  A    between atoms: C_2  and  C_4
REMARK    2  A    between atoms: N_7  and  C_8
REMARK    3  A    between atoms: C_8  and  C_9
REMARK    4  A    between atoms: C_13  and  C_14
REMARK    5  A    between atoms: C_26  and  C_27
REMARK                            x       y       z     vdW  Elec       q    Type
REMARK                         _______ _______ _______ _____ _____    ______ ____
ROOT
ATOM      1  C   UNL     1       0.488  12.844  18.798  0.00  0.00    +0.000 C 
ATOM      2  O   UNL     1      -0.391  13.630  19.151  0.00  0.00    +0.000 OA
ATOM      3  N   UNL     1       0.405  11.473  18.979  0.00  0.00    +0.000 N 
ATOM      4  N   UNL     1       1.483  10.653  18.820  0.00  0.00    +0.000 NA
ATOM      5  C   UNL     1       1.086   9.436  19.034  0.00  0.00    +0.000 C 
ATOM      6  C   UNL     1      -0.377   9.304  19.383  0.00  0.00    +0.000 C 
ATOM      7  C   UNL     1      -0.815  10.768  19.357  0.00  0.00    +0.000 C 
ENDROOT
BRANCH   5   8
ATOM      8  C   UNL     1       1.993   8.259  18.949  0.00  0.00    +0.000 A 
ATOM      9  C   UNL     1       2.751   8.164  17.841  0.00  0.00    +0.000 A 
ATOM     10  C   UNL     1       3.691   7.068  17.675  0.00  0.00    +0.000 A 
ATOM     11  C   UNL     1       4.499   6.943  16.543  0.00  0.00    +0.000 A 
ATOM     12  C   UNL     1       5.409   5.884  16.448  0.00  0.00    +0.000 A 
ATOM     13  C   UNL     1       5.512   4.948  17.482  0.00  0.00    +0.000 A 
ATOM     14  C   UNL     1       4.701   5.066  18.610  0.00  0.00    +0.000 A 
ATOM     15  C   UNL     1       3.802   6.125  18.689  0.00  0.00    +0.000 A 
ATOM     16  O   UNL     1       3.000   6.209  19.838  0.00  0.00    +0.000 OA
ATOM     17  C   UNL     1       2.080   7.235  20.016  0.00  0.00    +0.000 A 
ATOM     18  O   UNL     1       1.378   7.274  21.019  0.00  0.00    +0.000 OA
ENDBRANCH   5   8
BRANCH   7  19
ATOM     19  C   UNL     1      -1.943  11.004  18.367  0.00  0.00    +0.000 A 
ATOM     20  C   UNL     1      -1.828  10.558  17.043  0.00  0.00    +0.000 A 
ATOM     21  C   UNL     1      -2.878  10.741  16.140  0.00  0.00    +0.000 A 
ATOM     22  C   UNL     1      -4.052  11.371  16.550  0.00  0.00    +0.000 A 
ATOM     23  C   UNL     1      -4.180  11.820  17.862  0.00  0.00    +0.000 A 
ATOM     24  C   UNL     1      -3.133  11.638  18.765  0.00  0.00    +0.000 A 
ENDBRANCH   7  19
BRANCH   1  25
ATOM     25  C   UNL     1       1.739  13.325  18.045  0.00  0.00    +0.000 C 
BRANCH  25  29
ATOM     26  C   UNL     1       4.487  16.261  19.657  0.00  0.00    +0.000 C 
ATOM     27  C   UNL     1       3.496  15.550  20.581  0.00  0.00    +0.000 C 
ATOM     28  C   UNL     1       2.929  14.280  19.945  0.00  0.00    +0.000 C 
ATOM     29  N   UNL     1       2.289  14.571  18.654  0.00  0.00    +0.000 NA
ATOM     30  C   UNL     1       3.229  15.194  17.713  0.00  0.00    +0.000 C 
ATOM     31  C   UNL     1       3.854  16.472  18.279  0.00  0.00    +0.000 C 
BRANCH  26  33
ATOM     32  N   UNL     1       6.515  15.715  18.412  0.00  0.00    +0.000 N 
ATOM     33  C   UNL     1       5.815  15.519  19.568  0.00  0.00    +0.000 C 
ATOM     34  O   UNL     1       6.253  14.766  20.430  0.00  0.00    +0.000 OA
ATOM     35  H   UNL     1       7.369  15.184  18.293  0.00  0.00    +0.000 HD
ATOM     36  H   UNL     1       6.122  16.183  17.608  0.00  0.00    +0.000 HD
ENDBRANCH  26  33
ENDBRANCH  25  29
ENDBRANCH   1  25
TORSDOF 5
ENDMDL
MODEL 8
REMARK VINA RESULT:      -8.0      3.601      7.605
REMARK  Name = 
REMARK  5 active torsions:
REMARK  status: ('A' for Active; 'I' for Inactive)
REMARK    1  A    between atoms: C_2  and  C_4
REMARK    2  A    between atoms: N_7  and  C_8
REMARK    3  A    between atoms: C_8  and  C_9
REMARK    4  A    between atoms: C_13  and  C_14
REMARK    5  A    between atoms: C_26  and  C_27
REMARK                            x       y       z     vdW  Elec       q    Type
REMARK                         _______ _______ _______ _____ _____    ______ ____
ROOT
ATOM      1  C   UNL     1      -1.302  12.235  18.574  0.00  0.00    +0.000 C 
ATOM      2  O   UNL     1      -1.387  13.464  18.562  0.00  0.00    +0.000 OA
ATOM      3  N   UNL     1      -0.255  11.549  19.168  0.00  0.00    +0.000 N 
ATOM      4  N   UNL     1      -0.043  10.219  18.952  0.00  0.00    +0.000 NA
ATOM      5  C   UNL     1       0.988   9.865  19.657  0.00  0.00    +0.000 C 
ATOM      6  C   UNL     1       1.613  10.981  20.458  0.00  0.00    +0.000 C 
ATOM      7  C   UNL     1       0.720  12.157  20.066  0.00  0.00    +0.000 C 
ENDROOT
BRANCH   5   8
ATOM      8  C   UNL     1       1.520   8.476  19.677  0.00  0.00    +0.000 A 
ATOM      9  C   UNL     1       2.282   8.110  18.629  0.00  0.00    +0.000 A 
ATOM     10  C   UNL     1       2.874   6.785  18.568  0.00  0.00    +0.000 A 
ATOM     11  C   UNL     1       3.676   6.374  17.500  0.00  0.00    +0.000 A 
ATOM     12  C   UNL     1       4.246   5.096  17.506  0.00  0.00    +0.000 A 
ATOM     13  C   UNL     1       4.016   4.227  18.577  0.00  0.00    +0.000 A 
ATOM     14  C   UNL     1       3.211   4.630  19.640  0.00  0.00    +0.000 A 
ATOM     15  C   UNL     1       2.651   5.904  19.619  0.00  0.00    +0.000 A 
ATOM     16  O   UNL     1       1.843   6.274  20.706  0.00  0.00    +0.000 OA
ATOM     17  C   UNL     1       1.248   7.528  20.782  0.00  0.00    +0.000 A 
ATOM     18  O   UNL     1       0.531   7.819  21.731  0.00  0.00    +0.000 OA
ENDBRANCH   5   8
BRANCH   7  19
ATOM     19  C   UNL     1       0.063  12.798  21.277  0.00  0.00    +0.000 A 
ATOM     20  C   UNL     1       0.299  14.147  21.579  0.00  0.00    +0.000 A 
ATOM     21  C   UNL     1      -0.332  14.749  22.670  0.00  0.00    +0.000 A 
ATOM     22  C   UNL     1      -1.202  14.011  23.470  0.00  0.00    +0.000 A 
ATOM     23  C   UNL     1      -1.446  12.670  23.183  0.00  0.00    +0.000 A 
ATOM     24  C   UNL     1      -0.817  12.067  22.094  0.00  0.00    +0.000 A 
ENDBRANCH   7  19
BRANCH   1  25
ATOM     25  C   UNL     1      -2.410  11.347  17.987  0.00  0.00    +0.000 C 
BRANCH  25  29
ATOM     26  C   UNL     1      -6.542  12.108  19.045  0.00  0.00    +0.000 C 
ATOM     27  C   UNL     1      -6.160  11.842  17.587  0.00  0.00    +0.000 C 
ATOM     28  C   UNL     1      -4.785  11.185  17.465  0.00  0.00    +0.000 C 
ATOM     29  N   UNL     1      -3.746  11.998  18.114  0.00  0.00    +0.000 NA
ATOM     30  C   UNL     1      -4.043  12.218  19.536  0.00  0.00    +0.000 C 
ATOM     31  C   UNL     1      -5.413  12.867  19.748  0.00  0.00    +0.000 C 
BRANCH  26  33
ATOM     32  N   UNL     1      -7.328   9.797  18.980  0.00  0.00    +0.000 N 
ATOM     33  C   UNL     1      -6.911  10.823  19.778  0.00  0.00    +0.000 C 
ATOM     34  O   UNL     1      -6.882  10.682  20.994  0.00  0.00    +0.000 OA
ATOM     35  H   UNL     1      -7.645   8.952  19.441  0.00  0.00    +0.000 HD
ATOM     36  H   UNL     1      -7.533   9.916  17.998  0.00  0.00    +0.000 HD
ENDBRANCH  26  33
ENDBRANCH  25  29
ENDBRANCH   1  25
TORSDOF 5
ENDMDL
MODEL 9
REMARK VINA RESULT:      -8.0      3.952      7.809
REMARK  Name = 
REMARK  5 active torsions:
REMARK  status: ('A' for Active; 'I' for Inactive)
REMARK    1  A    between atoms: C_2  and  C_4
REMARK    2  A    between atoms: N_7  and  C_8
REMARK    3  A    between atoms: C_8  and  C_9
REMARK    4  A    between atoms: C_13  and  C_14
REMARK    5  A    between atoms: C_26  and  C_27
REMARK                            x       y       z     vdW  Elec       q    Type
REMARK                         _______ _______ _______ _____ _____    ______ ____
ROOT
ATOM      1  C   UNL     1      -1.867  12.307  18.895  0.00  0.00    +0.000 C 
ATOM      2  O   UNL     1      -2.111  13.493  19.121  0.00  0.00    +0.000 OA
ATOM      3  N   UNL     1      -0.737  11.658  19.366  0.00  0.00    +0.000 N 
ATOM      4  N   UNL     1      -0.356  10.434  18.900  0.00  0.00    +0.000 NA
ATOM      5  C   UNL     1       0.716  10.084  19.543  0.00  0.00    +0.000 C 
ATOM      6  C   UNL     1       1.195  11.093  20.559  0.00  0.00    +0.000 C 
ATOM      7  C   UNL     1       0.155  12.199  20.385  0.00  0.00    +0.000 C 
ENDROOT
BRANCH   5   8
ATOM      8  C   UNL     1       1.424   8.798  19.303  0.00  0.00    +0.000 A 
ATOM      9  C   UNL     1       1.301   7.857  20.258  0.00  0.00    +0.000 A 
ATOM     10  C   UNL     1       1.929   6.556  20.105  0.00  0.00    +0.000 A 
ATOM     11  C   UNL     1       1.816   5.555  21.072  0.00  0.00    +0.000 A 
ATOM     12  C   UNL     1       2.417   4.309  20.860  0.00  0.00    +0.000 A 
ATOM     13  C   UNL     1       3.132   4.062  19.684  0.00  0.00    +0.000 A 
ATOM     14  C   UNL     1       3.254   5.062  18.722  0.00  0.00    +0.000 A 
ATOM     15  C   UNL     1       2.650   6.295  18.948  0.00  0.00    +0.000 A 
ATOM     16  O   UNL     1       2.797   7.279  17.956  0.00  0.00    +0.000 OA
ATOM     17  C   UNL     1       2.224   8.538  18.084  0.00  0.00    +0.000 A 
ATOM     18  O   UNL     1       2.384   9.385  17.214  0.00  0.00    +0.000 OA
ENDBRANCH   5   8
BRANCH   7  19
ATOM     19  C   UNL     1      -0.573  12.501  21.684  0.00  0.00    +0.000 A 
ATOM     20  C   UNL     1      -0.438  13.755  22.296  0.00  0.00    +0.000 A 
ATOM     21  C   UNL     1      -1.135  14.049  23.470  0.00  0.00    +0.000 A 
ATOM     22  C   UNL     1      -1.972  13.094  24.045  0.00  0.00    +0.000 A 
ATOM     23  C   UNL     1      -2.116  11.843  23.448  0.00  0.00    +0.000 A 
ATOM     24  C   UNL     1      -1.421  11.549  22.276  0.00  0.00    +0.000 A 
ENDBRANCH   7  19
BRANCH   1  25
ATOM     25  C   UNL     1      -2.853  11.417  18.124  0.00  0.00    +0.000 C 
BRANCH  25  29
ATOM     26  C   UNL     1      -7.026  11.673  19.263  0.00  0.00    +0.000 C 
ATOM     27  C   UNL     1      -6.643  11.465  17.796  0.00  0.00    +0.000 C 
ATOM     28  C   UNL     1      -5.202  10.977  17.643  0.00  0.00    +0.000 C 
ATOM     29  N   UNL     1      -4.255  11.903  18.281  0.00  0.00    +0.000 NA
ATOM     30  C   UNL     1      -4.549  12.077  19.710  0.00  0.00    +0.000 C 
ATOM     31  C   UNL     1      -5.982  12.556  19.953  0.00  0.00    +0.000 C 
BRANCH  26  33
ATOM     32  N   UNL     1      -7.430   9.266  19.184  0.00  0.00    +0.000 N 
ATOM     33  C   UNL     1      -7.226  10.349  19.991  0.00  0.00    +0.000 C 
ATOM     34  O   UNL     1      -7.242  10.218  21.209  0.00  0.00    +0.000 OA
ATOM     35  H   UNL     1      -7.632   8.384  19.638  0.00  0.00    +0.000 HD
ATOM     36  H   UNL     1      -7.596   9.347  18.191  0.00  0.00    +0.000 HD
ENDBRANCH  26  33
ENDBRANCH  25  29
ENDBRANCH   1  25
TORSDOF 5
ENDMDL
