MODEL 1
REMARK VINA RESULT:      -7.4      0.000      0.000
REMARK  Name = 
REMARK  5 active torsions:
REMARK  status: ('A' for Active; 'I' for Inactive)
REMARK    1  A    between atoms: C_1  and  C_2
REMARK    2  A    between atoms: C_2  and  C_3
REMARK    3  A    between atoms: C_3  and  C_4
REMARK    4  A    between atoms: C_4  and  N_5
REMARK    5  A    between atoms: C_6  and  C_8
REMARK                            x       y       z     vdW  Elec       q    Type
REMARK                         _______ _______ _______ _____ _____    ______ ____
ROOT
ATOM      1  C   UNL     1       6.335   4.750  15.356  0.00  0.00    +0.000 A 
ATOM      2  C   UNL     1       4.955   4.943  15.692  0.00  0.00    +0.000 A 
ATOM      3  C   UNL     1       4.493   5.144  17.009  0.00  0.00    +0.000 A 
ATOM      4  C   UNL     1       5.530   5.118  17.944  0.00  0.00    +0.000 A 
ATOM      5  C   UNL     1       6.930   4.929  17.646  0.00  0.00    +0.000 A 
ATOM      6  C   UNL     1       7.369   4.739  16.325  0.00  0.00    +0.000 A 
ATOM      7  N   UNL     1       7.647   4.961  18.779  0.00  0.00    +0.000 NA
ATOM      8  O   UNL     1       6.750   5.153  19.824  0.00  0.00    +0.000 OA
ATOM      9  N   UNL     1       5.434   5.242  19.271  0.00  0.00    +0.000 N 
ATOM     10  O   UNL     1       4.488   5.407  20.077  0.00  0.00    +0.000 OA
ENDROOT
BRANCH   1  12
ATOM     11  N   UNL     1       6.196   3.364  13.343  0.00  0.00    +0.000 N 
ATOM     12  C   UNL     1       6.744   4.472  13.950  0.00  0.00    +0.000 C 
ATOM     13  O   UNL     1       7.528   5.231  13.391  0.00  0.00    +0.000 OA
ATOM     14  H   UNL     1       5.485   2.818  13.809  0.00  0.00    +0.000 HD
BRANCH  11  15
ATOM     15  C   UNL     1       6.566   2.979  11.994  0.00  0.00    +0.000 C 
BRANCH  15  16
ATOM     16  C   UNL     1       5.367   2.510  11.168  0.00  0.00    +0.000 C 
BRANCH  16  18
ATOM     17  C   UNL     1       3.312   3.605  10.190  0.00  0.00    +0.000 C 
ATOM     18  C   UNL     1       4.105   3.325  11.456  0.00  0.00    +0.000 C 
ENDBRANCH  16  18
ENDBRANCH  15  16
ENDBRANCH  11  15
ENDBRANCH   1  12
TORSDOF 4
ENDMDL
MODEL 2
REMARK VINA RESULT:      -7.1      1.852      2.002
REMARK  Name = 
REMARK  5 active torsions:
REMARK  status: ('A' for Active; 'I' for Inactive)
REMARK    1  A    between atoms: C_1  and  C_2
REMARK    2  A    between atoms: C_2  and  C_3
REMARK    3  A    between atoms: C_3  and  C_4
REMARK    4  A    between atoms: C_4  and  N_5
REMARK    5  A    between atoms: C_6  and  C_8
REMARK                            x       y       z     vdW  Elec       q    Type
REMARK                         _______ _______ _______ _____ _____    ______ ____
ROOT
ATOM      1  C   UNL     1       5.453   5.108  15.703  0.00  0.00    +0.000 A 
ATOM      2  C   UNL     1       5.158   6.471  16.035  0.00  0.00    +0.000 A 
ATOM      3  C   UNL     1       4.405   6.853  17.164  0.00  0.00    +0.000 A 
ATOM      4  C   UNL     1       3.971   5.755  17.909  0.00  0.00    +0.000 A 
ATOM      5  C   UNL     1       4.248   4.370  17.609  0.00  0.00    +0.000 A 
ATOM      6  C   UNL     1       5.007   4.012  16.483  0.00  0.00    +0.000 A 
ATOM      7  N   UNL     1       3.680   3.580  18.532  0.00  0.00    +0.000 NA
ATOM      8  O   UNL     1       3.018   4.411  19.429  0.00  0.00    +0.000 OA
ATOM      9  N   UNL     1       3.215   5.765  19.010  0.00  0.00    +0.000 N 
ATOM     10  O   UNL     1       2.675   6.658  19.704  0.00  0.00    +0.000 OA
ENDROOT
BRANCH   1  12
ATOM     11  N   UNL     1       5.635   3.824  13.626  0.00  0.00    +0.000 N 
ATOM     12  C   UNL     1       6.195   4.772  14.454  0.00  0.00    +0.000 C 
ATOM     13  O   UNL     1       7.248   5.349  14.207  0.00  0.00    +0.000 OA
ATOM     14  H   UNL     1       4.721   3.441  13.822  0.00  0.00    +0.000 HD
BRANCH  11  15
ATOM     15  C   UNL     1       6.301   3.392  12.412  0.00  0.00    +0.000 C 
BRANCH  15  16
ATOM     16  C   UNL     1       5.335   2.773  11.401  0.00  0.00    +0.000 C 
BRANCH  16  18
ATOM     17  C   UNL     1       3.316   3.575  10.111  0.00  0.00    +0.000 C 
ATOM     18  C   UNL     1       3.932   3.378  11.487  0.00  0.00    +0.000 C 
ENDBRANCH  16  18
ENDBRANCH  15  16
ENDBRANCH  11  15
ENDBRANCH   1  12
TORSDOF 4
ENDMDL
MODEL 3
REMARK VINA RESULT:      -7.1      3.849      5.832
REMARK  Name = 
REMARK  5 active torsions:
REMARK  status: ('A' for Active; 'I' for Inactive)
REMARK    1  A    between atoms: C_1  and  C_2
REMARK    2  A    between atoms: C_2  and  C_3
REMARK    3  A    between atoms: C_3  and  C_4
REMARK    4  A    between atoms: C_4  and  N_5
REMARK    5  A    between atoms: C_6  and  C_8
REMARK                            x       y       z     vdW  Elec       q    Type
REMARK                         _______ _______ _______ _____ _____    ______ ____
ROOT
ATOM      1  C   UNL     1       4.568   4.236  17.793  0.00  0.00    +0.000 A 
ATOM      2  C   UNL     1       4.578   5.145  16.684  0.00  0.00    +0.000 A 
ATOM      3  C   UNL     1       5.544   6.156  16.513  0.00  0.00    +0.000 A 
ATOM      4  C   UNL     1       6.477   6.180  17.551  0.00  0.00    +0.000 A 
ATOM      5  C   UNL     1       6.502   5.283  18.683  0.00  0.00    +0.000 A 
ATOM      6  C   UNL     1       5.534   4.277  18.829  0.00  0.00    +0.000 A 
ATOM      7  N   UNL     1       7.533   5.589  19.485  0.00  0.00    +0.000 NA
ATOM      8  O   UNL     1       8.184   6.679  18.917  0.00  0.00    +0.000 OA
ATOM      9  N   UNL     1       7.497   7.028  17.712  0.00  0.00    +0.000 N 
ATOM     10  O   UNL     1       7.944   8.005  17.066  0.00  0.00    +0.000 OA
ENDROOT
BRANCH   1  12
ATOM     11  N   UNL     1       2.201   3.723  18.147  0.00  0.00    +0.000 N 
ATOM     12  C   UNL     1       3.474   3.236  17.948  0.00  0.00    +0.000 C 
ATOM     13  O   UNL     1       3.738   2.041  17.882  0.00  0.00    +0.000 OA
ATOM     14  H   UNL     1       2.013   4.714  18.103  0.00  0.00    +0.000 HD
BRANCH  11  15
ATOM     15  C   UNL     1       1.074   2.832  18.357  0.00  0.00    +0.000 C 
BRANCH  15  16
ATOM     16  C   UNL     1       0.803   2.570  19.839  0.00  0.00    +0.000 C 
BRANCH  16  18
ATOM     17  C   UNL     1       2.233   3.399  21.749  0.00  0.00    +0.000 C 
ATOM     18  C   UNL     1       1.173   3.763  20.721  0.00  0.00    +0.000 C 
ENDBRANCH  16  18
ENDBRANCH  15  16
ENDBRANCH  11  15
ENDBRANCH   1  12
TORSDOF 4
ENDMDL
MODEL 4
REMARK VINA RESULT:      -6.8      2.775      6.612
REMARK  Name = 
REMARK  5 active torsions:
REMARK  status: ('A' for Active; 'I' for Inactive)
REMARK    1  A    between atoms: C_1  and  C_2
REMARK    2  A    between atoms: C_2  and  C_3
REMARK    3  A    between atoms: C_3  and  C_4
REMARK    4  A    between atoms: C_4  and  N_5
REMARK    5  A    between atoms: C_6  and  C_8
REMARK                            x       y       z     vdW  Elec       q    Type
REMARK                         _______ _______ _______ _____ _____    ______ ____
ROOT
ATOM      1  C   UNL     1       5.332   4.614  17.750  0.00  0.00    +0.000 A 
ATOM      2  C   UNL     1       6.407   5.564  17.749  0.00  0.00    +0.000 A 
ATOM      3  C   UNL     1       7.189   5.856  16.613  0.00  0.00    +0.000 A 
ATOM      4  C   UNL     1       6.807   5.106  15.499  0.00  0.00    +0.000 A 
ATOM      5  C   UNL     1       5.731   4.143  15.459  0.00  0.00    +0.000 A 
ATOM      6  C   UNL     1       4.959   3.874  16.601  0.00  0.00    +0.000 A 
ATOM      7  N   UNL     1       5.640   3.610  14.232  0.00  0.00    +0.000 NA
ATOM      8  O   UNL     1       6.643   4.188  13.460  0.00  0.00    +0.000 OA
ATOM      9  N   UNL     1       7.358   5.115  14.282  0.00  0.00    +0.000 N 
ATOM     10  O   UNL     1       8.312   5.728  13.749  0.00  0.00    +0.000 OA
ENDROOT
BRANCH   1  12
ATOM     11  N   UNL     1       3.535   5.123  19.332  0.00  0.00    +0.000 N 
ATOM     12  C   UNL     1       4.593   4.303  19.007  0.00  0.00    +0.000 C 
ATOM     13  O   UNL     1       4.937   3.342  19.684  0.00  0.00    +0.000 OA
ATOM     14  H   UNL     1       3.228   5.848  18.699  0.00  0.00    +0.000 HD
BRANCH  11  15
ATOM     15  C   UNL     1       2.782   4.935  20.558  0.00  0.00    +0.000 C 
BRANCH  15  16
ATOM     16  C   UNL     1       1.312   4.601  20.299  0.00  0.00    +0.000 C 
BRANCH  16  18
ATOM     17  C   UNL     1       1.674   2.541  21.715  0.00  0.00    +0.000 C 
ATOM     18  C   UNL     1       1.012   3.111  20.471  0.00  0.00    +0.000 C 
ENDBRANCH  16  18
ENDBRANCH  15  16
ENDBRANCH  11  15
ENDBRANCH   1  12
TORSDOF 4
ENDMDL
MODEL 5
REMARK VINA RESULT:      -6.8      3.076      6.241
REMARK  Name = 
REMARK  5 active torsions:
REMARK  status: ('A' for Active; 'I' for Inactive)
REMARK    1  A    between atoms: C_1  and  C_2
REMARK    2  A    between atoms: C_2  and  C_3
REMARK    3  A    between atoms: C_3  and  C_4
REMARK    4  A    between atoms: C_4  and  N_5
REMARK    5  A    between atoms: C_6  and  C_8
REMARK                            x       y       z     vdW  Elec       q    Type
REMARK                         _______ _______ _______ _____ _____    ______ ____
ROOT
ATOM      1  C   UNL     1       4.867   3.908  18.507  0.00  0.00    +0.000 A 
ATOM      2  C   UNL     1       4.498   3.443  17.202  0.00  0.00    +0.000 A 
ATOM      3  C   UNL     1       5.129   3.869  16.015  0.00  0.00    +0.000 A 
ATOM      4  C   UNL     1       6.138   4.803  16.257  0.00  0.00    +0.000 A 
ATOM      5  C   UNL     1       6.540   5.293  17.554  0.00  0.00    +0.000 A 
ATOM      6  C   UNL     1       5.904   4.849  18.724  0.00  0.00    +0.000 A 
ATOM      7  N   UNL     1       7.539   6.178  17.419  0.00  0.00    +0.000 NA
ATOM      8  O   UNL     1       7.799   6.295  16.058  0.00  0.00    +0.000 OA
ATOM      9  N   UNL     1       6.904   5.427  15.357  0.00  0.00    +0.000 N 
ATOM     10  O   UNL     1       6.990   5.410  14.107  0.00  0.00    +0.000 OA
ENDROOT
BRANCH   1  12
ATOM     11  N   UNL     1       3.145   4.324  20.196  0.00  0.00    +0.000 N 
ATOM     12  C   UNL     1       4.109   3.468  19.713  0.00  0.00    +0.000 C 
ATOM     13  O   UNL     1       4.358   2.378  20.215  0.00  0.00    +0.000 OA
ATOM     14  H   UNL     1       2.910   5.172  19.699  0.00  0.00    +0.000 HD
BRANCH  11  15
ATOM     15  C   UNL     1       2.386   4.012  21.393  0.00  0.00    +0.000 C 
BRANCH  15  16
ATOM     16  C   UNL     1       1.229   3.049  21.120  0.00  0.00    +0.000 C 
BRANCH  16  18
ATOM     17  C   UNL     1       0.772   2.208  18.782  0.00  0.00    +0.000 C 
ATOM     18  C   UNL     1       0.540   3.329  19.783  0.00  0.00    +0.000 C 
ENDBRANCH  16  18
ENDBRANCH  15  16
ENDBRANCH  11  15
ENDBRANCH   1  12
TORSDOF 4
ENDMDL
MODEL 6
REMARK VINA RESULT:      -6.8      4.313      6.412
REMARK  Name = 
REMARK  5 active torsions:
REMARK  status: ('A' for Active; 'I' for Inactive)
REMARK    1  A    between atoms: C_1  and  C_2
REMARK    2  A    between atoms: C_2  and  C_3
REMARK    3  A    between atoms: C_3  and  C_4
REMARK    4  A    between atoms: C_4  and  N_5
REMARK    5  A    between atoms: C_6  and  C_8
REMARK                            x       y       z     vdW  Elec       q    Type
REMARK                         _______ _______ _______ _____ _____    ______ ____
ROOT
ATOM      1  C   UNL     1       4.748   4.881  18.765  0.00  0.00    +0.000 A 
ATOM      2  C   UNL     1       4.444   3.874  17.791  0.00  0.00    +0.000 A 
ATOM      3  C   UNL     1       3.209   3.197  17.728  0.00  0.00    +0.000 A 
ATOM      4  C   UNL     1       2.327   3.608  18.729  0.00  0.00    +0.000 A 
ATOM      5  C   UNL     1       2.594   4.619  19.726  0.00  0.00    +0.000 A 
ATOM      6  C   UNL     1       3.829   5.287  19.765  0.00  0.00    +0.000 A 
ATOM      7  N   UNL     1       1.529   4.763  20.527  0.00  0.00    +0.000 NA
ATOM      8  O   UNL     1       0.566   3.858  20.094  0.00  0.00    +0.000 OA
ATOM      9  N   UNL     1       1.096   3.148  18.971  0.00  0.00    +0.000 N 
ATOM     10  O   UNL     1       0.361   2.276  18.451  0.00  0.00    +0.000 OA
ENDROOT
BRANCH   1  12
ATOM     11  N   UNL     1       6.449   6.337  17.776  0.00  0.00    +0.000 N 
ATOM     12  C   UNL     1       6.100   5.506  18.817  0.00  0.00    +0.000 C 
ATOM     13  O   UNL     1       6.834   5.273  19.771  0.00  0.00    +0.000 OA
ATOM     14  H   UNL     1       5.780   6.574  17.056  0.00  0.00    +0.000 HD
BRANCH  11  15
ATOM     15  C   UNL     1       7.760   6.956  17.707  0.00  0.00    +0.000 C 
BRANCH  15  16
ATOM     16  C   UNL     1       7.686   8.482  17.646  0.00  0.00    +0.000 C 
BRANCH  16  18
ATOM     17  C   UNL     1       9.016  10.562  18.181  0.00  0.00    +0.000 C 
ATOM     18  C   UNL     1       8.651   9.154  18.624  0.00  0.00    +0.000 C 
ENDBRANCH  16  18
ENDBRANCH  15  16
ENDBRANCH  11  15
ENDBRANCH   1  12
TORSDOF 4
ENDMDL
MODEL 7
REMARK VINA RESULT:      -6.8      2.578      3.433
REMARK  Name = 
REMARK  5 active torsions:
REMARK  status: ('A' for Active; 'I' for Inactive)
REMARK    1  A    between atoms: C_1  and  C_2
REMARK    2  A    between atoms: C_2  and  C_3
REMARK    3  A    between atoms: C_3  and  C_4
REMARK    4  A    between atoms: C_4  and  N_5
REMARK    5  A    between atoms: C_6  and  C_8
REMARK                            x       y       z     vdW  Elec       q    Type
REMARK                         _______ _______ _______ _____ _____    ______ ____
ROOT
ATOM      1  C   UNL     1       4.449   4.989  16.840  0.00  0.00    +0.000 A 
ATOM      2  C   UNL     1       3.892   5.978  17.715  0.00  0.00    +0.000 A 
ATOM      3  C   UNL     1       2.887   5.703  18.665  0.00  0.00    +0.000 A 
ATOM      4  C   UNL     1       2.490   4.365  18.643  0.00  0.00    +0.000 A 
ATOM      5  C   UNL     1       3.027   3.339  17.780  0.00  0.00    +0.000 A 
ATOM      6  C   UNL     1       4.034   3.634  16.847  0.00  0.00    +0.000 A 
ATOM      7  N   UNL     1       2.419   2.169  18.027  0.00  0.00    +0.000 NA
ATOM      8  O   UNL     1       1.478   2.400  19.025  0.00  0.00    +0.000 OA
ATOM      9  N   UNL     1       1.543   3.783  19.386  0.00  0.00    +0.000 N 
ATOM     10  O   UNL     1       0.751   4.176  20.274  0.00  0.00    +0.000 OA
ENDROOT
BRANCH   1  12
ATOM     11  N   UNL     1       5.875   4.377  14.947  0.00  0.00    +0.000 N 
ATOM     12  C   UNL     1       5.459   5.366  15.810  0.00  0.00    +0.000 C 
ATOM     13  O   UNL     1       5.866   6.521  15.762  0.00  0.00    +0.000 OA
ATOM     14  H   UNL     1       5.447   3.462  14.963  0.00  0.00    +0.000 HD
BRANCH  11  15
ATOM     15  C   UNL     1       6.890   4.629  13.941  0.00  0.00    +0.000 C 
BRANCH  15  16
ATOM     16  C   UNL     1       6.560   3.976  12.598  0.00  0.00    +0.000 C 
BRANCH  16  18
ATOM     17  C   UNL     1       4.444   3.327  11.381  0.00  0.00    +0.000 C 
ATOM     18  C   UNL     1       5.268   3.159  12.647  0.00  0.00    +0.000 C 
ENDBRANCH  16  18
ENDBRANCH  15  16
ENDBRANCH  11  15
ENDBRANCH   1  12
TORSDOF 4
ENDMDL
MODEL 8
REMARK VINA RESULT:      -6.8      3.361      6.118
REMARK  Name = 
REMARK  5 active torsions:
REMARK  status: ('A' for Active; 'I' for Inactive)
REMARK    1  A    between atoms: C_1  and  C_2
REMARK    2  A    between atoms: C_2  and  C_3
REMARK    3  A    between atoms: C_3  and  C_4
REMARK    4  A    between atoms: C_4  and  N_5
REMARK    5  A    between atoms: C_6  and  C_8
REMARK                            x       y       z     vdW  Elec       q    Type
REMARK                         _______ _______ _______ _____ _____    ______ ____
ROOT
ATOM      1  C   UNL     1       4.299   3.886  17.619  0.00  0.00    +0.000 A 
ATOM      2  C   UNL     1       4.576   5.021  18.451  0.00  0.00    +0.000 A 
ATOM      3  C   UNL     1       5.572   5.976  18.162  0.00  0.00    +0.000 A 
ATOM      4  C   UNL     1       6.265   5.680  16.987  0.00  0.00    +0.000 A 
ATOM      5  C   UNL     1       6.015   4.550  16.122  0.00  0.00    +0.000 A 
ATOM      6  C   UNL     1       5.011   3.616  16.425  0.00  0.00    +0.000 A 
ATOM      7  N   UNL     1       6.862   4.575  15.082  0.00  0.00    +0.000 NA
ATOM      8  O   UNL     1       7.678   5.688  15.246  0.00  0.00    +0.000 OA
ATOM      9  N   UNL     1       7.283   6.356  16.448  0.00  0.00    +0.000 N 
ATOM     10  O   UNL     1       7.923   7.387  16.762  0.00  0.00    +0.000 OA
ENDROOT
BRANCH   1  12
ATOM     11  N   UNL     1       1.978   3.316  18.148  0.00  0.00    +0.000 N 
ATOM     12  C   UNL     1       3.278   2.878  18.023  0.00  0.00    +0.000 C 
ATOM     13  O   UNL     1       3.622   1.717  18.214  0.00  0.00    +0.000 OA
ATOM     14  H   UNL     1       1.723   4.259  17.894  0.00  0.00    +0.000 HD
BRANCH  11  15
ATOM     15  C   UNL     1       0.918   2.425  18.583  0.00  0.00    +0.000 C 
BRANCH  15  16
ATOM     16  C   UNL     1       0.538   2.637  20.049  0.00  0.00    +0.000 C 
BRANCH  16  18
ATOM     17  C   UNL     1       2.221   3.549  21.698  0.00  0.00    +0.000 C 
ATOM     18  C   UNL     1       1.180   3.892  20.644  0.00  0.00    +0.000 C 
ENDBRANCH  16  18
ENDBRANCH  15  16
ENDBRANCH  11  15
ENDBRANCH   1  12
TORSDOF 4
ENDMDL
MODEL 9
REMARK VINA RESULT:      -6.8      2.947      6.286
REMARK  Name = 
REMARK  5 active torsions:
REMARK  status: ('A' for Active; 'I' for Inactive)
REMARK    1  A    between atoms: C_1  and  C_2
REMARK    2  A    between atoms: C_2  and  C_3
REMARK    3  A    between atoms: C_3  and  C_4
REMARK    4  A    between atoms: C_4  and  N_5
REMARK    5  A    between atoms: C_6  and  C_8
REMARK                            x       y       z     vdW  Elec       q    Type
REMARK                         _______ _______ _______ _____ _____    ______ ____
ROOT
ATOM      1  C   UNL     1       4.363   5.105  17.995  0.00  0.00    +0.000 A 
ATOM      2  C   UNL     1       4.019   4.124  17.009  0.00  0.00    +0.000 A 
ATOM      3  C   UNL     1       4.780   3.886  15.846  0.00  0.00    +0.000 A 
ATOM      4  C   UNL     1       5.893   4.724  15.760  0.00  0.00    +0.000 A 
ATOM      5  C   UNL     1       6.275   5.722  16.732  0.00  0.00    +0.000 A 
ATOM      6  C   UNL     1       5.506   5.936  17.888  0.00  0.00    +0.000 A 
ATOM      7  N   UNL     1       7.395   6.342  16.335  0.00  0.00    +0.000 NA
ATOM      8  O   UNL     1       7.758   5.788  15.112  0.00  0.00    +0.000 OA
ATOM      9  N   UNL     1       6.796   4.782  14.777  0.00  0.00    +0.000 N 
ATOM     10  O   UNL     1       6.962   4.177  13.692  0.00  0.00    +0.000 OA
ENDROOT
BRANCH   1  12
ATOM     11  N   UNL     1       3.283   4.306  20.041  0.00  0.00    +0.000 N 
ATOM     12  C   UNL     1       3.474   5.352  19.166  0.00  0.00    +0.000 C 
ATOM     13  O   UNL     1       2.964   6.457  19.311  0.00  0.00    +0.000 OA
ATOM     14  H   UNL     1       3.794   3.441  19.933  0.00  0.00    +0.000 HD
BRANCH  11  15
ATOM     15  C   UNL     1       2.397   4.428  21.184  0.00  0.00    +0.000 C 
BRANCH  15  16
ATOM     16  C   UNL     1       1.262   3.404  21.159  0.00  0.00    +0.000 C 
BRANCH  16  18
ATOM     17  C   UNL     1       0.656   2.549  18.860  0.00  0.00    +0.000 C 
ATOM     18  C   UNL     1       1.484   2.310  20.113  0.00  0.00    +0.000 C 
ENDBRANCH  16  18
ENDBRANCH  15  16
ENDBRANCH  11  15
ENDBRANCH   1  12
TORSDOF 4
ENDMDL
