MODEL 1
REMARK VINA RESULT:      -6.3      0.000      0.000
REMARK  Name = 
REMARK  7 active torsions:
REMARK  status: ('A' for Active; 'I' for Inactive)
REMARK    1  A    between atoms: N_4  and  C_5
REMARK    2  A    between atoms: C_5  and  C_6
REMARK    3  A    between atoms: C_6  and  C_7
REMARK    4  A    between atoms: CA_9  and  C_10
REMARK    5  A    between atoms: C_10  and  O_11
REMARK    6  A    between atoms: C_12  and  O_13
REMARK    7  A    between atoms: C_14  and  O_15
REMARK                            x       y       z     vdW  Elec       q    Type
REMARK                         _______ _______ _______ _____ _____    ______ ____
ROOT
ATOM      1  C   UNL     1       4.091   2.884  17.938  0.00  0.00    +0.000 C 
ATOM      2  N   UNL     1       2.780   2.190  17.802  0.00  0.00    +0.000 NA
ATOM      3  CA  UNL     1       2.170   2.114  19.162  0.00  0.00    +0.000 C 
ATOM      4  C   UNL     1       2.969   3.054  20.061  0.00  0.00    +0.000 C 
ATOM      5  C   UNL     1       4.364   2.971  19.448  0.00  0.00    +0.000 C 
ATOM      6  H   UNL     1       2.926   1.239  17.464  0.00  0.00    +0.000 HD
ENDROOT
BRANCH   4   7
ATOM      7  O   UNL     1       2.975   2.616  21.415  0.00  0.00    +0.000 OA
ATOM      8  H   UNL     1       3.431   1.749  21.416  0.00  0.00    +0.000 HD
ENDBRANCH   4   7
BRANCH   5   9
ATOM      9  O   UNL     1       5.011   1.772  19.916  0.00  0.00    +0.000 OA
ATOM     10  H   UNL     1       4.422   1.021  19.725  0.00  0.00    +0.000 HD
ENDBRANCH   5   9
BRANCH   1  11
ATOM     11  C   UNL     1       4.010   4.250  17.234  0.00  0.00    +0.000 C 
BRANCH  11  12
ATOM     12  C   UNL     1       4.994   4.349  16.063  0.00  0.00    +0.000 C 
BRANCH  12  16
ATOM     13  N   UNL     1       7.647   4.464  17.146  0.00  0.00    +0.000 NA
ATOM     14  C   UNL     1       7.055   5.516  16.716  0.00  0.00    +0.000 C 
ATOM     15  N   UNL     1       7.611   6.744  16.741  0.00  0.00    +0.000 N 
ATOM     16  N   UNL     1       5.824   5.540  16.158  0.00  0.00    +0.000 N 
ATOM     17  H   UNL     1       8.560   4.716  17.527  0.00  0.00    +0.000 HD
ATOM     18  H   UNL     1       8.611   6.749  16.894  0.00  0.00    +0.000 HD
ATOM     19  H   UNL     1       7.375   7.294  15.922  0.00  0.00    +0.000 HD
ATOM     20  H   UNL     1       5.308   6.396  16.321  0.00  0.00    +0.000 HD
ENDBRANCH  12  16
ENDBRANCH  11  12
ENDBRANCH   1  11
BRANCH   3  21
ATOM     21  C   UNL     1       0.680   2.467  19.134  0.00  0.00    +0.000 C 
BRANCH  21  22
ATOM     22  O   UNL     1       0.350   3.245  20.288  0.00  0.00    +0.000 OA
ATOM     23  H   UNL     1      -0.007   4.079  19.930  0.00  0.00    +0.000 HD
ENDBRANCH  21  22
ENDBRANCH   3  21
TORSDOF 7
ENDMDL
MODEL 2
REMARK VINA RESULT:      -6.3      2.034      2.958
REMARK  Name = 
REMARK  7 active torsions:
REMARK  status: ('A' for Active; 'I' for Inactive)
REMARK    1  A    between atoms: N_4  and  C_5
REMARK    2  A    between atoms: C_5  and  C_6
REMARK    3  A    between atoms: C_6  and  C_7
REMARK    4  A    between atoms: CA_9  and  C_10
REMARK    5  A    between atoms: C_10  and  O_11
REMARK    6  A    between atoms: C_12  and  O_13
REMARK    7  A    between atoms: C_14  and  O_15
REMARK                            x       y       z     vdW  Elec       q    Type
REMARK                         _______ _______ _______ _____ _____    ______ ____
ROOT
ATOM      1  C   UNL     1       4.906   4.950  19.335  0.00  0.00    +0.000 C 
ATOM      2  N   UNL     1       5.001   3.464  19.289  0.00  0.00    +0.000 NA
ATOM      3  CA  UNL     1       3.620   2.932  19.089  0.00  0.00    +0.000 C 
ATOM      4  C   UNL     1       2.743   4.116  18.688  0.00  0.00    +0.000 C 
ATOM      5  C   UNL     1       3.406   5.271  19.432  0.00  0.00    +0.000 C 
ATOM      6  H   UNL     1       5.352   3.112  20.180  0.00  0.00    +0.000 HD
ENDROOT
BRANCH   4   7
ATOM      7  O   UNL     1       1.394   3.942  19.106  0.00  0.00    +0.000 OA
ATOM      8  H   UNL     1       1.397   3.177  19.718  0.00  0.00    +0.000 HD
ENDBRANCH   4   7
BRANCH   5   9
ATOM      9  O   UNL     1       2.972   5.255  20.806  0.00  0.00    +0.000 OA
ATOM     10  H   UNL     1       2.274   5.926  20.906  0.00  0.00    +0.000 HD
ENDBRANCH   5   9
BRANCH   1  11
ATOM     11  C   UNL     1       5.595   5.534  18.090  0.00  0.00    +0.000 C 
BRANCH  11  12
ATOM     12  C   UNL     1       6.734   4.638  17.593  0.00  0.00    +0.000 C 
BRANCH  12  16
ATOM     13  N   UNL     1       7.547   5.341  14.935  0.00  0.00    +0.000 NA
ATOM     14  C   UNL     1       6.767   4.349  15.154  0.00  0.00    +0.000 C 
ATOM     15  N   UNL     1       6.265   3.570  14.175  0.00  0.00    +0.000 N 
ATOM     16  N   UNL     1       6.369   3.930  16.376  0.00  0.00    +0.000 N 
ATOM     17  H   UNL     1       7.685   5.454  13.930  0.00  0.00    +0.000 HD
ATOM     18  H   UNL     1       6.730   3.664  13.282  0.00  0.00    +0.000 HD
ATOM     19  H   UNL     1       6.211   2.593  14.445  0.00  0.00    +0.000 HD
ATOM     20  H   UNL     1       5.446   3.516  16.395  0.00  0.00    +0.000 HD
ENDBRANCH  12  16
ENDBRANCH  11  12
ENDBRANCH   1  11
BRANCH   3  21
ATOM     21  C   UNL     1       3.592   1.811  18.047  0.00  0.00    +0.000 C 
BRANCH  21  22
ATOM     22  O   UNL     1       4.337   0.689  18.529  0.00  0.00    +0.000 OA
ATOM     23  H   UNL     1       4.108  -0.040  17.922  0.00  0.00    +0.000 HD
ENDBRANCH  21  22
ENDBRANCH   3  21
TORSDOF 7
ENDMDL
MODEL 3
REMARK VINA RESULT:      -6.3      1.266      1.606
REMARK  Name = 
REMARK  7 active torsions:
REMARK  status: ('A' for Active; 'I' for Inactive)
REMARK    1  A    between atoms: N_4  and  C_5
REMARK    2  A    between atoms: C_5  and  C_6
REMARK    3  A    between atoms: C_6  and  C_7
REMARK    4  A    between atoms: CA_9  and  C_10
REMARK    5  A    between atoms: C_10  and  O_11
REMARK    6  A    between atoms: C_12  and  O_13
REMARK    7  A    between atoms: C_14  and  O_15
REMARK                            x       y       z     vdW  Elec       q    Type
REMARK                         _______ _______ _______ _____ _____    ______ ____
ROOT
ATOM      1  C   UNL     1       4.152   3.398  17.917  0.00  0.00    +0.000 C 
ATOM      2  N   UNL     1       2.929   2.589  17.654  0.00  0.00    +0.000 NA
ATOM      3  CA  UNL     1       2.311   2.267  18.974  0.00  0.00    +0.000 C 
ATOM      4  C   UNL     1       2.985   3.164  20.010  0.00  0.00    +0.000 C 
ATOM      5  C   UNL     1       4.390   3.315  19.434  0.00  0.00    +0.000 C 
ATOM      6  H   UNL     1       3.187   1.711  17.200  0.00  0.00    +0.000 HD
ENDROOT
BRANCH   4   7
ATOM      7  O   UNL     1       3.020   2.554  21.296  0.00  0.00    +0.000 OA
ATOM      8  H   UNL     1       2.693   1.640  21.170  0.00  0.00    +0.000 HD
ENDBRANCH   4   7
BRANCH   5   9
ATOM      9  O   UNL     1       5.161   2.144  19.762  0.00  0.00    +0.000 OA
ATOM     10  H   UNL     1       4.541   1.400  19.872  0.00  0.00    +0.000 HD
ENDBRANCH   5   9
BRANCH   1  11
ATOM     11  C   UNL     1       3.928   4.827  17.393  0.00  0.00    +0.000 C 
BRANCH  11  12
ATOM     12  C   UNL     1       5.072   5.288  16.484  0.00  0.00    +0.000 C 
BRANCH  12  16
ATOM     13  N   UNL     1       7.388   5.210  14.795  0.00  0.00    +0.000 NA
ATOM     14  C   UNL     1       6.404   4.409  14.616  0.00  0.00    +0.000 C 
ATOM     15  N   UNL     1       6.368   3.485  13.635  0.00  0.00    +0.000 N 
ATOM     16  N   UNL     1       5.297   4.357  15.389  0.00  0.00    +0.000 N 
ATOM     17  H   UNL     1       8.092   5.055  14.072  0.00  0.00    +0.000 HD
ATOM     18  H   UNL     1       7.262   3.298  13.201  0.00  0.00    +0.000 HD
ATOM     19  H   UNL     1       5.930   2.619  13.933  0.00  0.00    +0.000 HD
ATOM     20  H   UNL     1       4.456   4.081  14.897  0.00  0.00    +0.000 HD
ENDBRANCH  12  16
ENDBRANCH  11  12
ENDBRANCH   1  11
BRANCH   3  21
ATOM     21  C   UNL     1       0.791   2.455  18.947  0.00  0.00    +0.000 C 
BRANCH  21  22
ATOM     22  O   UNL     1       0.370   3.124  20.139  0.00  0.00    +0.000 OA
ATOM     23  H   UNL     1       1.017   2.854  20.817  0.00  0.00    +0.000 HD
ENDBRANCH  21  22
ENDBRANCH   3  21
TORSDOF 7
ENDMDL
MODEL 4
REMARK VINA RESULT:      -6.2      0.666      1.004
REMARK  Name = 
REMARK  7 active torsions:
REMARK  status: ('A' for Active; 'I' for Inactive)
REMARK    1  A    between atoms: N_4  and  C_5
REMARK    2  A    between atoms: C_5  and  C_6
REMARK    3  A    between atoms: C_6  and  C_7
REMARK    4  A    between atoms: CA_9  and  C_10
REMARK    5  A    between atoms: C_10  and  O_11
REMARK    6  A    between atoms: C_12  and  O_13
REMARK    7  A    between atoms: C_14  and  O_15
REMARK                            x       y       z     vdW  Elec       q    Type
REMARK                         _______ _______ _______ _____ _____    ______ ____
ROOT
ATOM      1  C   UNL     1       4.006   2.854  17.845  0.00  0.00    +0.000 C 
ATOM      2  N   UNL     1       2.717   2.112  17.762  0.00  0.00    +0.000 NA
ATOM      3  CA  UNL     1       2.135   2.067  19.135  0.00  0.00    +0.000 C 
ATOM      4  C   UNL     1       2.918   3.068  19.982  0.00  0.00    +0.000 C 
ATOM      5  C   UNL     1       4.303   3.008  19.346  0.00  0.00    +0.000 C 
ATOM      6  H   UNL     1       2.890   1.153  17.457  0.00  0.00    +0.000 HD
ENDROOT
BRANCH   4   7
ATOM      7  O   UNL     1       2.964   2.682  21.351  0.00  0.00    +0.000 OA
ATOM      8  H   UNL     1       2.655   3.458  21.861  0.00  0.00    +0.000 HD
ENDBRANCH   4   7
BRANCH   5   9
ATOM      9  O   UNL     1       5.000   1.851  19.845  0.00  0.00    +0.000 OA
ATOM     10  H   UNL     1       5.901   2.127  20.090  0.00  0.00    +0.000 HD
ENDBRANCH   5   9
BRANCH   1  11
ATOM     11  C   UNL     1       3.865   4.188  17.092  0.00  0.00    +0.000 C 
BRANCH  11  12
ATOM     12  C   UNL     1       5.026   4.420  16.119  0.00  0.00    +0.000 C 
BRANCH  12  16
ATOM     13  N   UNL     1       6.808   6.059  17.657  0.00  0.00    +0.000 NA
ATOM     14  C   UNL     1       7.096   4.843  17.373  0.00  0.00    +0.000 C 
ATOM     15  N   UNL     1       8.240   4.243  17.756  0.00  0.00    +0.000 N 
ATOM     16  N   UNL     1       6.296   3.996  16.688  0.00  0.00    +0.000 N 
ATOM     17  H   UNL     1       7.581   6.484  18.171  0.00  0.00    +0.000 HD
ATOM     18  H   UNL     1       8.747   4.729  18.484  0.00  0.00    +0.000 HD
ATOM     19  H   UNL     1       8.103   3.270  18.010  0.00  0.00    +0.000 HD
ATOM     20  H   UNL     1       6.792   3.309  16.134  0.00  0.00    +0.000 HD
ENDBRANCH  12  16
ENDBRANCH  11  12
ENDBRANCH   1  11
BRANCH   3  21
ATOM     21  C   UNL     1       0.634   2.368  19.123  0.00  0.00    +0.000 C 
BRANCH  21  22
ATOM     22  O   UNL     1       0.306   3.215  20.228  0.00  0.00    +0.000 OA
ATOM     23  H   UNL     1       0.870   2.900  20.958  0.00  0.00    +0.000 HD
ENDBRANCH  21  22
ENDBRANCH   3  21
TORSDOF 7
ENDMDL
MODEL 5
REMARK VINA RESULT:      -6.2      2.661      5.582
REMARK  Name = 
REMARK  7 active torsions:
REMARK  status: ('A' for Active; 'I' for Inactive)
REMARK    1  A    between atoms: N_4  and  C_5
REMARK    2  A    between atoms: C_5  and  C_6
REMARK    3  A    between atoms: C_6  and  C_7
REMARK    4  A    between atoms: CA_9  and  C_10
REMARK    5  A    between atoms: C_10  and  O_11
REMARK    6  A    between atoms: C_12  and  O_13
REMARK    7  A    between atoms: C_14  and  O_15
REMARK                            x       y       z     vdW  Elec       q    Type
REMARK                         _______ _______ _______ _____ _____    ______ ____
ROOT
ATOM      1  C   UNL     1       3.617   4.264  17.990  0.00  0.00    +0.000 C 
ATOM      2  N   UNL     1       4.469   4.768  16.876  0.00  0.00    +0.000 NA
ATOM      3  CA  UNL     1       5.807   5.096  17.448  0.00  0.00    +0.000 C 
ATOM      4  C   UNL     1       5.857   4.478  18.844  0.00  0.00    +0.000 C 
ATOM      5  C   UNL     1       4.398   4.560  19.280  0.00  0.00    +0.000 C 
ATOM      6  H   UNL     1       4.066   5.625  16.494  0.00  0.00    +0.000 HD
ENDROOT
BRANCH   4   7
ATOM      7  O   UNL     1       6.699   5.218  19.721  0.00  0.00    +0.000 OA
ATOM      8  H   UNL     1       6.211   6.041  19.933  0.00  0.00    +0.000 HD
ENDBRANCH   4   7
BRANCH   5   9
ATOM      9  O   UNL     1       4.121   5.894  19.745  0.00  0.00    +0.000 OA
ATOM     10  H   UNL     1       3.681   6.377  19.023  0.00  0.00    +0.000 HD
ENDBRANCH   5   9
BRANCH   1  11
ATOM     11  C   UNL     1       3.325   2.771  17.760  0.00  0.00    +0.000 C 
BRANCH  11  12
ATOM     12  C   UNL     1       1.961   2.362  18.325  0.00  0.00    +0.000 C 
BRANCH  12  16
ATOM     13  N   UNL     1       0.623   3.875  20.360  0.00  0.00    +0.000 NA
ATOM     14  C   UNL     1       1.391   2.893  20.655  0.00  0.00    +0.000 C 
ATOM     15  N   UNL     1       1.639   2.498  21.919  0.00  0.00    +0.000 N 
ATOM     16  N   UNL     1       2.026   2.108  19.755  0.00  0.00    +0.000 N 
ATOM     17  H   UNL     1       0.276   4.308  21.217  0.00  0.00    +0.000 HD
ATOM     18  H   UNL     1       0.996   2.865  22.608  0.00  0.00    +0.000 HD
ATOM     19  H   UNL     1       1.711   1.490  22.005  0.00  0.00    +0.000 HD
ATOM     20  H   UNL     1       2.914   1.743  20.075  0.00  0.00    +0.000 HD
ENDBRANCH  12  16
ENDBRANCH  11  12
ENDBRANCH   1  11
BRANCH   3  21
ATOM     21  C   UNL     1       6.943   4.595  16.552  0.00  0.00    +0.000 C 
BRANCH  21  22
ATOM     22  O   UNL     1       8.032   4.146  17.363  0.00  0.00    +0.000 OA
ATOM     23  H   UNL     1       8.833   4.418  16.877  0.00  0.00    +0.000 HD
ENDBRANCH  21  22
ENDBRANCH   3  21
TORSDOF 7
ENDMDL
MODEL 6
REMARK VINA RESULT:      -6.2      1.803      2.956
REMARK  Name = 
REMARK  7 active torsions:
REMARK  status: ('A' for Active; 'I' for Inactive)
REMARK    1  A    between atoms: N_4  and  C_5
REMARK    2  A    between atoms: C_5  and  C_6
REMARK    3  A    between atoms: C_6  and  C_7
REMARK    4  A    between atoms: CA_9  and  C_10
REMARK    5  A    between atoms: C_10  and  O_11
REMARK    6  A    between atoms: C_12  and  O_13
REMARK    7  A    between atoms: C_14  and  O_15
REMARK                            x       y       z     vdW  Elec       q    Type
REMARK                         _______ _______ _______ _____ _____    ______ ____
ROOT
ATOM      1  C   UNL     1       3.884   4.154  17.431  0.00  0.00    +0.000 C 
ATOM      2  N   UNL     1       4.125   4.168  18.901  0.00  0.00    +0.000 NA
ATOM      3  CA  UNL     1       3.263   3.111  19.507  0.00  0.00    +0.000 C 
ATOM      4  C   UNL     1       2.751   2.244  18.360  0.00  0.00    +0.000 C 
ATOM      5  C   UNL     1       2.659   3.250  17.217  0.00  0.00    +0.000 C 
ATOM      6  H   UNL     1       3.844   5.070  19.288  0.00  0.00    +0.000 HD
ENDROOT
BRANCH   4   7
ATOM      7  O   UNL     1       1.478   1.678  18.650  0.00  0.00    +0.000 OA
ATOM      8  H   UNL     1       0.901   2.428  18.906  0.00  0.00    +0.000 HD
ENDBRANCH   4   7
BRANCH   5   9
ATOM      9  O   UNL     1       1.441   4.007  17.354  0.00  0.00    +0.000 OA
ATOM     10  H   UNL     1       0.710   3.375  17.476  0.00  0.00    +0.000 HD
ENDBRANCH   5   9
BRANCH   1  11
ATOM     11  C   UNL     1       5.158   3.666  16.720  0.00  0.00    +0.000 C 
BRANCH  11  12
ATOM     12  C   UNL     1       6.314   4.660  16.871  0.00  0.00    +0.000 C 
BRANCH  12  16
ATOM     13  N   UNL     1       7.706   6.766  18.231  0.00  0.00    +0.000 NA
ATOM     14  C   UNL     1       7.608   5.594  18.739  0.00  0.00    +0.000 C 
ATOM     15  N   UNL     1       8.146   5.253  19.926  0.00  0.00    +0.000 N 
ATOM     16  N   UNL     1       6.939   4.561  18.181  0.00  0.00    +0.000 N 
ATOM     17  H   UNL     1       8.269   7.360  18.841  0.00  0.00    +0.000 HD
ATOM     18  H   UNL     1       8.422   6.037  20.503  0.00  0.00    +0.000 HD
ATOM     19  H   UNL     1       7.557   4.616  20.452  0.00  0.00    +0.000 HD
ATOM     20  H   UNL     1       7.329   3.650  18.390  0.00  0.00    +0.000 HD
ENDBRANCH  12  16
ENDBRANCH  11  12
ENDBRANCH   1  11
BRANCH   3  21
ATOM     21  C   UNL     1       4.024   2.294  20.556  0.00  0.00    +0.000 C 
BRANCH  21  22
ATOM     22  O   UNL     1       5.169   1.686  19.951  0.00  0.00    +0.000 OA
ATOM     23  H   UNL     1       4.802   1.064  19.296  0.00  0.00    +0.000 HD
ENDBRANCH  21  22
ENDBRANCH   3  21
TORSDOF 7
ENDMDL
MODEL 7
REMARK VINA RESULT:      -6.2      2.927      5.198
REMARK  Name = 
REMARK  7 active torsions:
REMARK  status: ('A' for Active; 'I' for Inactive)
REMARK    1  A    between atoms: N_4  and  C_5
REMARK    2  A    between atoms: C_5  and  C_6
REMARK    3  A    between atoms: C_6  and  C_7
REMARK    4  A    between atoms: CA_9  and  C_10
REMARK    5  A    between atoms: C_10  and  O_11
REMARK    6  A    between atoms: C_12  and  O_13
REMARK    7  A    between atoms: C_14  and  O_15
REMARK                            x       y       z     vdW  Elec       q    Type
REMARK                         _______ _______ _______ _____ _____    ______ ____
ROOT
ATOM      1  C   UNL     1       3.418   5.762  18.311  0.00  0.00    +0.000 C 
ATOM      2  N   UNL     1       2.967   4.348  18.180  0.00  0.00    +0.000 NA
ATOM      3  CA  UNL     1       4.184   3.485  18.208  0.00  0.00    +0.000 C 
ATOM      4  C   UNL     1       5.339   4.362  18.686  0.00  0.00    +0.000 C 
ATOM      5  C   UNL     1       4.945   5.732  18.142  0.00  0.00    +0.000 C 
ATOM      6  H   UNL     1       2.503   4.215  17.281  0.00  0.00    +0.000 HD
ENDROOT
BRANCH   4   7
ATOM      7  O   UNL     1       6.586   3.935  18.149  0.00  0.00    +0.000 OA
ATOM      8  H   UNL     1       6.501   4.007  17.176  0.00  0.00    +0.000 HD
ENDBRANCH   4   7
BRANCH   5   9
ATOM      9  O   UNL     1       5.303   5.804  16.749  0.00  0.00    +0.000 OA
ATOM     10  H   UNL     1       4.576   5.410  16.234  0.00  0.00    +0.000 HD
ENDBRANCH   5   9
BRANCH   1  11
ATOM     11  C   UNL     1       2.946   6.314  19.667  0.00  0.00    +0.000 C 
BRANCH  11  12
ATOM     12  C   UNL     1       1.672   5.616  20.156  0.00  0.00    +0.000 C 
BRANCH  12  16
ATOM     13  N   UNL     1       0.553   2.976  20.155  0.00  0.00    +0.000 NA
ATOM     14  C   UNL     1       1.372   3.353  21.065  0.00  0.00    +0.000 C 
ATOM     15  N   UNL     1       1.765   2.563  22.084  0.00  0.00    +0.000 N 
ATOM     16  N   UNL     1       1.971   4.564  21.115  0.00  0.00    +0.000 N 
ATOM     17  H   UNL     1       0.237   2.025  20.351  0.00  0.00    +0.000 HD
ATOM     18  H   UNL     1       1.566   1.580  21.954  0.00  0.00    +0.000 HD
ATOM     19  H   UNL     1       2.741   2.698  22.326  0.00  0.00    +0.000 HD
ATOM     20  H   UNL     1       2.164   4.895  22.052  0.00  0.00    +0.000 HD
ENDBRANCH  12  16
ENDBRANCH  11  12
ENDBRANCH   1  11
BRANCH   3  21
ATOM     21  C   UNL     1       3.985   2.255  19.098  0.00  0.00    +0.000 C 
BRANCH  21  22
ATOM     22  O   UNL     1       5.125   2.085  19.945  0.00  0.00    +0.000 OA
ATOM     23  H   UNL     1       5.821   1.740  19.357  0.00  0.00    +0.000 HD
ENDBRANCH  21  22
ENDBRANCH   3  21
TORSDOF 7
ENDMDL
MODEL 8
REMARK VINA RESULT:      -6.2      1.948      2.574
REMARK  Name = 
REMARK  7 active torsions:
REMARK  status: ('A' for Active; 'I' for Inactive)
REMARK    1  A    between atoms: N_4  and  C_5
REMARK    2  A    between atoms: C_5  and  C_6
REMARK    3  A    between atoms: C_6  and  C_7
REMARK    4  A    between atoms: CA_9  and  C_10
REMARK    5  A    between atoms: C_10  and  O_11
REMARK    6  A    between atoms: C_12  and  O_13
REMARK    7  A    between atoms: C_14  and  O_15
REMARK                            x       y       z     vdW  Elec       q    Type
REMARK                         _______ _______ _______ _____ _____    ______ ____
ROOT
ATOM      1  C   UNL     1       2.804   4.909  19.045  0.00  0.00    +0.000 C 
ATOM      2  N   UNL     1       1.965   4.763  20.267  0.00  0.00    +0.000 NA
ATOM      3  CA  UNL     1       1.396   3.384  20.260  0.00  0.00    +0.000 C 
ATOM      4  C   UNL     1       2.160   2.595  19.199  0.00  0.00    +0.000 C 
ATOM      5  C   UNL     1       2.497   3.677  18.178  0.00  0.00    +0.000 C 
ATOM      6  H   UNL     1       1.192   5.428  20.236  0.00  0.00    +0.000 HD
ENDROOT
BRANCH   4   7
ATOM      7  O   UNL     1       1.356   1.573  18.618  0.00  0.00    +0.000 OA
ATOM      8  H   UNL     1       0.837   1.187  19.353  0.00  0.00    +0.000 HD
ENDBRANCH   4   7
BRANCH   5   9
ATOM      9  O   UNL     1       1.343   3.916  17.349  0.00  0.00    +0.000 OA
ATOM     10  H   UNL     1       1.355   4.853  17.085  0.00  0.00    +0.000 HD
ENDBRANCH   5   9
BRANCH   1  11
ATOM     11  C   UNL     1       4.280   5.031  19.462  0.00  0.00    +0.000 C 
BRANCH  11  12
ATOM     12  C   UNL     1       5.205   4.244  18.529  0.00  0.00    +0.000 C 
BRANCH  12  16
ATOM     13  N   UNL     1       7.933   4.179  17.646  0.00  0.00    +0.000 NA
ATOM     14  C   UNL     1       7.098   5.027  17.172  0.00  0.00    +0.000 C 
ATOM     15  N   UNL     1       7.422   5.948  16.242  0.00  0.00    +0.000 N 
ATOM     16  N   UNL     1       5.790   5.097  17.506  0.00  0.00    +0.000 N 
ATOM     17  H   UNL     1       8.855   4.342  17.240  0.00  0.00    +0.000 HD
ATOM     18  H   UNL     1       8.297   5.774  15.766  0.00  0.00    +0.000 HD
ATOM     19  H   UNL     1       6.677   6.101  15.571  0.00  0.00    +0.000 HD
ATOM     20  H   UNL     1       5.399   6.030  17.468  0.00  0.00    +0.000 HD
ENDBRANCH  12  16
ENDBRANCH  11  12
ENDBRANCH   1  11
BRANCH   3  21
ATOM     21  C   UNL     1       1.481   2.730  21.642  0.00  0.00    +0.000 C 
BRANCH  21  22
ATOM     22  O   UNL     1       2.852   2.491  21.976  0.00  0.00    +0.000 OA
ATOM     23  H   UNL     1       2.839   1.672  22.505  0.00  0.00    +0.000 HD
ENDBRANCH  21  22
ENDBRANCH   3  21
TORSDOF 7
ENDMDL
MODEL 9
REMARK VINA RESULT:      -6.2      3.136      5.812
REMARK  Name = 
REMARK  7 active torsions:
REMARK  status: ('A' for Active; 'I' for Inactive)
REMARK    1  A    between atoms: N_4  and  C_5
REMARK    2  A    between atoms: C_5  and  C_6
REMARK    3  A    between atoms: C_6  and  C_7
REMARK    4  A    between atoms: CA_9  and  C_10
REMARK    5  A    between atoms: C_10  and  O_11
REMARK    6  A    between atoms: C_12  and  O_13
REMARK    7  A    between atoms: C_14  and  O_15
REMARK                            x       y       z     vdW  Elec       q    Type
REMARK                         _______ _______ _______ _____ _____    ______ ____
ROOT
ATOM      1  C   UNL     1       4.873   4.176  18.045  0.00  0.00    +0.000 C 
ATOM      2  N   UNL     1       6.070   4.213  18.931  0.00  0.00    +0.000 NA
ATOM      3  CA  UNL     1       7.167   4.888  18.176  0.00  0.00    +0.000 C 
ATOM      4  C   UNL     1       6.526   5.548  16.958  0.00  0.00    +0.000 C 
ATOM      5  C   UNL     1       5.370   4.599  16.653  0.00  0.00    +0.000 C 
ATOM      6  H   UNL     1       6.370   3.261  19.146  0.00  0.00    +0.000 HD
ENDROOT
BRANCH   4   7
ATOM      7  O   UNL     1       7.429   5.626  15.861  0.00  0.00    +0.000 OA
ATOM      8  H   UNL     1       7.284   6.504  15.452  0.00  0.00    +0.000 HD
ENDBRANCH   4   7
BRANCH   5   9
ATOM      9  O   UNL     1       5.875   3.462  15.928  0.00  0.00    +0.000 OA
ATOM     10  H   UNL     1       6.542   3.784  15.295  0.00  0.00    +0.000 HD
ENDBRANCH   5   9
BRANCH   1  11
ATOM     11  C   UNL     1       3.788   5.095  18.632  0.00  0.00    +0.000 C 
BRANCH  11  12
ATOM     12  C   UNL     1       2.413   4.822  18.014  0.00  0.00    +0.000 C 
BRANCH  12  16
ATOM     13  N   UNL     1       0.720   3.444  19.875  0.00  0.00    +0.000 NA
ATOM     14  C   UNL     1       1.323   2.820  18.932  0.00  0.00    +0.000 C 
ATOM     15  N   UNL     1       1.224   1.490  18.741  0.00  0.00    +0.000 N 
ATOM     16  N   UNL     1       2.105   3.400  17.995  0.00  0.00    +0.000 N 
ATOM     17  H   UNL     1       0.203   2.779  20.451  0.00  0.00    +0.000 HD
ATOM     18  H   UNL     1       0.458   1.050  19.234  0.00  0.00    +0.000 HD
ATOM     19  H   UNL     1       1.204   1.238  17.758  0.00  0.00    +0.000 HD
ATOM     20  H   UNL     1       2.861   2.814  17.661  0.00  0.00    +0.000 HD
ENDBRANCH  12  16
ENDBRANCH  11  12
ENDBRANCH   1  11
BRANCH   3  21
ATOM     21  C   UNL     1       7.919   5.895  19.052  0.00  0.00    +0.000 C 
BRANCH  21  22
ATOM     22  O   UNL     1       7.922   5.443  20.408  0.00  0.00    +0.000 OA
ATOM     23  H   UNL     1       8.601   5.986  20.849  0.00  0.00    +0.000 HD
ENDBRANCH  21  22
ENDBRANCH   3  21
TORSDOF 7
ENDMDL
