MODEL 1
REMARK VINA RESULT:      -6.4      0.000      0.000
REMARK  Name = 
REMARK  3 active torsions:
REMARK  status: ('A' for Active; 'I' for Inactive)
REMARK    1  A    between atoms: C_1  and  N_2
REMARK    2  A    between atoms: C_12  and  C_13
REMARK    3  A    between atoms: C_16  and  O_17
REMARK                            x       y       z     vdW  Elec       q    Type
REMARK                         _______ _______ _______ _____ _____    ______ ____
ROOT
ATOM      1  C   UNL     1       3.138  15.862  23.069  0.00  0.00    +0.000 C 
ATOM      2  N   UNL     1       4.082  15.593  22.007  0.00  0.00    +0.000 N 
ATOM      3  C   UNL     1       4.065  16.223  20.772  0.00  0.00    +0.000 A 
ATOM      4  C   UNL     1       5.201  15.856  20.088  0.00  0.00    +0.000 A 
ATOM      5  C   UNL     1       5.889  14.975  20.932  0.00  0.00    +0.000 A 
ATOM      6  C   UNL     1       5.183  14.769  22.097  0.00  0.00    +0.000 A 
ATOM      7  C   UNL     1       5.636  13.891  23.154  0.00  0.00    +0.000 C 
ATOM      8  O   UNL     1       5.046  13.686  24.215  0.00  0.00    +0.000 OA
ATOM      9  C   UNL     1       6.869  13.211  22.752  0.00  0.00    +0.000 A 
ATOM     10  N   UNL     1       7.424  12.132  23.387  0.00  0.00    +0.000 N 
ATOM     11  C   UNL     1       8.447  11.629  22.623  0.00  0.00    +0.000 A 
ATOM     12  C   UNL     1       8.641  12.443  21.518  0.00  0.00    +0.000 A 
ATOM     13  C   UNL     1       7.650  13.483  21.620  0.00  0.00    +0.000 A 
ATOM     14  C   UNL     1       7.233  14.512  20.669  0.00  0.00    +0.000 C 
ATOM     15  N   UNL     1       7.835  15.076  19.637  0.00  0.00    +0.000 N 
ATOM     16  O   UNL     1       9.101  15.186  19.538  0.00  0.00    +0.000 OA
ATOM     17  C   UNL     1       7.001  15.390  18.429  0.00  0.00    +0.000 C 
ATOM     18  C   UNL     1       5.795  16.263  18.785  0.00  0.00    +0.000 C 
ATOM     19  H   UNL     1       7.039  11.698  24.218  0.00  0.00    +0.000 HD
ENDROOT
BRANCH  12  20
ATOM     20  C   UNL     1       9.605  12.112  20.457  0.00  0.00    +0.000 A 
ATOM     21  C   UNL     1       9.180  11.582  19.232  0.00  0.00    +0.000 A 
ATOM     22  C   UNL     1      10.045  11.458  18.140  0.00  0.00    +0.000 A 
ATOM     23  C   UNL     1      11.393  11.732  18.315  0.00  0.00    +0.000 A 
ATOM     24  C   UNL     1      11.871  12.136  19.553  0.00  0.00    +0.000 A 
ATOM     25  C   UNL     1      10.978  12.345  20.615  0.00  0.00    +0.000 A 
BRANCH  23  26
ATOM     26  O   UNL     1      12.279  11.611  17.282  0.00  0.00    +0.000 OA
ATOM     27  H   UNL     1      11.891  11.006  16.628  0.00  0.00    +0.000 HD
ENDBRANCH  23  26
ENDBRANCH  12  20
TORSDOF 2
ENDMDL
MODEL 2
REMARK VINA RESULT:      -6.4      9.120     12.579
REMARK  Name = 
REMARK  3 active torsions:
REMARK  status: ('A' for Active; 'I' for Inactive)
REMARK    1  A    between atoms: C_1  and  N_2
REMARK    2  A    between atoms: C_12  and  C_13
REMARK    3  A    between atoms: C_16  and  O_17
REMARK                            x       y       z     vdW  Elec       q    Type
REMARK                         _______ _______ _______ _____ _____    ______ ____
ROOT
ATOM      1  C   UNL     1      -2.793   9.816  15.527  0.00  0.00    +0.000 C 
ATOM      2  N   UNL     1      -2.416  10.184  16.874  0.00  0.00    +0.000 N 
ATOM      3  C   UNL     1      -1.205   9.855  17.462  0.00  0.00    +0.000 A 
ATOM      4  C   UNL     1      -1.120  10.513  18.667  0.00  0.00    +0.000 A 
ATOM      5  C   UNL     1      -2.317  11.229  18.798  0.00  0.00    +0.000 A 
ATOM      6  C   UNL     1      -3.142  10.993  17.721  0.00  0.00    +0.000 A 
ATOM      7  C   UNL     1      -4.458  11.581  17.587  0.00  0.00    +0.000 C 
ATOM      8  O   UNL     1      -5.224  11.410  16.638  0.00  0.00    +0.000 OA
ATOM      9  C   UNL     1      -4.790  12.357  18.784  0.00  0.00    +0.000 A 
ATOM     10  N   UNL     1      -6.034  12.824  19.108  0.00  0.00    +0.000 N 
ATOM     11  C   UNL     1      -6.019  13.318  20.388  0.00  0.00    +0.000 A 
ATOM     12  C   UNL     1      -4.725  13.272  20.885  0.00  0.00    +0.000 A 
ATOM     13  C   UNL     1      -3.926  12.688  19.838  0.00  0.00    +0.000 A 
ATOM     14  C   UNL     1      -2.545  12.210  19.836  0.00  0.00    +0.000 C 
ATOM     15  N   UNL     1      -1.497  12.492  20.589  0.00  0.00    +0.000 N 
ATOM     16  O   UNL     1      -1.341  13.608  21.183  0.00  0.00    +0.000 OA
ATOM     17  C   UNL     1      -0.568  11.367  20.942  0.00  0.00    +0.000 C 
ATOM     18  C   UNL     1      -0.051  10.646  19.695  0.00  0.00    +0.000 C 
ATOM     19  H   UNL     1      -6.861  12.691  18.536  0.00  0.00    +0.000 HD
ENDROOT
BRANCH  12  20
ATOM     20  C   UNL     1      -4.401  13.643  22.270  0.00  0.00    +0.000 A 
ATOM     21  C   UNL     1      -4.216  12.666  23.257  0.00  0.00    +0.000 A 
ATOM     22  C   UNL     1      -3.704  12.979  24.520  0.00  0.00    +0.000 A 
ATOM     23  C   UNL     1      -3.509  14.310  24.857  0.00  0.00    +0.000 A 
ATOM     24  C   UNL     1      -3.807  15.313  23.946  0.00  0.00    +0.000 A 
ATOM     25  C   UNL     1      -4.231  14.981  22.651  0.00  0.00    +0.000 A 
BRANCH  23  26
ATOM     26  O   UNL     1      -3.026  14.666  26.084  0.00  0.00    +0.000 OA
ATOM     27  H   UNL     1      -3.224  15.607  26.220  0.00  0.00    +0.000 HD
ENDBRANCH  23  26
ENDBRANCH  12  20
TORSDOF 2
ENDMDL
MODEL 3
REMARK VINA RESULT:      -6.3      7.737     10.595
REMARK  Name = 
REMARK  3 active torsions:
REMARK  status: ('A' for Active; 'I' for Inactive)
REMARK    1  A    between atoms: C_1  and  N_2
REMARK    2  A    between atoms: C_12  and  C_13
REMARK    3  A    between atoms: C_16  and  O_17
REMARK                            x       y       z     vdW  Elec       q    Type
REMARK                         _______ _______ _______ _____ _____    ______ ____
ROOT
ATOM      1  C   UNL     1       2.414   7.551  19.207  0.00  0.00    +0.000 C 
ATOM      2  N   UNL     1       1.514   8.338  20.021  0.00  0.00    +0.000 N 
ATOM      3  C   UNL     1       1.011   7.928  21.246  0.00  0.00    +0.000 A 
ATOM      4  C   UNL     1       0.342   8.988  21.811  0.00  0.00    +0.000 A 
ATOM      5  C   UNL     1       0.436  10.038  20.889  0.00  0.00    +0.000 A 
ATOM      6  C   UNL     1       1.114   9.631  19.761  0.00  0.00    +0.000 A 
ATOM      7  C   UNL     1       1.351  10.495  18.624  0.00  0.00    +0.000 C 
ATOM      8  O   UNL     1       1.962  10.180  17.602  0.00  0.00    +0.000 OA
ATOM      9  C   UNL     1       0.692  11.787  18.824  0.00  0.00    +0.000 A 
ATOM     10  N   UNL     1       0.489  12.733  17.856  0.00  0.00    +0.000 N 
ATOM     11  C   UNL     1      -0.339  13.714  18.342  0.00  0.00    +0.000 A 
ATOM     12  C   UNL     1      -0.607  13.470  19.680  0.00  0.00    +0.000 A 
ATOM     13  C   UNL     1       0.087  12.249  20.002  0.00  0.00    +0.000 A 
ATOM     14  C   UNL     1       0.031  11.394  21.185  0.00  0.00    +0.000 C 
ATOM     15  N   UNL     1      -0.319  11.620  22.438  0.00  0.00    +0.000 N 
ATOM     16  O   UNL     1      -0.227  12.760  22.998  0.00  0.00    +0.000 OA
ATOM     17  C   UNL     1      -1.071  10.538  23.158  0.00  0.00    +0.000 C 
ATOM     18  C   UNL     1      -0.315   9.207  23.129  0.00  0.00    +0.000 C 
ATOM     19  H   UNL     1       0.792  12.640  16.893  0.00  0.00    +0.000 HD
ENDROOT
BRANCH  12  20
ATOM     20  C   UNL     1      -1.546  14.294  20.457  0.00  0.00    +0.000 A 
ATOM     21  C   UNL     1      -2.810  13.809  20.815  0.00  0.00    +0.000 A 
ATOM     22  C   UNL     1      -3.631  14.484  21.724  0.00  0.00    +0.000 A 
ATOM     23  C   UNL     1      -3.248  15.738  22.174  0.00  0.00    +0.000 A 
ATOM     24  C   UNL     1      -2.060  16.306  21.737  0.00  0.00    +0.000 A 
ATOM     25  C   UNL     1      -1.202  15.579  20.898  0.00  0.00    +0.000 A 
BRANCH  23  26
ATOM     26  O   UNL     1      -4.023  16.443  23.050  0.00  0.00    +0.000 OA
ATOM     27  H   UNL     1      -3.459  17.107  23.480  0.00  0.00    +0.000 HD
ENDBRANCH  23  26
ENDBRANCH  12  20
TORSDOF 2
ENDMDL
MODEL 4
REMARK VINA RESULT:      -6.2      9.014     12.472
REMARK  Name = 
REMARK  3 active torsions:
REMARK  status: ('A' for Active; 'I' for Inactive)
REMARK    1  A    between atoms: C_1  and  N_2
REMARK    2  A    between atoms: C_12  and  C_13
REMARK    3  A    between atoms: C_16  and  O_17
REMARK                            x       y       z     vdW  Elec       q    Type
REMARK                         _______ _______ _______ _____ _____    ______ ____
ROOT
ATOM      1  C   UNL     1      -3.030   9.743  15.345  0.00  0.00    +0.000 C 
ATOM      2  N   UNL     1      -2.536  10.098  16.657  0.00  0.00    +0.000 N 
ATOM      3  C   UNL     1      -1.290   9.734  17.145  0.00  0.00    +0.000 A 
ATOM      4  C   UNL     1      -1.091  10.387  18.339  0.00  0.00    +0.000 A 
ATOM      5  C   UNL     1      -2.253  11.135  18.567  0.00  0.00    +0.000 A 
ATOM      6  C   UNL     1      -3.169  10.924  17.560  0.00  0.00    +0.000 A 
ATOM      7  C   UNL     1      -4.475  11.547  17.533  0.00  0.00    +0.000 C 
ATOM      8  O   UNL     1      -5.320  11.399  16.650  0.00  0.00    +0.000 OA
ATOM      9  C   UNL     1      -4.688  12.328  18.754  0.00  0.00    +0.000 A 
ATOM     10  N   UNL     1      -5.889  12.828  19.177  0.00  0.00    +0.000 N 
ATOM     11  C   UNL     1      -5.757  13.318  20.452  0.00  0.00    +0.000 A 
ATOM     12  C   UNL     1      -4.429  13.236  20.843  0.00  0.00    +0.000 A 
ATOM     13  C   UNL     1      -3.733  12.633  19.735  0.00  0.00    +0.000 A 
ATOM     14  C   UNL     1      -2.370  12.118  19.620  0.00  0.00    +0.000 C 
ATOM     15  N   UNL     1      -1.258  12.370  20.286  0.00  0.00    +0.000 N 
ATOM     16  O   UNL     1      -1.024  13.480  20.866  0.00  0.00    +0.000 OA
ATOM     17  C   UNL     1      -0.334  11.220  20.563  0.00  0.00    +0.000 C 
ATOM     18  C   UNL     1       0.061  10.488  19.277  0.00  0.00    +0.000 C 
ATOM     19  H   UNL     1      -6.763  12.719  18.674  0.00  0.00    +0.000 HD
ENDROOT
BRANCH  12  20
ATOM     20  C   UNL     1      -3.984  13.594  22.198  0.00  0.00    +0.000 A 
ATOM     21  C   UNL     1      -3.659  14.916  22.528  0.00  0.00    +0.000 A 
ATOM     22  C   UNL     1      -3.440  15.315  23.850  0.00  0.00    +0.000 A 
ATOM     23  C   UNL     1      -3.399  14.353  24.846  0.00  0.00    +0.000 A 
ATOM     24  C   UNL     1      -3.588  13.014  24.534  0.00  0.00    +0.000 A 
ATOM     25  C   UNL     1      -3.900  12.638  23.219  0.00  0.00    +0.000 A 
BRANCH  23  26
ATOM     26  O   UNL     1      -3.172  14.692  26.149  0.00  0.00    +0.000 OA
ATOM     27  H   UNL     1      -2.614  14.001  26.544  0.00  0.00    +0.000 HD
ENDBRANCH  23  26
ENDBRANCH  12  20
TORSDOF 2
ENDMDL
MODEL 5
REMARK VINA RESULT:      -6.2      9.046     12.290
REMARK  Name = 
REMARK  3 active torsions:
REMARK  status: ('A' for Active; 'I' for Inactive)
REMARK    1  A    between atoms: C_1  and  N_2
REMARK    2  A    between atoms: C_12  and  C_13
REMARK    3  A    between atoms: C_16  and  O_17
REMARK                            x       y       z     vdW  Elec       q    Type
REMARK                         _______ _______ _______ _____ _____    ______ ____
ROOT
ATOM      1  C   UNL     1      -2.652   9.794  15.463  0.00  0.00    +0.000 C 
ATOM      2  N   UNL     1      -3.270  10.681  16.423  0.00  0.00    +0.000 N 
ATOM      3  C   UNL     1      -4.545  11.208  16.289  0.00  0.00    +0.000 A 
ATOM      4  C   UNL     1      -4.867  11.855  17.459  0.00  0.00    +0.000 A 
ATOM      5  C   UNL     1      -3.747  11.723  18.291  0.00  0.00    +0.000 A 
ATOM      6  C   UNL     1      -2.740  11.044  17.643  0.00  0.00    +0.000 A 
ATOM      7  C   UNL     1      -1.452  10.773  18.244  0.00  0.00    +0.000 C 
ATOM      8  O   UNL     1      -0.528  10.159  17.709  0.00  0.00    +0.000 OA
ATOM      9  C   UNL     1      -1.368  11.400  19.564  0.00  0.00    +0.000 A 
ATOM     10  N   UNL     1      -0.222  11.568  20.293  0.00  0.00    +0.000 N 
ATOM     11  C   UNL     1      -0.480  12.375  21.372  0.00  0.00    +0.000 A 
ATOM     12  C   UNL     1      -1.835  12.664  21.420  0.00  0.00    +0.000 A 
ATOM     13  C   UNL     1      -2.414  12.005  20.277  0.00  0.00    +0.000 A 
ATOM     14  C   UNL     1      -3.749  12.096  19.688  0.00  0.00    +0.000 C 
ATOM     15  N   UNL     1      -4.922  12.453  20.178  0.00  0.00    +0.000 N 
ATOM     16  O   UNL     1      -5.233  12.337  21.408  0.00  0.00    +0.000 OA
ATOM     17  C   UNL     1      -5.840  13.241  19.289  0.00  0.00    +0.000 C 
ATOM     18  C   UNL     1      -6.100  12.520  17.963  0.00  0.00    +0.000 C 
ATOM     19  H   UNL     1       0.696  11.257  19.994  0.00  0.00    +0.000 HD
ENDROOT
BRANCH  12  20
ATOM     20  C   UNL     1      -2.408  13.588  22.409  0.00  0.00    +0.000 A 
ATOM     21  C   UNL     1      -2.692  14.919  22.077  0.00  0.00    +0.000 A 
ATOM     22  C   UNL     1      -3.427  15.752  22.927  0.00  0.00    +0.000 A 
ATOM     23  C   UNL     1      -3.759  15.297  24.194  0.00  0.00    +0.000 A 
ATOM     24  C   UNL     1      -3.378  14.028  24.604  0.00  0.00    +0.000 A 
ATOM     25  C   UNL     1      -2.724  13.168  23.708  0.00  0.00    +0.000 A 
BRANCH  23  26
ATOM     26  O   UNL     1      -4.461  16.081  25.065  0.00  0.00    +0.000 OA
ATOM     27  H   UNL     1      -5.362  15.723  25.127  0.00  0.00    +0.000 HD
ENDBRANCH  23  26
ENDBRANCH  12  20
TORSDOF 2
ENDMDL
MODEL 6
REMARK VINA RESULT:      -6.2      2.845      2.985
REMARK  Name = 
REMARK  3 active torsions:
REMARK  status: ('A' for Active; 'I' for Inactive)
REMARK    1  A    between atoms: C_1  and  N_2
REMARK    2  A    between atoms: C_12  and  C_13
REMARK    3  A    between atoms: C_16  and  O_17
REMARK                            x       y       z     vdW  Elec       q    Type
REMARK                         _______ _______ _______ _____ _____    ______ ____
ROOT
ATOM      1  C   UNL     1       6.939  15.359  26.074  0.00  0.00    +0.000 C 
ATOM      2  N   UNL     1       7.518  15.563  24.765  0.00  0.00    +0.000 N 
ATOM      3  C   UNL     1       7.739  16.808  24.196  0.00  0.00    +0.000 A 
ATOM      4  C   UNL     1       8.457  16.629  23.037  0.00  0.00    +0.000 A 
ATOM      5  C   UNL     1       8.646  15.246  22.912  0.00  0.00    +0.000 A 
ATOM      6  C   UNL     1       8.028  14.579  23.947  0.00  0.00    +0.000 A 
ATOM      7  C   UNL     1       8.034  13.137  24.075  0.00  0.00    +0.000 C 
ATOM      8  O   UNL     1       7.508  12.498  24.987  0.00  0.00    +0.000 OA
ATOM      9  C   UNL     1       8.694  12.529  22.918  0.00  0.00    +0.000 A 
ATOM     10  N   UNL     1       8.649  11.202  22.585  0.00  0.00    +0.000 N 
ATOM     11  C   UNL     1       9.195  11.025  21.338  0.00  0.00    +0.000 A 
ATOM     12  C   UNL     1       9.701  12.232  20.880  0.00  0.00    +0.000 A 
ATOM     13  C   UNL     1       9.412  13.194  21.913  0.00  0.00    +0.000 A 
ATOM     14  C   UNL     1       9.523  14.650  21.930  0.00  0.00    +0.000 C 
ATOM     15  N   UNL     1      10.250  15.502  21.228  0.00  0.00    +0.000 N 
ATOM     16  O   UNL     1      11.374  15.203  20.709  0.00  0.00    +0.000 OA
ATOM     17  C   UNL     1       9.614  16.804  20.836  0.00  0.00    +0.000 C 
ATOM     18  C   UNL     1       9.074  17.560  22.053  0.00  0.00    +0.000 C 
ATOM     19  H   UNL     1       8.160  10.495  23.121  0.00  0.00    +0.000 HD
ENDROOT
BRANCH  12  20
ATOM     20  C   UNL     1      10.264  12.387  19.531  0.00  0.00    +0.000 A 
ATOM     21  C   UNL     1       9.578  13.098  18.537  0.00  0.00    +0.000 A 
ATOM     22  C   UNL     1      10.182  13.438  17.322  0.00  0.00    +0.000 A 
ATOM     23  C   UNL     1      11.440  12.935  17.031  0.00  0.00    +0.000 A 
ATOM     24  C   UNL     1      12.094  12.118  17.941  0.00  0.00    +0.000 A 
ATOM     25  C   UNL     1      11.519  11.861  19.195  0.00  0.00    +0.000 A 
BRANCH  23  26
ATOM     26  O   UNL     1      12.063  13.226  15.851  0.00  0.00    +0.000 OA
ATOM     27  H   UNL     1      12.551  14.058  15.969  0.00  0.00    +0.000 HD
ENDBRANCH  23  26
ENDBRANCH  12  20
TORSDOF 2
ENDMDL
MODEL 7
REMARK VINA RESULT:      -6.1      9.081     13.000
REMARK  Name = 
REMARK  3 active torsions:
REMARK  status: ('A' for Active; 'I' for Inactive)
REMARK    1  A    between atoms: C_1  and  N_2
REMARK    2  A    between atoms: C_12  and  C_13
REMARK    3  A    between atoms: C_16  and  O_17
REMARK                            x       y       z     vdW  Elec       q    Type
REMARK                         _______ _______ _______ _____ _____    ______ ____
ROOT
ATOM      1  C   UNL     1       1.022   9.447  17.913  0.00  0.00    +0.000 C 
ATOM      2  N   UNL     1       0.206  10.144  18.883  0.00  0.00    +0.000 N 
ATOM      3  C   UNL     1       0.650  10.534  20.137  0.00  0.00    +0.000 A 
ATOM      4  C   UNL     1      -0.323  11.318  20.711  0.00  0.00    +0.000 A 
ATOM      5  C   UNL     1      -1.369  11.374  19.782  0.00  0.00    +0.000 A 
ATOM      6  C   UNL     1      -1.073  10.612  18.673  0.00  0.00    +0.000 A 
ATOM      7  C   UNL     1      -1.974  10.460  17.551  0.00  0.00    +0.000 C 
ATOM      8  O   UNL     1      -1.747   9.802  16.535  0.00  0.00    +0.000 OA
ATOM      9  C   UNL     1      -3.241  11.142  17.825  0.00  0.00    +0.000 A 
ATOM     10  N   UNL     1      -4.397  10.988  17.108  0.00  0.00    +0.000 N 
ATOM     11  C   UNL     1      -5.429  11.608  17.766  0.00  0.00    +0.000 A 
ATOM     12  C   UNL     1      -4.935  12.269  18.880  0.00  0.00    +0.000 A 
ATOM     13  C   UNL     1      -3.520  12.001  18.898  0.00  0.00    +0.000 A 
ATOM     14  C   UNL     1      -2.504  12.259  19.916  0.00  0.00    +0.000 C 
ATOM     15  N   UNL     1      -2.435  13.121  20.915  0.00  0.00    +0.000 N 
ATOM     16  O   UNL     1      -3.034  14.246  20.913  0.00  0.00    +0.000 OA
ATOM     17  C   UNL     1      -1.812  12.654  22.198  0.00  0.00    +0.000 C 
ATOM     18  C   UNL     1      -0.401  12.102  21.975  0.00  0.00    +0.000 C 
ATOM     19  H   UNL     1      -4.490  10.388  16.296  0.00  0.00    +0.000 HD
ENDROOT
BRANCH  12  20
ATOM     20  C   UNL     1      -5.813  12.948  19.845  0.00  0.00    +0.000 A 
ATOM     21  C   UNL     1      -6.259  12.296  21.002  0.00  0.00    +0.000 A 
ATOM     22  C   UNL     1      -6.914  12.981  22.031  0.00  0.00    +0.000 A 
ATOM     23  C   UNL     1      -7.261  14.309  21.840  0.00  0.00    +0.000 A 
ATOM     24  C   UNL     1      -6.949  14.951  20.651  0.00  0.00    +0.000 A 
ATOM     25  C   UNL     1      -6.210  14.280  19.665  0.00  0.00    +0.000 A 
BRANCH  23  26
ATOM     26  O   UNL     1      -7.916  15.016  22.809  0.00  0.00    +0.000 OA
ATOM     27  H   UNL     1      -8.832  14.693  22.844  0.00  0.00    +0.000 HD
ENDBRANCH  23  26
ENDBRANCH  12  20
TORSDOF 2
ENDMDL
MODEL 8
REMARK VINA RESULT:      -6.1      8.383     10.347
REMARK  Name = 
REMARK  3 active torsions:
REMARK  status: ('A' for Active; 'I' for Inactive)
REMARK    1  A    between atoms: C_1  and  N_2
REMARK    2  A    between atoms: C_12  and  C_13
REMARK    3  A    between atoms: C_16  and  O_17
REMARK                            x       y       z     vdW  Elec       q    Type
REMARK                         _______ _______ _______ _____ _____    ______ ____
ROOT
ATOM      1  C   UNL     1      -7.121  13.956  21.579  0.00  0.00    +0.000 C 
ATOM      2  N   UNL     1      -6.246  13.132  20.775  0.00  0.00    +0.000 N 
ATOM      3  C   UNL     1      -6.664  12.385  19.685  0.00  0.00    +0.000 A 
ATOM      4  C   UNL     1      -5.549  11.876  19.061  0.00  0.00    +0.000 A 
ATOM      5  C   UNL     1      -4.453  12.318  19.813  0.00  0.00    +0.000 A 
ATOM      6  C   UNL     1      -4.876  13.052  20.899  0.00  0.00    +0.000 A 
ATOM      7  C   UNL     1      -3.969  13.624  21.871  0.00  0.00    +0.000 C 
ATOM      8  O   UNL     1      -4.299  14.296  22.848  0.00  0.00    +0.000 OA
ATOM      9  C   UNL     1      -2.592  13.226  21.573  0.00  0.00    +0.000 A 
ATOM     10  N   UNL     1      -1.524  13.365  22.418  0.00  0.00    +0.000 N 
ATOM     11  C   UNL     1      -0.442  12.699  21.902  0.00  0.00    +0.000 A 
ATOM     12  C   UNL     1      -0.763  12.196  20.650  0.00  0.00    +0.000 A 
ATOM     13  C   UNL     1      -2.136  12.567  20.421  0.00  0.00    +0.000 A 
ATOM     14  C   UNL     1      -3.081  12.166  19.382  0.00  0.00    +0.000 C 
ATOM     15  N   UNL     1      -2.921  11.694  18.158  0.00  0.00    +0.000 N 
ATOM     16  O   UNL     1      -1.898  11.940  17.440  0.00  0.00    +0.000 OA
ATOM     17  C   UNL     1      -3.878  10.638  17.687  0.00  0.00    +0.000 C 
ATOM     18  C   UNL     1      -5.334  11.097  17.811  0.00  0.00    +0.000 C 
ATOM     19  H   UNL     1      -1.578  13.778  23.343  0.00  0.00    +0.000 HD
ENDROOT
BRANCH  12  20
ATOM     20  C   UNL     1       0.161  11.348  19.882  0.00  0.00    +0.000 A 
ATOM     21  C   UNL     1       0.085   9.951  19.947  0.00  0.00    +0.000 A 
ATOM     22  C   UNL     1       0.804   9.130  19.073  0.00  0.00    +0.000 A 
ATOM     23  C   UNL     1       1.727   9.707  18.214  0.00  0.00    +0.000 A 
ATOM     24  C   UNL     1       1.922  11.080  18.216  0.00  0.00    +0.000 A 
ATOM     25  C   UNL     1       1.127  11.900  19.031  0.00  0.00    +0.000 A 
BRANCH  23  26
ATOM     26  O   UNL     1       2.465   8.945  17.354  0.00  0.00    +0.000 OA
ATOM     27  H   UNL     1       1.848   8.473  16.770  0.00  0.00    +0.000 HD
ENDBRANCH  23  26
ENDBRANCH  12  20
TORSDOF 2
ENDMDL
MODEL 9
REMARK VINA RESULT:      -6.1      8.188      8.801
REMARK  Name = 
REMARK  3 active torsions:
REMARK  status: ('A' for Active; 'I' for Inactive)
REMARK    1  A    between atoms: C_1  and  N_2
REMARK    2  A    between atoms: C_12  and  C_13
REMARK    3  A    between atoms: C_16  and  O_17
REMARK                            x       y       z     vdW  Elec       q    Type
REMARK                         _______ _______ _______ _____ _____    ______ ____
ROOT
ATOM      1  C   UNL     1      -2.869  13.679  21.591  0.00  0.00    +0.000 C 
ATOM      2  N   UNL     1      -2.464  12.621  20.693  0.00  0.00    +0.000 N 
ATOM      3  C   UNL     1      -2.972  12.447  19.415  0.00  0.00    +0.000 A 
ATOM      4  C   UNL     1      -2.239  11.463  18.792  0.00  0.00    +0.000 A 
ATOM      5  C   UNL     1      -1.293  11.036  19.733  0.00  0.00    +0.000 A 
ATOM      6  C   UNL     1      -1.456  11.710  20.923  0.00  0.00    +0.000 A 
ATOM      7  C   UNL     1      -0.635  11.467  22.090  0.00  0.00    +0.000 C 
ATOM      8  O   UNL     1      -0.735  12.052  23.169  0.00  0.00    +0.000 OA
ATOM      9  C   UNL     1       0.293  10.364  21.835  0.00  0.00    +0.000 A 
ATOM     10  N   UNL     1       1.023   9.704  22.786  0.00  0.00    +0.000 N 
ATOM     11  C   UNL     1       1.616   8.601  22.224  0.00  0.00    +0.000 A 
ATOM     12  C   UNL     1       1.361   8.584  20.861  0.00  0.00    +0.000 A 
ATOM     13  C   UNL     1       0.540   9.739  20.603  0.00  0.00    +0.000 A 
ATOM     14  C   UNL     1      -0.199  10.148  19.410  0.00  0.00    +0.000 C 
ATOM     15  N   UNL     1      -0.062   9.859  18.129  0.00  0.00    +0.000 N 
ATOM     16  O   UNL     1       1.049   9.535  17.597  0.00  0.00    +0.000 OA
ATOM     17  C   UNL     1      -1.312   9.681  17.317  0.00  0.00    +0.000 C 
ATOM     18  C   UNL     1      -2.229  10.904  17.413  0.00  0.00    +0.000 C 
ATOM     19  H   UNL     1       1.006   9.925  23.775  0.00  0.00    +0.000 HD
ENDROOT
BRANCH  12  20
ATOM     20  C   UNL     1       1.782   7.471  19.996  0.00  0.00    +0.000 A 
ATOM     21  C   UNL     1       2.491   7.704  18.811  0.00  0.00    +0.000 A 
ATOM     22  C   UNL     1       3.082   6.664  18.086  0.00  0.00    +0.000 A 
ATOM     23  C   UNL     1       2.838   5.354  18.469  0.00  0.00    +0.000 A 
ATOM     24  C   UNL     1       2.030   5.084  19.563  0.00  0.00    +0.000 A 
ATOM     25  C   UNL     1       1.520   6.138  20.337  0.00  0.00    +0.000 A 
BRANCH  23  26
ATOM     26  O   UNL     1       3.379   4.304  17.783  0.00  0.00    +0.000 OA
ATOM     27  H   UNL     1       3.659   4.631  16.911  0.00  0.00    +0.000 HD
ENDBRANCH  23  26
ENDBRANCH  12  20
TORSDOF 2
ENDMDL
