MODEL 1
REMARK VINA RESULT:      -6.9      0.000      0.000
REMARK  Name = 
REMARK  9 active torsions:
REMARK  status: ('A' for Active; 'I' for Inactive)
REMARK    1  A    between atoms: C_1  and  C_2
REMARK    2  A    between atoms: C_2  and  C_3
REMARK    3  A    between atoms: C_2  and  O_4
REMARK    4  A    between atoms: O_4  and  C_5
REMARK    5  A    between atoms: C_5  and  C_6
REMARK    6  A    between atoms: C_5  and  C_7
REMARK    7  A    between atoms: C_5  and  C_8
REMARK    8  A    between atoms: C_10  and  C_11
REMARK    9  A    between atoms: C_11  and  N_12
REMARK                            x       y       z     vdW  Elec       q    Type
REMARK                         _______ _______ _______ _____ _____    ______ ____
ROOT
ATOM      1  C   UNL     1       1.259   9.158  19.245  0.00  0.00    +0.000 A 
ATOM      2  N   UNL     1       1.899   8.062  19.599  0.00  0.00    +0.000 NA
ATOM      3  C   UNL     1       2.539   7.708  18.439  0.00  0.00    +0.000 A 
ATOM      4  N   UNL     1       2.353   8.552  17.415  0.00  0.00    +0.000 NA
ATOM      5  O   UNL     1       1.489   9.511  17.944  0.00  0.00    +0.000 OA
ENDROOT
BRANCH   1   6
ATOM      6  C   UNL     1       0.386  10.060  20.070  0.00  0.00    +0.000 C 
ATOM      7  C   UNL     1       0.926  11.485  20.223  0.00  0.00    +0.000 C 
ATOM      8  C   UNL     1       0.317   9.457  21.489  0.00  0.00    +0.000 C 
BRANCH   6   9
ATOM      9  O   UNL     1      -0.972  10.060  19.572  0.00  0.00    +0.000 OA
BRANCH   9  11
ATOM     10  C   UNL     1      -1.919  10.363  17.407  0.00  0.00    +0.000 C 
ATOM     11  C   UNL     1      -1.399  11.079  18.656  0.00  0.00    +0.000 C 
ATOM     12  C   UNL     1      -2.517  11.948  19.219  0.00  0.00    +0.000 C 
ENDBRANCH   9  11
ENDBRANCH   6   9
ENDBRANCH   1   6
BRANCH   3  13
ATOM     13  C   UNL     1       3.361   6.480  18.336  0.00  0.00    +0.000 C 
BRANCH  13  14
ATOM     14  N   UNL     1       2.499   5.317  18.412  0.00  0.00    +0.000 N 
ATOM     15  C   UNL     1       1.841   4.753  17.356  0.00  0.00    +0.000 A 
ATOM     16  N   UNL     1       1.160   3.692  17.722  0.00  0.00    +0.000 NA
ATOM     17  C   UNL     1       1.398   3.554  19.067  0.00  0.00    +0.000 A 
ATOM     18  C   UNL     1       0.942   2.575  19.961  0.00  0.00    +0.000 A 
ATOM     19  C   UNL     1       1.340   2.651  21.303  0.00  0.00    +0.000 A 
ATOM     20  C   UNL     1       2.169   3.682  21.745  0.00  0.00    +0.000 A 
ATOM     21  C   UNL     1       2.637   4.667  20.870  0.00  0.00    +0.000 A 
ATOM     22  C   UNL     1       2.229   4.572  19.532  0.00  0.00    +0.000 A 
ENDBRANCH  13  14
ENDBRANCH   3  13
TORSDOF 5
ENDMDL
MODEL 2
REMARK VINA RESULT:      -6.9      3.492      6.169
REMARK  Name = 
REMARK  9 active torsions:
REMARK  status: ('A' for Active; 'I' for Inactive)
REMARK    1  A    between atoms: C_1  and  C_2
REMARK    2  A    between atoms: C_2  and  C_3
REMARK    3  A    between atoms: C_2  and  O_4
REMARK    4  A    between atoms: O_4  and  C_5
REMARK    5  A    between atoms: C_5  and  C_6
REMARK    6  A    between atoms: C_5  and  C_7
REMARK    7  A    between atoms: C_5  and  C_8
REMARK    8  A    between atoms: C_10  and  C_11
REMARK    9  A    between atoms: C_11  and  N_12
REMARK                            x       y       z     vdW  Elec       q    Type
REMARK                         _______ _______ _______ _____ _____    ______ ____
ROOT
ATOM      1  C   UNL     1       2.796   3.523  19.195  0.00  0.00    +0.000 A 
ATOM      2  N   UNL     1       3.981   3.877  18.739  0.00  0.00    +0.000 NA
ATOM      3  C   UNL     1       4.020   3.257  17.516  0.00  0.00    +0.000 A 
ATOM      4  N   UNL     1       2.910   2.582  17.192  0.00  0.00    +0.000 NA
ATOM      5  O   UNL     1       2.098   2.744  18.314  0.00  0.00    +0.000 OA
ENDROOT
BRANCH   1   6
ATOM      6  C   UNL     1       2.123   3.893  20.487  0.00  0.00    +0.000 C 
ATOM      7  C   UNL     1       2.439   2.945  21.649  0.00  0.00    +0.000 C 
ATOM      8  C   UNL     1       0.601   3.811  20.250  0.00  0.00    +0.000 C 
BRANCH   6   9
ATOM      9  O   UNL     1       2.398   5.269  20.836  0.00  0.00    +0.000 OA
BRANCH   9  11
ATOM     10  C   UNL     1       1.350   7.383  21.157  0.00  0.00    +0.000 C 
ATOM     11  C   UNL     1       1.753   6.332  20.120  0.00  0.00    +0.000 C 
ATOM     12  C   UNL     1       2.664   6.990  19.091  0.00  0.00    +0.000 C 
ENDBRANCH   9  11
ENDBRANCH   6   9
ENDBRANCH   1   6
BRANCH   3  13
ATOM     13  C   UNL     1       5.209   3.329  16.636  0.00  0.00    +0.000 C 
BRANCH  13  14
ATOM     14  N   UNL     1       5.634   4.710  16.513  0.00  0.00    +0.000 N 
ATOM     15  C   UNL     1       5.174   5.598  15.581  0.00  0.00    +0.000 A 
ATOM     16  N   UNL     1       5.717   6.783  15.733  0.00  0.00    +0.000 NA
ATOM     17  C   UNL     1       6.553   6.662  16.816  0.00  0.00    +0.000 A 
ATOM     18  C   UNL     1       7.362   7.627  17.434  0.00  0.00    +0.000 A 
ATOM     19  C   UNL     1       8.127   7.252  18.547  0.00  0.00    +0.000 A 
ATOM     20  C   UNL     1       8.090   5.944  19.031  0.00  0.00    +0.000 A 
ATOM     21  C   UNL     1       7.289   4.967  18.432  0.00  0.00    +0.000 A 
ATOM     22  C   UNL     1       6.531   5.363  17.321  0.00  0.00    +0.000 A 
ENDBRANCH  13  14
ENDBRANCH   3  13
TORSDOF 5
ENDMDL
MODEL 3
REMARK VINA RESULT:      -6.9      0.833      2.021
REMARK  Name = 
REMARK  9 active torsions:
REMARK  status: ('A' for Active; 'I' for Inactive)
REMARK    1  A    between atoms: C_1  and  C_2
REMARK    2  A    between atoms: C_2  and  C_3
REMARK    3  A    between atoms: C_2  and  O_4
REMARK    4  A    between atoms: O_4  and  C_5
REMARK    5  A    between atoms: C_5  and  C_6
REMARK    6  A    between atoms: C_5  and  C_7
REMARK    7  A    between atoms: C_5  and  C_8
REMARK    8  A    between atoms: C_10  and  C_11
REMARK    9  A    between atoms: C_11  and  N_12
REMARK                            x       y       z     vdW  Elec       q    Type
REMARK                         _______ _______ _______ _____ _____    ______ ____
ROOT
ATOM      1  C   UNL     1       1.436   9.137  18.686  0.00  0.00    +0.000 A 
ATOM      2  N   UNL     1       1.952   8.062  19.249  0.00  0.00    +0.000 NA
ATOM      3  C   UNL     1       2.791   7.593  18.270  0.00  0.00    +0.000 A 
ATOM      4  N   UNL     1       2.840   8.347  17.164  0.00  0.00    +0.000 NA
ATOM      5  O   UNL     1       1.927   9.368  17.431  0.00  0.00    +0.000 OA
ENDROOT
BRANCH   1   6
ATOM      6  C   UNL     1       0.454  10.126  19.246  0.00  0.00    +0.000 C 
ATOM      7  C   UNL     1      -0.682  10.492  18.285  0.00  0.00    +0.000 C 
ATOM      8  C   UNL     1       1.229  11.429  19.532  0.00  0.00    +0.000 C 
BRANCH   6   9
ATOM      9  O   UNL     1      -0.057   9.680  20.523  0.00  0.00    +0.000 OA
BRANCH   9  11
ATOM     10  C   UNL     1      -0.860  11.035  22.310  0.00  0.00    +0.000 C 
ATOM     11  C   UNL     1       0.368  10.328  21.731  0.00  0.00    +0.000 C 
ATOM     12  C   UNL     1       0.900   9.349  22.771  0.00  0.00    +0.000 C 
ENDBRANCH   9  11
ENDBRANCH   6   9
ENDBRANCH   1   6
BRANCH   3  13
ATOM     13  C   UNL     1       3.569   6.344  18.433  0.00  0.00    +0.000 C 
BRANCH  13  14
ATOM     14  N   UNL     1       2.661   5.214  18.480  0.00  0.00    +0.000 N 
ATOM     15  C   UNL     1       2.005   4.684  17.405  0.00  0.00    +0.000 A 
ATOM     16  N   UNL     1       1.276   3.648  17.748  0.00  0.00    +0.000 NA
ATOM     17  C   UNL     1       1.478   3.492  19.097  0.00  0.00    +0.000 A 
ATOM     18  C   UNL     1       0.964   2.525  19.973  0.00  0.00    +0.000 A 
ATOM     19  C   UNL     1       1.334   2.576  21.324  0.00  0.00    +0.000 A 
ATOM     20  C   UNL     1       2.193   3.571  21.792  0.00  0.00    +0.000 A 
ATOM     21  C   UNL     1       2.718   4.543  20.936  0.00  0.00    +0.000 A 
ATOM     22  C   UNL     1       2.337   4.473  19.588  0.00  0.00    +0.000 A 
ENDBRANCH  13  14
ENDBRANCH   3  13
TORSDOF 5
ENDMDL
MODEL 4
REMARK VINA RESULT:      -6.7      1.962      2.946
REMARK  Name = 
REMARK  9 active torsions:
REMARK  status: ('A' for Active; 'I' for Inactive)
REMARK    1  A    between atoms: C_1  and  C_2
REMARK    2  A    between atoms: C_2  and  C_3
REMARK    3  A    between atoms: C_2  and  O_4
REMARK    4  A    between atoms: O_4  and  C_5
REMARK    5  A    between atoms: C_5  and  C_6
REMARK    6  A    between atoms: C_5  and  C_7
REMARK    7  A    between atoms: C_5  and  C_8
REMARK    8  A    between atoms: C_10  and  C_11
REMARK    9  A    between atoms: C_11  and  N_12
REMARK                            x       y       z     vdW  Elec       q    Type
REMARK                         _______ _______ _______ _____ _____    ______ ____
ROOT
ATOM      1  C   UNL     1       1.489   9.033  19.354  0.00  0.00    +0.000 A 
ATOM      2  N   UNL     1       2.123   8.747  18.234  0.00  0.00    +0.000 NA
ATOM      3  C   UNL     1       2.686   7.530  18.518  0.00  0.00    +0.000 A 
ATOM      4  N   UNL     1       2.395   7.045  19.733  0.00  0.00    +0.000 NA
ATOM      5  O   UNL     1       1.610   8.051  20.298  0.00  0.00    +0.000 OA
ENDROOT
BRANCH   1   6
ATOM      6  C   UNL     1       0.644  10.228  19.692  0.00  0.00    +0.000 C 
ATOM      7  C   UNL     1      -0.800  10.136  19.188  0.00  0.00    +0.000 C 
ATOM      8  C   UNL     1       1.279  11.449  18.997  0.00  0.00    +0.000 C 
BRANCH   6   9
ATOM      9  O   UNL     1       0.692  10.509  21.110  0.00  0.00    +0.000 OA
BRANCH   9  11
ATOM     10  C   UNL     1      -0.501   9.853  23.065  0.00  0.00    +0.000 C 
ATOM     11  C   UNL     1      -0.523  10.759  21.832  0.00  0.00    +0.000 C 
ATOM     12  C   UNL     1      -0.648  12.206  22.295  0.00  0.00    +0.000 C 
ENDBRANCH   9  11
ENDBRANCH   6   9
ENDBRANCH   1   6
BRANCH   3  13
ATOM     13  C   UNL     1       3.555   6.820  17.552  0.00  0.00    +0.000 C 
BRANCH  13  14
ATOM     14  N   UNL     1       4.056   5.603  18.159  0.00  0.00    +0.000 N 
ATOM     15  C   UNL     1       5.268   5.469  18.776  0.00  0.00    +0.000 A 
ATOM     16  N   UNL     1       5.434   4.259  19.257  0.00  0.00    +0.000 NA
ATOM     17  C   UNL     1       4.278   3.585  18.951  0.00  0.00    +0.000 A 
ATOM     18  C   UNL     1       3.905   2.266  19.249  0.00  0.00    +0.000 A 
ATOM     19  C   UNL     1       2.649   1.810  18.827  0.00  0.00    +0.000 A 
ATOM     20  C   UNL     1       1.785   2.647  18.121  0.00  0.00    +0.000 A 
ATOM     21  C   UNL     1       2.135   3.966  17.815  0.00  0.00    +0.000 A 
ATOM     22  C   UNL     1       3.396   4.403  18.247  0.00  0.00    +0.000 A 
ENDBRANCH  13  14
ENDBRANCH   3  13
TORSDOF 5
ENDMDL
MODEL 5
REMARK VINA RESULT:      -6.7      3.448      7.300
REMARK  Name = 
REMARK  9 active torsions:
REMARK  status: ('A' for Active; 'I' for Inactive)
REMARK    1  A    between atoms: C_1  and  C_2
REMARK    2  A    between atoms: C_2  and  C_3
REMARK    3  A    between atoms: C_2  and  O_4
REMARK    4  A    between atoms: O_4  and  C_5
REMARK    5  A    between atoms: C_5  and  C_6
REMARK    6  A    between atoms: C_5  and  C_7
REMARK    7  A    between atoms: C_5  and  C_8
REMARK    8  A    between atoms: C_10  and  C_11
REMARK    9  A    between atoms: C_11  and  N_12
REMARK                            x       y       z     vdW  Elec       q    Type
REMARK                         _______ _______ _______ _____ _____    ______ ____
ROOT
ATOM      1  C   UNL     1       5.293   5.645  17.402  0.00  0.00    +0.000 A 
ATOM      2  N   UNL     1       4.790   6.400  18.359  0.00  0.00    +0.000 NA
ATOM      3  C   UNL     1       3.536   5.870  18.521  0.00  0.00    +0.000 A 
ATOM      4  N   UNL     1       3.267   4.813  17.743  0.00  0.00    +0.000 NA
ATOM      5  O   UNL     1       4.430   4.670  16.985  0.00  0.00    +0.000 OA
ENDROOT
BRANCH   1   6
ATOM      6  C   UNL     1       6.656   5.689  16.771  0.00  0.00    +0.000 C 
ATOM      7  C   UNL     1       7.561   4.515  17.158  0.00  0.00    +0.000 C 
ATOM      8  C   UNL     1       7.352   6.970  17.275  0.00  0.00    +0.000 C 
BRANCH   6   9
ATOM      9  O   UNL     1       6.556   5.829  15.336  0.00  0.00    +0.000 OA
BRANCH   9  11
ATOM     10  C   UNL     1       5.779   4.073  13.927  0.00  0.00    +0.000 C 
ATOM     11  C   UNL     1       7.022   4.777  14.479  0.00  0.00    +0.000 C 
ATOM     12  C   UNL     1       7.850   5.290  13.307  0.00  0.00    +0.000 C 
ENDBRANCH   9  11
ENDBRANCH   6   9
ENDBRANCH   1   6
BRANCH   3  13
ATOM     13  C   UNL     1       2.560   6.438  19.478  0.00  0.00    +0.000 C 
BRANCH  13  14
ATOM     14  N   UNL     1       2.151   7.753  19.025  0.00  0.00    +0.000 N 
ATOM     15  C   UNL     1       2.351   8.253  17.769  0.00  0.00    +0.000 A 
ATOM     16  N   UNL     1       1.846   9.458  17.642  0.00  0.00    +0.000 NA
ATOM     17  C   UNL     1       1.285   9.746  18.862  0.00  0.00    +0.000 A 
ATOM     18  C   UNL     1       0.587  10.889  19.278  0.00  0.00    +0.000 A 
ATOM     19  C   UNL     1       0.098  10.939  20.591  0.00  0.00    +0.000 A 
ATOM     20  C   UNL     1       0.302   9.875  21.469  0.00  0.00    +0.000 A 
ATOM     21  C   UNL     1       0.992   8.724  21.075  0.00  0.00    +0.000 A 
ATOM     22  C   UNL     1       1.472   8.695  19.757  0.00  0.00    +0.000 A 
ENDBRANCH  13  14
ENDBRANCH   3  13
TORSDOF 5
ENDMDL
MODEL 6
REMARK VINA RESULT:      -6.7      1.579      2.133
REMARK  Name = 
REMARK  9 active torsions:
REMARK  status: ('A' for Active; 'I' for Inactive)
REMARK    1  A    between atoms: C_1  and  C_2
REMARK    2  A    between atoms: C_2  and  C_3
REMARK    3  A    between atoms: C_2  and  O_4
REMARK    4  A    between atoms: O_4  and  C_5
REMARK    5  A    between atoms: C_5  and  C_6
REMARK    6  A    between atoms: C_5  and  C_7
REMARK    7  A    between atoms: C_5  and  C_8
REMARK    8  A    between atoms: C_10  and  C_11
REMARK    9  A    between atoms: C_11  and  N_12
REMARK                            x       y       z     vdW  Elec       q    Type
REMARK                         _______ _______ _______ _____ _____    ______ ____
ROOT
ATOM      1  C   UNL     1       1.397   9.119  19.228  0.00  0.00    +0.000 A 
ATOM      2  N   UNL     1       2.022   8.747  18.128  0.00  0.00    +0.000 NA
ATOM      3  C   UNL     1       2.647   7.592  18.522  0.00  0.00    +0.000 A 
ATOM      4  N   UNL     1       2.402   7.224  19.787  0.00  0.00    +0.000 NA
ATOM      5  O   UNL     1       1.583   8.247  20.265  0.00  0.00    +0.000 OA
ENDROOT
BRANCH   1   6
ATOM      6  C   UNL     1       0.504  10.304  19.462  0.00  0.00    +0.000 C 
ATOM      7  C   UNL     1       1.019  11.607  18.840  0.00  0.00    +0.000 C 
ATOM      8  C   UNL     1       0.441  10.536  20.986  0.00  0.00    +0.000 C 
BRANCH   6   9
ATOM      9  O   UNL     1      -0.851  10.019  19.047  0.00  0.00    +0.000 OA
BRANCH   9  11
ATOM     10  C   UNL     1      -1.999   9.924  16.962  0.00  0.00    +0.000 C 
ATOM     11  C   UNL     1      -1.491  10.852  18.069  0.00  0.00    +0.000 C 
ATOM     12  C   UNL     1      -2.675  11.626  18.635  0.00  0.00    +0.000 C 
ENDBRANCH   9  11
ENDBRANCH   6   9
ENDBRANCH   1   6
BRANCH   3  13
ATOM     13  C   UNL     1       3.528   6.825  17.613  0.00  0.00    +0.000 C 
BRANCH  13  14
ATOM     14  N   UNL     1       3.905   5.577  18.247  0.00  0.00    +0.000 N 
ATOM     15  C   UNL     1       5.110   5.325  18.841  0.00  0.00    +0.000 A 
ATOM     16  N   UNL     1       5.152   4.119  19.356  0.00  0.00    +0.000 NA
ATOM     17  C   UNL     1       3.919   3.571  19.099  0.00  0.00    +0.000 A 
ATOM     18  C   UNL     1       3.408   2.313  19.448  0.00  0.00    +0.000 A 
ATOM     19  C   UNL     1       2.097   1.990  19.071  0.00  0.00    +0.000 A 
ATOM     20  C   UNL     1       1.315   2.899  18.359  0.00  0.00    +0.000 A 
ATOM     21  C   UNL     1       1.803   4.160  18.002  0.00  0.00    +0.000 A 
ATOM     22  C   UNL     1       3.116   4.463  18.390  0.00  0.00    +0.000 A 
ENDBRANCH  13  14
ENDBRANCH   3  13
TORSDOF 5
ENDMDL
MODEL 7
REMARK VINA RESULT:      -6.7      3.569      5.938
REMARK  Name = 
REMARK  9 active torsions:
REMARK  status: ('A' for Active; 'I' for Inactive)
REMARK    1  A    between atoms: C_1  and  C_2
REMARK    2  A    between atoms: C_2  and  C_3
REMARK    3  A    between atoms: C_2  and  O_4
REMARK    4  A    between atoms: O_4  and  C_5
REMARK    5  A    between atoms: C_5  and  C_6
REMARK    6  A    between atoms: C_5  and  C_7
REMARK    7  A    between atoms: C_5  and  C_8
REMARK    8  A    between atoms: C_10  and  C_11
REMARK    9  A    between atoms: C_11  and  N_12
REMARK                            x       y       z     vdW  Elec       q    Type
REMARK                         _______ _______ _______ _____ _____    ______ ____
ROOT
ATOM      1  C   UNL     1       5.650   6.639  17.557  0.00  0.00    +0.000 A 
ATOM      2  N   UNL     1       4.689   6.153  18.318  0.00  0.00    +0.000 NA
ATOM      3  C   UNL     1       3.585   6.825  17.859  0.00  0.00    +0.000 A 
ATOM      4  N   UNL     1       3.818   7.658  16.836  0.00  0.00    +0.000 NA
ATOM      5  O   UNL     1       5.196   7.549  16.643  0.00  0.00    +0.000 OA
ENDROOT
BRANCH   1   6
ATOM      6  C   UNL     1       7.112   6.295  17.534  0.00  0.00    +0.000 C 
ATOM      7  C   UNL     1       7.592   5.524  18.768  0.00  0.00    +0.000 C 
ATOM      8  C   UNL     1       7.894   7.625  17.512  0.00  0.00    +0.000 C 
BRANCH   6   9
ATOM      9  O   UNL     1       7.462   5.607  16.311  0.00  0.00    +0.000 OA
BRANCH   9  11
ATOM     10  C   UNL     1       7.014   4.938  14.070  0.00  0.00    +0.000 C 
ATOM     11  C   UNL     1       6.431   5.056  15.480  0.00  0.00    +0.000 C 
ATOM     12  C   UNL     1       5.980   3.673  15.936  0.00  0.00    +0.000 C 
ENDBRANCH   9  11
ENDBRANCH   6   9
ENDBRANCH   1   6
BRANCH   3  13
ATOM     13  C   UNL     1       2.245   6.640  18.462  0.00  0.00    +0.000 C 
BRANCH  13  14
ATOM     14  N   UNL     1       1.935   5.225  18.522  0.00  0.00    +0.000 N 
ATOM     15  C   UNL     1       1.621   4.440  17.448  0.00  0.00    +0.000 A 
ATOM     16  N   UNL     1       1.419   3.193  17.805  0.00  0.00    +0.000 NA
ATOM     17  C   UNL     1       1.623   3.166  19.163  0.00  0.00    +0.000 A 
ATOM     18  C   UNL     1       1.564   2.086  20.055  0.00  0.00    +0.000 A 
ATOM     19  C   UNL     1       1.826   2.319  21.412  0.00  0.00    +0.000 A 
ATOM     20  C   UNL     1       2.135   3.600  21.870  0.00  0.00    +0.000 A 
ATOM     21  C   UNL     1       2.201   4.691  20.998  0.00  0.00    +0.000 A 
ATOM     22  C   UNL     1       1.937   4.436  19.644  0.00  0.00    +0.000 A 
ENDBRANCH  13  14
ENDBRANCH   3  13
TORSDOF 5
ENDMDL
MODEL 8
REMARK VINA RESULT:      -6.6      0.937      1.839
REMARK  Name = 
REMARK  9 active torsions:
REMARK  status: ('A' for Active; 'I' for Inactive)
REMARK    1  A    between atoms: C_1  and  C_2
REMARK    2  A    between atoms: C_2  and  C_3
REMARK    3  A    between atoms: C_2  and  O_4
REMARK    4  A    between atoms: O_4  and  C_5
REMARK    5  A    between atoms: C_5  and  C_6
REMARK    6  A    between atoms: C_5  and  C_7
REMARK    7  A    between atoms: C_5  and  C_8
REMARK    8  A    between atoms: C_10  and  C_11
REMARK    9  A    between atoms: C_11  and  N_12
REMARK                            x       y       z     vdW  Elec       q    Type
REMARK                         _______ _______ _______ _____ _____    ______ ____
ROOT
ATOM      1  C   UNL     1       1.263   9.125  19.309  0.00  0.00    +0.000 A 
ATOM      2  N   UNL     1       1.910   8.021  19.628  0.00  0.00    +0.000 NA
ATOM      3  C   UNL     1       2.524   7.689  18.448  0.00  0.00    +0.000 A 
ATOM      4  N   UNL     1       2.316   8.552  17.444  0.00  0.00    +0.000 NA
ATOM      5  O   UNL     1       1.464   9.501  18.009  0.00  0.00    +0.000 OA
ENDROOT
BRANCH   1   6
ATOM      6  C   UNL     1       0.407  10.010  20.169  0.00  0.00    +0.000 C 
ATOM      7  C   UNL     1      -0.105   9.335  21.446  0.00  0.00    +0.000 C 
ATOM      8  C   UNL     1      -0.836  10.392  19.340  0.00  0.00    +0.000 C 
BRANCH   6   9
ATOM      9  O   UNL     1       1.085  11.253  20.464  0.00  0.00    +0.000 OA
BRANCH   9  11
ATOM     10  C   UNL     1       0.473  13.427  21.222  0.00  0.00    +0.000 C 
ATOM     11  C   UNL     1       0.531  12.496  20.008  0.00  0.00    +0.000 C 
ATOM     12  C   UNL     1       1.376  13.160  18.928  0.00  0.00    +0.000 C 
ENDBRANCH   9  11
ENDBRANCH   6   9
ENDBRANCH   1   6
BRANCH   3  13
ATOM     13  C   UNL     1       3.343   6.464  18.305  0.00  0.00    +0.000 C 
BRANCH  13  14
ATOM     14  N   UNL     1       2.485   5.299  18.392  0.00  0.00    +0.000 N 
ATOM     15  C   UNL     1       1.814   4.732  17.344  0.00  0.00    +0.000 A 
ATOM     16  N   UNL     1       1.141   3.670  17.719  0.00  0.00    +0.000 NA
ATOM     17  C   UNL     1       1.395   3.535  19.062  0.00  0.00    +0.000 A 
ATOM     18  C   UNL     1       0.952   2.556  19.962  0.00  0.00    +0.000 A 
ATOM     19  C   UNL     1       1.366   2.634  21.299  0.00  0.00    +0.000 A 
ATOM     20  C   UNL     1       2.198   3.667  21.730  0.00  0.00    +0.000 A 
ATOM     21  C   UNL     1       2.654   4.652  20.849  0.00  0.00    +0.000 A 
ATOM     22  C   UNL     1       2.230   4.555  19.516  0.00  0.00    +0.000 A 
ENDBRANCH  13  14
ENDBRANCH   3  13
TORSDOF 5
ENDMDL
MODEL 9
REMARK VINA RESULT:      -6.5      4.960      7.552
REMARK  Name = 
REMARK  9 active torsions:
REMARK  status: ('A' for Active; 'I' for Inactive)
REMARK    1  A    between atoms: C_1  and  C_2
REMARK    2  A    between atoms: C_2  and  C_3
REMARK    3  A    between atoms: C_2  and  O_4
REMARK    4  A    between atoms: O_4  and  C_5
REMARK    5  A    between atoms: C_5  and  C_6
REMARK    6  A    between atoms: C_5  and  C_7
REMARK    7  A    between atoms: C_5  and  C_8
REMARK    8  A    between atoms: C_10  and  C_11
REMARK    9  A    between atoms: C_11  and  N_12
REMARK                            x       y       z     vdW  Elec       q    Type
REMARK                         _______ _______ _______ _____ _____    ______ ____
ROOT
ATOM      1  C   UNL     1       6.699   4.746  15.802  0.00  0.00    +0.000 A 
ATOM      2  N   UNL     1       5.819   4.979  16.755  0.00  0.00    +0.000 NA
ATOM      3  C   UNL     1       6.541   4.719  17.892  0.00  0.00    +0.000 A 
ATOM      4  N   UNL     1       7.820   4.380  17.679  0.00  0.00    +0.000 NA
ATOM      5  O   UNL     1       7.924   4.381  16.288  0.00  0.00    +0.000 OA
ENDROOT
BRANCH   1   6
ATOM      6  C   UNL     1       6.546   4.872  14.313  0.00  0.00    +0.000 C 
ATOM      7  C   UNL     1       7.771   5.464  13.607  0.00  0.00    +0.000 C 
ATOM      8  C   UNL     1       5.374   5.840  14.054  0.00  0.00    +0.000 C 
BRANCH   6   9
ATOM      9  O   UNL     1       6.157   3.610  13.726  0.00  0.00    +0.000 OA
BRANCH   9  11
ATOM     10  C   UNL     1       6.842   2.359  11.817  0.00  0.00    +0.000 C 
ATOM     11  C   UNL     1       5.959   3.510  12.308  0.00  0.00    +0.000 C 
ATOM     12  C   UNL     1       4.514   3.208  11.931  0.00  0.00    +0.000 C 
ENDBRANCH   9  11
ENDBRANCH   6   9
ENDBRANCH   1   6
BRANCH   3  13
ATOM     13  C   UNL     1       5.940   4.800  19.242  0.00  0.00    +0.000 C 
BRANCH  13  14
ATOM     14  N   UNL     1       4.498   4.899  19.122  0.00  0.00    +0.000 N 
ATOM     15  C   UNL     1       3.786   6.065  19.100  0.00  0.00    +0.000 A 
ATOM     16  N   UNL     1       2.501   5.844  18.951  0.00  0.00    +0.000 NA
ATOM     17  C   UNL     1       2.376   4.479  18.860  0.00  0.00    +0.000 A 
ATOM     18  C   UNL     1       1.229   3.696  18.668  0.00  0.00    +0.000 A 
ATOM     19  C   UNL     1       1.368   2.304  18.599  0.00  0.00    +0.000 A 
ATOM     20  C   UNL     1       2.621   1.704  18.722  0.00  0.00    +0.000 A 
ATOM     21  C   UNL     1       3.779   2.465  18.912  0.00  0.00    +0.000 A 
ATOM     22  C   UNL     1       3.618   3.857  18.977  0.00  0.00    +0.000 A 
ENDBRANCH  13  14
ENDBRANCH   3  13
TORSDOF 5
ENDMDL
