MODEL 1
REMARK VINA RESULT:      -8.3      0.000      0.000
REMARK  Name = 
REMARK  13 active torsions:
REMARK  status: ('A' for Active; 'I' for Inactive)
REMARK    1  A    between atoms: C_1  and  C_2
REMARK    2  A    between atoms: C_2  and  C_3
REMARK    3  A    between atoms: C_3  and  C_4
REMARK    4  A    between atoms: C_3  and  C_5
REMARK    5  A    between atoms: C_3  and  C_6
REMARK    6  A    between atoms: C_8  and  N_9
REMARK    7  A    between atoms: N_12  and  C_13
REMARK    8  A    between atoms: C_21  and  O_22
REMARK    9  A    between atoms: C_23  and  O_24
REMARK   10  A    between atoms: O_24  and  C_25
REMARK   11  A    between atoms: C_26  and  C_27
REMARK   12  A    between atoms: C_27  and  O_28
REMARK   13  A    between atoms: C_27  and  C_29
REMARK                            x       y       z     vdW  Elec       q    Type
REMARK                         _______ _______ _______ _____ _____    ______ ____
ROOT
ATOM      1  C   UNL     1       5.603   5.641  18.273  0.00  0.00    +0.000 A 
ATOM      2  C   UNL     1       4.684   6.671  17.984  0.00  0.00    +0.000 A 
ATOM      3  C   UNL     1       3.300   6.529  18.197  0.00  0.00    +0.000 A 
ATOM      4  C   UNL     1       2.808   5.265  18.604  0.00  0.00    +0.000 A 
ATOM      5  C   UNL     1       3.699   4.257  19.014  0.00  0.00    +0.000 A 
ATOM      6  C   UNL     1       5.083   4.462  18.824  0.00  0.00    +0.000 A 
ENDROOT
BRANCH   3   7
ATOM      7  N   UNL     1       2.473   7.662  17.979  0.00  0.00    +0.000 N 
ATOM      8  C   UNL     1       1.905   8.366  19.040  0.00  0.00    +0.000 C 
ATOM      9  O   UNL     1       2.038   8.102  20.233  0.00  0.00    +0.000 OA
ATOM     10  N   UNL     1       1.178   9.451  18.595  0.00  0.00    +0.000 N 
ATOM     11  H   UNL     1       2.723   8.256  17.198  0.00  0.00    +0.000 HD
ATOM     12  H   UNL     1       0.770   9.336  17.678  0.00  0.00    +0.000 HD
BRANCH  10  13
ATOM     13  C   UNL     1       0.427  10.339  19.535  0.00  0.00    +0.000 C 
ATOM     14  C   UNL     1      -0.968   9.765  19.917  0.00  0.00    +0.000 C 
ATOM     15  C   UNL     1      -1.769  10.180  18.709  0.00  0.00    +0.000 A 
ATOM     16  C   UNL     1      -2.938   9.628  18.219  0.00  0.00    +0.000 A 
ATOM     17  C   UNL     1      -3.412  10.086  16.989  0.00  0.00    +0.000 A 
ATOM     18  C   UNL     1      -2.734  11.097  16.286  0.00  0.00    +0.000 A 
ATOM     19  C   UNL     1      -1.599  11.704  16.828  0.00  0.00    +0.000 A 
ATOM     20  C   UNL     1      -1.131  11.242  18.046  0.00  0.00    +0.000 A 
ATOM     21  C   UNL     1       0.061  11.689  18.850  0.00  0.00    +0.000 C 
BRANCH  21  22
ATOM     22  O   UNL     1       1.107  12.235  18.072  0.00  0.00    +0.000 OA
ATOM     23  H   UNL     1       0.753  12.373  17.181  0.00  0.00    +0.000 HD
ENDBRANCH  21  22
ENDBRANCH  10  13
ENDBRANCH   3   7
BRANCH   1  24
ATOM     24  C   UNL     1       7.123   5.778  18.028  0.00  0.00    +0.000 C 
ATOM     25  C   UNL     1       7.943   5.723  19.337  0.00  0.00    +0.000 C 
ATOM     26  C   UNL     1       7.403   7.159  17.379  0.00  0.00    +0.000 C 
BRANCH  24  28
ATOM     27  C   UNL     1       6.932   4.580  15.709  0.00  0.00    +0.000 C 
ATOM     28  C   UNL     1       7.665   4.697  17.040  0.00  0.00    +0.000 C 
ENDBRANCH  24  28
ENDBRANCH   1  24
BRANCH   4  29
ATOM     29  O   UNL     1       1.470   4.941  18.542  0.00  0.00    +0.000 OA
ATOM     30  C   UNL     1       1.148   4.087  17.431  0.00  0.00    +0.000 C 
ENDBRANCH   4  29
BRANCH   5  31
ATOM     31  C   UNL     1       3.280   2.975  19.730  0.00  0.00    +0.000 C 
BRANCH  31  32
ATOM     32  C   UNL     1       2.495   3.105  21.059  0.00  0.00    +0.000 C 
ATOM     33  F   UNL     1       2.530   4.345  21.594  0.00  0.00    +0.000 F 
ATOM     34  F   UNL     1       1.180   2.815  20.852  0.00  0.00    +0.000 F 
ATOM     35  F   UNL     1       2.935   2.240  22.005  0.00  0.00    +0.000 F 
ENDBRANCH  31  32
BRANCH  31  36
ATOM     36  O   UNL     1       4.419   2.093  19.812  0.00  0.00    +0.000 OA
ATOM     37  H   UNL     1       4.347   1.462  19.072  0.00  0.00    +0.000 HD
ENDBRANCH  31  36
ENDBRANCH   5  31
TORSDOF 9
ENDMDL
MODEL 2
REMARK VINA RESULT:      -8.3      0.310      1.243
REMARK  Name = 
REMARK  13 active torsions:
REMARK  status: ('A' for Active; 'I' for Inactive)
REMARK    1  A    between atoms: C_1  and  C_2
REMARK    2  A    between atoms: C_2  and  C_3
REMARK    3  A    between atoms: C_3  and  C_4
REMARK    4  A    between atoms: C_3  and  C_5
REMARK    5  A    between atoms: C_3  and  C_6
REMARK    6  A    between atoms: C_8  and  N_9
REMARK    7  A    between atoms: N_12  and  C_13
REMARK    8  A    between atoms: C_21  and  O_22
REMARK    9  A    between atoms: C_23  and  O_24
REMARK   10  A    between atoms: O_24  and  C_25
REMARK   11  A    between atoms: C_26  and  C_27
REMARK   12  A    between atoms: C_27  and  O_28
REMARK   13  A    between atoms: C_27  and  C_29
REMARK                            x       y       z     vdW  Elec       q    Type
REMARK                         _______ _______ _______ _____ _____    ______ ____
ROOT
ATOM      1  C   UNL     1       5.615   5.648  18.210  0.00  0.00    +0.000 A 
ATOM      2  C   UNL     1       4.697   6.683  17.938  0.00  0.00    +0.000 A 
ATOM      3  C   UNL     1       3.314   6.543  18.163  0.00  0.00    +0.000 A 
ATOM      4  C   UNL     1       2.822   5.277  18.565  0.00  0.00    +0.000 A 
ATOM      5  C   UNL     1       3.714   4.264  18.959  0.00  0.00    +0.000 A 
ATOM      6  C   UNL     1       5.097   4.467  18.757  0.00  0.00    +0.000 A 
ENDROOT
BRANCH   3   7
ATOM      7  N   UNL     1       2.489   7.680  17.961  0.00  0.00    +0.000 N 
ATOM      8  C   UNL     1       1.922   8.370  19.032  0.00  0.00    +0.000 C 
ATOM      9  O   UNL     1       2.056   8.090  20.222  0.00  0.00    +0.000 OA
ATOM     10  N   UNL     1       1.196   9.462  18.603  0.00  0.00    +0.000 N 
ATOM     11  H   UNL     1       2.738   8.285  17.188  0.00  0.00    +0.000 HD
ATOM     12  H   UNL     1       0.787   9.360  17.685  0.00  0.00    +0.000 HD
BRANCH  10  13
ATOM     13  C   UNL     1       0.447  10.337  19.556  0.00  0.00    +0.000 C 
ATOM     14  C   UNL     1      -0.949   9.761  19.931  0.00  0.00    +0.000 C 
ATOM     15  C   UNL     1      -1.750  10.193  18.730  0.00  0.00    +0.000 A 
ATOM     16  C   UNL     1      -2.921   9.650  18.233  0.00  0.00    +0.000 A 
ATOM     17  C   UNL     1      -3.395  10.125  17.010  0.00  0.00    +0.000 A 
ATOM     18  C   UNL     1      -2.715  11.145  16.321  0.00  0.00    +0.000 A 
ATOM     19  C   UNL     1      -1.579  11.743  16.870  0.00  0.00    +0.000 A 
ATOM     20  C   UNL     1      -1.112  11.264  18.081  0.00  0.00    +0.000 A 
ATOM     21  C   UNL     1       0.082  11.698  18.890  0.00  0.00    +0.000 C 
BRANCH  21  22
ATOM     22  O   UNL     1       1.128  12.253  18.119  0.00  0.00    +0.000 OA
ATOM     23  H   UNL     1       0.870  12.164  17.190  0.00  0.00    +0.000 HD
ENDBRANCH  21  22
ENDBRANCH  10  13
ENDBRANCH   3   7
BRANCH   1  24
ATOM     24  C   UNL     1       7.133   5.782  17.952  0.00  0.00    +0.000 C 
ATOM     25  C   UNL     1       7.723   4.554  17.223  0.00  0.00    +0.000 C 
ATOM     26  C   UNL     1       7.865   5.891  19.316  0.00  0.00    +0.000 C 
BRANCH  24  28
ATOM     27  C   UNL     1       8.039   8.237  17.959  0.00  0.00    +0.000 C 
ATOM     28  C   UNL     1       7.487   7.072  17.147  0.00  0.00    +0.000 C 
ENDBRANCH  24  28
ENDBRANCH   1  24
BRANCH   4  29
ATOM     29  O   UNL     1       1.482   4.958  18.513  0.00  0.00    +0.000 OA
ATOM     30  C   UNL     1       1.151   4.098  17.410  0.00  0.00    +0.000 C 
ENDBRANCH   4  29
BRANCH   5  31
ATOM     31  C   UNL     1       3.299   2.978  19.669  0.00  0.00    +0.000 C 
BRANCH  31  32
ATOM     32  C   UNL     1       2.518   3.100  21.001  0.00  0.00    +0.000 C 
ATOM     33  F   UNL     1       2.984   2.295  21.982  0.00  0.00    +0.000 F 
ATOM     34  F   UNL     1       2.607   4.374  21.477  0.00  0.00    +0.000 F 
ATOM     35  F   UNL     1       1.196   2.838  20.852  0.00  0.00    +0.000 F 
ENDBRANCH  31  32
BRANCH  31  36
ATOM     36  O   UNL     1       4.438   2.097  19.743  0.00  0.00    +0.000 OA
ATOM     37  H   UNL     1       5.208   2.593  19.407  0.00  0.00    +0.000 HD
ENDBRANCH  31  36
ENDBRANCH   5  31
TORSDOF 9
ENDMDL
MODEL 3
REMARK VINA RESULT:      -8.1      1.148      1.717
REMARK  Name = 
REMARK  13 active torsions:
REMARK  status: ('A' for Active; 'I' for Inactive)
REMARK    1  A    between atoms: C_1  and  C_2
REMARK    2  A    between atoms: C_2  and  C_3
REMARK    3  A    between atoms: C_3  and  C_4
REMARK    4  A    between atoms: C_3  and  C_5
REMARK    5  A    between atoms: C_3  and  C_6
REMARK    6  A    between atoms: C_8  and  N_9
REMARK    7  A    between atoms: N_12  and  C_13
REMARK    8  A    between atoms: C_21  and  O_22
REMARK    9  A    between atoms: C_23  and  O_24
REMARK   10  A    between atoms: O_24  and  C_25
REMARK   11  A    between atoms: C_26  and  C_27
REMARK   12  A    between atoms: C_27  and  O_28
REMARK   13  A    between atoms: C_27  and  C_29
REMARK                            x       y       z     vdW  Elec       q    Type
REMARK                         _______ _______ _______ _____ _____    ______ ____
ROOT
ATOM      1  C   UNL     1       5.657   5.681  18.148  0.00  0.00    +0.000 A 
ATOM      2  C   UNL     1       4.727   6.708  17.887  0.00  0.00    +0.000 A 
ATOM      3  C   UNL     1       3.352   6.566  18.150  0.00  0.00    +0.000 A 
ATOM      4  C   UNL     1       2.876   5.303  18.582  0.00  0.00    +0.000 A 
ATOM      5  C   UNL     1       3.783   4.299  18.965  0.00  0.00    +0.000 A 
ATOM      6  C   UNL     1       5.160   4.505  18.724  0.00  0.00    +0.000 A 
ENDROOT
BRANCH   3   7
ATOM      7  N   UNL     1       2.515   7.695  17.955  0.00  0.00    +0.000 N 
ATOM      8  C   UNL     1       1.942   8.373  19.031  0.00  0.00    +0.000 C 
ATOM      9  O   UNL     1       2.079   8.087  20.218  0.00  0.00    +0.000 OA
ATOM     10  N   UNL     1       1.206   9.461  18.609  0.00  0.00    +0.000 N 
ATOM     11  H   UNL     1       2.759   8.307  17.186  0.00  0.00    +0.000 HD
ATOM     12  H   UNL     1       0.798   9.362  17.690  0.00  0.00    +0.000 HD
BRANCH  10  13
ATOM     13  C   UNL     1       0.448  10.324  19.567  0.00  0.00    +0.000 C 
ATOM     14  C   UNL     1      -0.938   9.727  19.945  0.00  0.00    +0.000 C 
ATOM     15  C   UNL     1      -1.749  10.153  18.748  0.00  0.00    +0.000 A 
ATOM     16  C   UNL     1      -2.914   9.595  18.253  0.00  0.00    +0.000 A 
ATOM     17  C   UNL     1      -3.399  10.069  17.033  0.00  0.00    +0.000 A 
ATOM     18  C   UNL     1      -2.735  11.100  16.345  0.00  0.00    +0.000 A 
ATOM     19  C   UNL     1      -1.606  11.711  16.893  0.00  0.00    +0.000 A 
ATOM     20  C   UNL     1      -1.127  11.234  18.100  0.00  0.00    +0.000 A 
ATOM     21  C   UNL     1       0.064  11.681  18.907  0.00  0.00    +0.000 C 
BRANCH  21  22
ATOM     22  O   UNL     1       1.100  12.253  18.134  0.00  0.00    +0.000 OA
ATOM     23  H   UNL     1       1.931  12.058  18.591  0.00  0.00    +0.000 HD
ENDBRANCH  21  22
ENDBRANCH  10  13
ENDBRANCH   3   7
BRANCH   1  24
ATOM     24  C   UNL     1       7.167   5.819  17.847  0.00  0.00    +0.000 C 
ATOM     25  C   UNL     1       7.739   4.591  17.104  0.00  0.00    +0.000 C 
ATOM     26  C   UNL     1       7.936   5.932  19.190  0.00  0.00    +0.000 C 
BRANCH  24  28
ATOM     27  C   UNL     1       8.008   8.297  17.835  0.00  0.00    +0.000 C 
ATOM     28  C   UNL     1       7.495   7.109  17.031  0.00  0.00    +0.000 C 
ENDBRANCH  24  28
ENDBRANCH   1  24
BRANCH   4  29
ATOM     29  O   UNL     1       1.537   4.976  18.570  0.00  0.00    +0.000 OA
ATOM     30  C   UNL     1       1.102   4.427  17.315  0.00  0.00    +0.000 C 
ENDBRANCH   4  29
BRANCH   5  31
ATOM     31  C   UNL     1       3.394   3.021  19.703  0.00  0.00    +0.000 C 
BRANCH  31  32
ATOM     32  C   UNL     1       3.054   1.766  18.860  0.00  0.00    +0.000 C 
ATOM     33  F   UNL     1       3.904   0.734  19.053  0.00  0.00    +0.000 F 
ATOM     34  F   UNL     1       1.814   1.307  19.189  0.00  0.00    +0.000 F 
ATOM     35  F   UNL     1       3.026   2.029  17.531  0.00  0.00    +0.000 F 
ENDBRANCH  31  32
BRANCH  31  36
ATOM     36  O   UNL     1       2.396   3.340  20.696  0.00  0.00    +0.000 OA
ATOM     37  H   UNL     1       2.364   4.312  20.768  0.00  0.00    +0.000 HD
ENDBRANCH  31  36
ENDBRANCH   5  31
TORSDOF 9
ENDMDL
MODEL 4
REMARK VINA RESULT:      -8.1      1.121      1.358
REMARK  Name = 
REMARK  13 active torsions:
REMARK  status: ('A' for Active; 'I' for Inactive)
REMARK    1  A    between atoms: C_1  and  C_2
REMARK    2  A    between atoms: C_2  and  C_3
REMARK    3  A    between atoms: C_3  and  C_4
REMARK    4  A    between atoms: C_3  and  C_5
REMARK    5  A    between atoms: C_3  and  C_6
REMARK    6  A    between atoms: C_8  and  N_9
REMARK    7  A    between atoms: N_12  and  C_13
REMARK    8  A    between atoms: C_21  and  O_22
REMARK    9  A    between atoms: C_23  and  O_24
REMARK   10  A    between atoms: O_24  and  C_25
REMARK   11  A    between atoms: C_26  and  C_27
REMARK   12  A    between atoms: C_27  and  O_28
REMARK   13  A    between atoms: C_27  and  C_29
REMARK                            x       y       z     vdW  Elec       q    Type
REMARK                         _______ _______ _______ _____ _____    ______ ____
ROOT
ATOM      1  C   UNL     1       5.635   5.691  18.190  0.00  0.00    +0.000 A 
ATOM      2  C   UNL     1       4.715   6.725  17.918  0.00  0.00    +0.000 A 
ATOM      3  C   UNL     1       3.336   6.593  18.165  0.00  0.00    +0.000 A 
ATOM      4  C   UNL     1       2.846   5.333  18.589  0.00  0.00    +0.000 A 
ATOM      5  C   UNL     1       3.741   4.322  18.982  0.00  0.00    +0.000 A 
ATOM      6  C   UNL     1       5.122   4.518  18.758  0.00  0.00    +0.000 A 
ENDROOT
BRANCH   3   7
ATOM      7  N   UNL     1       2.511   7.729  17.960  0.00  0.00    +0.000 N 
ATOM      8  C   UNL     1       1.921   8.404  19.029  0.00  0.00    +0.000 C 
ATOM      9  O   UNL     1       2.033   8.109  20.217  0.00  0.00    +0.000 OA
ATOM     10  N   UNL     1       1.200   9.499  18.599  0.00  0.00    +0.000 N 
ATOM     11  H   UNL     1       2.773   8.344  17.200  0.00  0.00    +0.000 HD
ATOM     12  H   UNL     1       0.809   9.407  17.672  0.00  0.00    +0.000 HD
BRANCH  10  13
ATOM     13  C   UNL     1       0.429  10.360  19.548  0.00  0.00    +0.000 C 
ATOM     14  C   UNL     1      -0.960   9.760  19.912  0.00  0.00    +0.000 C 
ATOM     15  C   UNL     1      -1.758  10.182  18.705  0.00  0.00    +0.000 A 
ATOM     16  C   UNL     1      -2.916   9.620  18.198  0.00  0.00    +0.000 A 
ATOM     17  C   UNL     1      -3.389  10.091  16.972  0.00  0.00    +0.000 A 
ATOM     18  C   UNL     1      -2.721  11.123  16.290  0.00  0.00    +0.000 A 
ATOM     19  C   UNL     1      -1.599  11.738  16.849  0.00  0.00    +0.000 A 
ATOM     20  C   UNL     1      -1.133  11.264  18.063  0.00  0.00    +0.000 A 
ATOM     21  C   UNL     1       0.048  11.716  18.882  0.00  0.00    +0.000 C 
BRANCH  21  22
ATOM     22  O   UNL     1       1.091  12.289  18.120  0.00  0.00    +0.000 OA
ATOM     23  H   UNL     1       1.760  11.600  17.995  0.00  0.00    +0.000 HD
ENDBRANCH  21  22
ENDBRANCH  10  13
ENDBRANCH   3   7
BRANCH   1  24
ATOM     24  C   UNL     1       7.149   5.818  17.908  0.00  0.00    +0.000 C 
ATOM     25  C   UNL     1       8.001   5.755  19.196  0.00  0.00    +0.000 C 
ATOM     26  C   UNL     1       7.423   7.199  17.254  0.00  0.00    +0.000 C 
BRANCH  24  28
ATOM     27  C   UNL     1       6.978   4.714  15.541  0.00  0.00    +0.000 C 
ATOM     28  C   UNL     1       7.660   4.736  16.904  0.00  0.00    +0.000 C 
ENDBRANCH  24  28
ENDBRANCH   1  24
BRANCH   4  29
ATOM     29  O   UNL     1       1.505   5.016  18.560  0.00  0.00    +0.000 OA
ATOM     30  C   UNL     1       1.091   4.433  17.314  0.00  0.00    +0.000 C 
ENDBRANCH   4  29
BRANCH   5  31
ATOM     31  C   UNL     1       3.333   3.046  19.714  0.00  0.00    +0.000 C 
BRANCH  31  32
ATOM     32  C   UNL     1       3.000   1.793  18.866  0.00  0.00    +0.000 C 
ATOM     33  F   UNL     1       2.964   2.029  17.536  0.00  0.00    +0.000 F 
ATOM     34  F   UNL     1       3.950   0.836  19.059  0.00  0.00    +0.000 F 
ATOM     35  F   UNL     1       1.815   1.234  19.214  0.00  0.00    +0.000 F 
ENDBRANCH  31  32
BRANCH  31  36
ATOM     36  O   UNL     1       2.322   3.371  20.691  0.00  0.00    +0.000 OA
ATOM     37  H   UNL     1       1.468   3.065  20.333  0.00  0.00    +0.000 HD
ENDBRANCH  31  36
ENDBRANCH   5  31
TORSDOF 9
ENDMDL
MODEL 5
REMARK VINA RESULT:      -8.0      1.478      2.565
REMARK  Name = 
REMARK  13 active torsions:
REMARK  status: ('A' for Active; 'I' for Inactive)
REMARK    1  A    between atoms: C_1  and  C_2
REMARK    2  A    between atoms: C_2  and  C_3
REMARK    3  A    between atoms: C_3  and  C_4
REMARK    4  A    between atoms: C_3  and  C_5
REMARK    5  A    between atoms: C_3  and  C_6
REMARK    6  A    between atoms: C_8  and  N_9
REMARK    7  A    between atoms: N_12  and  C_13
REMARK    8  A    between atoms: C_21  and  O_22
REMARK    9  A    between atoms: C_23  and  O_24
REMARK   10  A    between atoms: O_24  and  C_25
REMARK   11  A    between atoms: C_26  and  C_27
REMARK   12  A    between atoms: C_27  and  O_28
REMARK   13  A    between atoms: C_27  and  C_29
REMARK                            x       y       z     vdW  Elec       q    Type
REMARK                         _______ _______ _______ _____ _____    ______ ____
ROOT
ATOM      1  C   UNL     1       5.685   5.595  18.424  0.00  0.00    +0.000 A 
ATOM      2  C   UNL     1       4.735   6.625  18.273  0.00  0.00    +0.000 A 
ATOM      3  C   UNL     1       3.369   6.441  18.561  0.00  0.00    +0.000 A 
ATOM      4  C   UNL     1       2.922   5.139  18.899  0.00  0.00    +0.000 A 
ATOM      5  C   UNL     1       3.853   4.121  19.175  0.00  0.00    +0.000 A 
ATOM      6  C   UNL     1       5.219   4.368  18.915  0.00  0.00    +0.000 A 
ENDROOT
BRANCH   3   7
ATOM      7  N   UNL     1       2.513   7.570  18.481  0.00  0.00    +0.000 N 
ATOM      8  C   UNL     1       1.696   7.942  19.548  0.00  0.00    +0.000 C 
ATOM      9  O   UNL     1       1.616   7.364  20.630  0.00  0.00    +0.000 OA
ATOM     10  N   UNL     1       0.985   9.090  19.265  0.00  0.00    +0.000 N 
ATOM     11  H   UNL     1       2.862   8.361  17.955  0.00  0.00    +0.000 HD
ATOM     12  H   UNL     1       0.773   9.222  18.286  0.00  0.00    +0.000 HD
BRANCH  10  13
ATOM     13  C   UNL     1      -0.002   9.667  20.227  0.00  0.00    +0.000 C 
ATOM     14  C   UNL     1      -1.013  10.633  19.545  0.00  0.00    +0.000 C 
ATOM     15  C   UNL     1      -0.181  11.887  19.475  0.00  0.00    +0.000 A 
ATOM     16  C   UNL     1      -0.314  12.965  18.617  0.00  0.00    +0.000 A 
ATOM     17  C   UNL     1       0.679  13.945  18.639  0.00  0.00    +0.000 A 
ATOM     18  C   UNL     1       1.765  13.851  19.527  0.00  0.00    +0.000 A 
ATOM     19  C   UNL     1       1.848  12.802  20.444  0.00  0.00    +0.000 A 
ATOM     20  C   UNL     1       0.863  11.830  20.414  0.00  0.00    +0.000 A 
ATOM     21  C   UNL     1       0.706  10.594  21.260  0.00  0.00    +0.000 C 
BRANCH  21  22
ATOM     22  O   UNL     1       1.925  10.074  21.750  0.00  0.00    +0.000 OA
ATOM     23  H   UNL     1       2.618  10.355  21.135  0.00  0.00    +0.000 HD
ENDBRANCH  21  22
ENDBRANCH  10  13
ENDBRANCH   3   7
BRANCH   1  24
ATOM     24  C   UNL     1       7.184   5.779  18.096  0.00  0.00    +0.000 C 
ATOM     25  C   UNL     1       7.780   4.572  17.338  0.00  0.00    +0.000 C 
ATOM     26  C   UNL     1       7.975   5.911  19.425  0.00  0.00    +0.000 C 
BRANCH  24  28
ATOM     27  C   UNL     1       8.121   8.222  18.041  0.00  0.00    +0.000 C 
ATOM     28  C   UNL     1       7.457   7.081  17.279  0.00  0.00    +0.000 C 
ENDBRANCH  24  28
ENDBRANCH   1  24
BRANCH   4  29
ATOM     29  O   UNL     1       1.588   4.795  18.896  0.00  0.00    +0.000 OA
ATOM     30  C   UNL     1       1.162   4.201  17.658  0.00  0.00    +0.000 C 
ENDBRANCH   4  29
BRANCH   5  31
ATOM     31  C   UNL     1       3.500   2.781  19.815  0.00  0.00    +0.000 C 
BRANCH  31  32
ATOM     32  C   UNL     1       2.638   2.792  21.102  0.00  0.00    +0.000 C 
ATOM     33  F   UNL     1       1.368   2.373  20.912  0.00  0.00    +0.000 F 
ATOM     34  F   UNL     1       3.181   1.956  22.031  0.00  0.00    +0.000 F 
ATOM     35  F   UNL     1       2.582   4.019  21.676  0.00  0.00    +0.000 F 
ENDBRANCH  31  32
BRANCH  31  36
ATOM     36  O   UNL     1       4.699   1.987  19.926  0.00  0.00    +0.000 OA
ATOM     37  H   UNL     1       4.539   1.156  19.440  0.00  0.00    +0.000 HD
ENDBRANCH  31  36
ENDBRANCH   5  31
TORSDOF 9
ENDMDL
MODEL 6
REMARK VINA RESULT:      -7.9      1.443      2.340
REMARK  Name = 
REMARK  13 active torsions:
REMARK  status: ('A' for Active; 'I' for Inactive)
REMARK    1  A    between atoms: C_1  and  C_2
REMARK    2  A    between atoms: C_2  and  C_3
REMARK    3  A    between atoms: C_3  and  C_4
REMARK    4  A    between atoms: C_3  and  C_5
REMARK    5  A    between atoms: C_3  and  C_6
REMARK    6  A    between atoms: C_8  and  N_9
REMARK    7  A    between atoms: N_12  and  C_13
REMARK    8  A    between atoms: C_21  and  O_22
REMARK    9  A    between atoms: C_23  and  O_24
REMARK   10  A    between atoms: O_24  and  C_25
REMARK   11  A    between atoms: C_26  and  C_27
REMARK   12  A    between atoms: C_27  and  O_28
REMARK   13  A    between atoms: C_27  and  C_29
REMARK                            x       y       z     vdW  Elec       q    Type
REMARK                         _______ _______ _______ _____ _____    ______ ____
ROOT
ATOM      1  C   UNL     1       5.685   5.573  18.490  0.00  0.00    +0.000 A 
ATOM      2  C   UNL     1       4.744   6.609  18.327  0.00  0.00    +0.000 A 
ATOM      3  C   UNL     1       3.373   6.432  18.593  0.00  0.00    +0.000 A 
ATOM      4  C   UNL     1       2.913   5.133  18.920  0.00  0.00    +0.000 A 
ATOM      5  C   UNL     1       3.832   4.108  19.207  0.00  0.00    +0.000 A 
ATOM      6  C   UNL     1       5.204   4.347  18.969  0.00  0.00    +0.000 A 
ENDROOT
BRANCH   3   7
ATOM      7  N   UNL     1       2.525   7.567  18.504  0.00  0.00    +0.000 N 
ATOM      8  C   UNL     1       1.699   7.945  19.561  0.00  0.00    +0.000 C 
ATOM      9  O   UNL     1       1.604   7.369  20.643  0.00  0.00    +0.000 OA
ATOM     10  N   UNL     1       0.999   9.097  19.270  0.00  0.00    +0.000 N 
ATOM     11  H   UNL     1       2.884   8.356  17.980  0.00  0.00    +0.000 HD
ATOM     12  H   UNL     1       0.797   9.230  18.289  0.00  0.00    +0.000 HD
BRANCH  10  13
ATOM     13  C   UNL     1       0.005   9.682  20.222  0.00  0.00    +0.000 C 
ATOM     14  C   UNL     1      -0.997  10.648  19.526  0.00  0.00    +0.000 C 
ATOM     15  C   UNL     1      -0.160  11.900  19.458  0.00  0.00    +0.000 A 
ATOM     16  C   UNL     1      -0.283  12.973  18.595  0.00  0.00    +0.000 A 
ATOM     17  C   UNL     1       0.713  13.951  18.621  0.00  0.00    +0.000 A 
ATOM     18  C   UNL     1       1.791  13.857  19.518  0.00  0.00    +0.000 A 
ATOM     19  C   UNL     1       1.863  12.812  20.441  0.00  0.00    +0.000 A 
ATOM     20  C   UNL     1       0.875  11.843  20.406  0.00  0.00    +0.000 A 
ATOM     21  C   UNL     1       0.707  10.611  21.257  0.00  0.00    +0.000 C 
BRANCH  21  22
ATOM     22  O   UNL     1       1.920  10.089  21.759  0.00  0.00    +0.000 OA
ATOM     23  H   UNL     1       1.972   9.167  21.467  0.00  0.00    +0.000 HD
ENDBRANCH  21  22
ENDBRANCH  10  13
ENDBRANCH   3   7
BRANCH   1  24
ATOM     24  C   UNL     1       7.190   5.749  18.186  0.00  0.00    +0.000 C 
ATOM     25  C   UNL     1       8.059   5.746  19.465  0.00  0.00    +0.000 C 
ATOM     26  C   UNL     1       7.404   7.124  17.500  0.00  0.00    +0.000 C 
BRANCH  24  28
ATOM     27  C   UNL     1       7.072   4.626  15.826  0.00  0.00    +0.000 C 
ATOM     28  C   UNL     1       7.728   4.665  17.200  0.00  0.00    +0.000 C 
ENDBRANCH  24  28
ENDBRANCH   1  24
BRANCH   4  29
ATOM     29  O   UNL     1       1.577   4.796  18.895  0.00  0.00    +0.000 OA
ATOM     30  C   UNL     1       1.173   4.182  17.659  0.00  0.00    +0.000 C 
ENDBRANCH   4  29
BRANCH   5  31
ATOM     31  C   UNL     1       3.461   2.768  19.837  0.00  0.00    +0.000 C 
BRANCH  31  32
ATOM     32  C   UNL     1       2.597   2.781  21.123  0.00  0.00    +0.000 C 
ATOM     33  F   UNL     1       1.318   2.393  20.924  0.00  0.00    +0.000 F 
ATOM     34  F   UNL     1       3.119   1.921  22.041  0.00  0.00    +0.000 F 
ATOM     35  F   UNL     1       2.567   4.001  21.713  0.00  0.00    +0.000 F 
ENDBRANCH  31  32
BRANCH  31  36
ATOM     36  O   UNL     1       4.650   1.958  19.945  0.00  0.00    +0.000 OA
ATOM     37  H   UNL     1       5.288   2.295  19.288  0.00  0.00    +0.000 HD
ENDBRANCH  31  36
ENDBRANCH   5  31
TORSDOF 9
ENDMDL
MODEL 7
REMARK VINA RESULT:      -7.9      2.895      4.444
REMARK  Name = 
REMARK  13 active torsions:
REMARK  status: ('A' for Active; 'I' for Inactive)
REMARK    1  A    between atoms: C_1  and  C_2
REMARK    2  A    between atoms: C_2  and  C_3
REMARK    3  A    between atoms: C_3  and  C_4
REMARK    4  A    between atoms: C_3  and  C_5
REMARK    5  A    between atoms: C_3  and  C_6
REMARK    6  A    between atoms: C_8  and  N_9
REMARK    7  A    between atoms: N_12  and  C_13
REMARK    8  A    between atoms: C_21  and  O_22
REMARK    9  A    between atoms: C_23  and  O_24
REMARK   10  A    between atoms: O_24  and  C_25
REMARK   11  A    between atoms: C_26  and  C_27
REMARK   12  A    between atoms: C_27  and  O_28
REMARK   13  A    between atoms: C_27  and  C_29
REMARK                            x       y       z     vdW  Elec       q    Type
REMARK                         _______ _______ _______ _____ _____    ______ ____
ROOT
ATOM      1  C   UNL     1       3.382   4.206  18.209  0.00  0.00    +0.000 A 
ATOM      2  C   UNL     1       2.790   5.485  18.222  0.00  0.00    +0.000 A 
ATOM      3  C   UNL     1       3.410   6.610  17.647  0.00  0.00    +0.000 A 
ATOM      4  C   UNL     1       4.727   6.469  17.145  0.00  0.00    +0.000 A 
ATOM      5  C   UNL     1       5.299   5.192  17.008  0.00  0.00    +0.000 A 
ATOM      6  C   UNL     1       4.618   4.084  17.560  0.00  0.00    +0.000 A 
ENDROOT
BRANCH   3   7
ATOM      7  N   UNL     1       2.682   7.828  17.614  0.00  0.00    +0.000 N 
ATOM      8  C   UNL     1       2.127   8.377  18.769  0.00  0.00    +0.000 C 
ATOM      9  O   UNL     1       2.191   7.896  19.899  0.00  0.00    +0.000 OA
ATOM     10  N   UNL     1       1.505   9.581  18.509  0.00  0.00    +0.000 N 
ATOM     11  H   UNL     1       3.009   8.529  16.960  0.00  0.00    +0.000 HD
ATOM     12  H   UNL     1       1.127   9.666  17.576  0.00  0.00    +0.000 HD
BRANCH  10  13
ATOM     13  C   UNL     1       0.787  10.347  19.573  0.00  0.00    +0.000 C 
ATOM     14  C   UNL     1      -0.550   9.674  20.000  0.00  0.00    +0.000 C 
ATOM     15  C   UNL     1      -1.455  10.149  18.892  0.00  0.00    +0.000 A 
ATOM     16  C   UNL     1      -2.632   9.582  18.437  0.00  0.00    +0.000 A 
ATOM     17  C   UNL     1      -3.215  10.119  17.288  0.00  0.00    +0.000 A 
ATOM     18  C   UNL     1      -2.635  11.219  16.632  0.00  0.00    +0.000 A 
ATOM     19  C   UNL     1      -1.491  11.834  17.145  0.00  0.00    +0.000 A 
ATOM     20  C   UNL     1      -0.915  11.294  18.282  0.00  0.00    +0.000 A 
ATOM     21  C   UNL     1       0.313  11.731  19.038  0.00  0.00    +0.000 C 
BRANCH  21  22
ATOM     22  O   UNL     1       1.273  12.392  18.240  0.00  0.00    +0.000 OA
ATOM     23  H   UNL     1       1.709  13.045  18.808  0.00  0.00    +0.000 HD
ENDBRANCH  21  22
ENDBRANCH  10  13
ENDBRANCH   3   7
BRANCH   1  24
ATOM     24  C   UNL     1       2.720   2.966  18.852  0.00  0.00    +0.000 C 
ATOM     25  C   UNL     1       3.270   1.638  18.286  0.00  0.00    +0.000 C 
ATOM     26  C   UNL     1       1.199   2.993  18.540  0.00  0.00    +0.000 C 
BRANCH  24  28
ATOM     27  C   UNL     1       1.713   3.588  21.186  0.00  0.00    +0.000 C 
ATOM     28  C   UNL     1       2.860   2.956  20.407  0.00  0.00    +0.000 C 
ENDBRANCH  24  28
ENDBRANCH   1  24
BRANCH   4  29
ATOM     29  O   UNL     1       5.523   7.555  16.850  0.00  0.00    +0.000 OA
ATOM     30  C   UNL     1       6.764   7.557  17.575  0.00  0.00    +0.000 C 
ENDBRANCH   4  29
BRANCH   5  31
ATOM     31  C   UNL     1       6.579   4.900  16.229  0.00  0.00    +0.000 C 
BRANCH  31  32
ATOM     32  C   UNL     1       6.454   4.558  14.723  0.00  0.00    +0.000 C 
ATOM     33  F   UNL     1       5.382   5.119  14.123  0.00  0.00    +0.000 F 
ATOM     34  F   UNL     1       7.550   5.012  14.052  0.00  0.00    +0.000 F 
ATOM     35  F   UNL     1       6.394   3.222  14.500  0.00  0.00    +0.000 F 
ENDBRANCH  31  32
BRANCH  31  36
ATOM     36  O   UNL     1       7.374   3.955  16.974  0.00  0.00    +0.000 OA
ATOM     37  H   UNL     1       8.256   3.930  16.558  0.00  0.00    +0.000 HD
ENDBRANCH  31  36
ENDBRANCH   5  31
TORSDOF 9
ENDMDL
MODEL 8
REMARK VINA RESULT:      -7.8      1.837      2.636
REMARK  Name = 
REMARK  13 active torsions:
REMARK  status: ('A' for Active; 'I' for Inactive)
REMARK    1  A    between atoms: C_1  and  C_2
REMARK    2  A    between atoms: C_2  and  C_3
REMARK    3  A    between atoms: C_3  and  C_4
REMARK    4  A    between atoms: C_3  and  C_5
REMARK    5  A    between atoms: C_3  and  C_6
REMARK    6  A    between atoms: C_8  and  N_9
REMARK    7  A    between atoms: N_12  and  C_13
REMARK    8  A    between atoms: C_21  and  O_22
REMARK    9  A    between atoms: C_23  and  O_24
REMARK   10  A    between atoms: O_24  and  C_25
REMARK   11  A    between atoms: C_26  and  C_27
REMARK   12  A    between atoms: C_27  and  O_28
REMARK   13  A    between atoms: C_27  and  C_29
REMARK                            x       y       z     vdW  Elec       q    Type
REMARK                         _______ _______ _______ _____ _____    ______ ____
ROOT
ATOM      1  C   UNL     1       5.695   5.618  18.398  0.00  0.00    +0.000 A 
ATOM      2  C   UNL     1       4.757   6.662  18.270  0.00  0.00    +0.000 A 
ATOM      3  C   UNL     1       3.389   6.486  18.552  0.00  0.00    +0.000 A 
ATOM      4  C   UNL     1       2.928   5.182  18.859  0.00  0.00    +0.000 A 
ATOM      5  C   UNL     1       3.847   4.148  19.112  0.00  0.00    +0.000 A 
ATOM      6  C   UNL     1       5.216   4.385  18.859  0.00  0.00    +0.000 A 
ENDROOT
BRANCH   3   7
ATOM      7  N   UNL     1       2.545   7.626  18.498  0.00  0.00    +0.000 N 
ATOM      8  C   UNL     1       1.715   7.970  19.564  0.00  0.00    +0.000 C 
ATOM      9  O   UNL     1       1.612   7.356  20.624  0.00  0.00    +0.000 OA
ATOM     10  N   UNL     1       1.020   9.134  19.310  0.00  0.00    +0.000 N 
ATOM     11  H   UNL     1       2.910   8.432  18.005  0.00  0.00    +0.000 HD
ATOM     12  H   UNL     1       0.825   9.302  18.333  0.00  0.00    +0.000 HD
BRANCH  10  13
ATOM     13  C   UNL     1       0.023   9.688  20.276  0.00  0.00    +0.000 C 
ATOM     14  C   UNL     1      -1.007  10.639  19.599  0.00  0.00    +0.000 C 
ATOM     15  C   UNL     1      -0.197  11.908  19.535  0.00  0.00    +0.000 A 
ATOM     16  C   UNL     1      -0.351  12.987  18.683  0.00  0.00    +0.000 A 
ATOM     17  C   UNL     1       0.623  13.986  18.709  0.00  0.00    +0.000 A 
ATOM     18  C   UNL     1       1.711  13.907  19.595  0.00  0.00    +0.000 A 
ATOM     19  C   UNL     1       1.815  12.855  20.507  0.00  0.00    +0.000 A 
ATOM     20  C   UNL     1       0.848  11.866  20.473  0.00  0.00    +0.000 A 
ATOM     21  C   UNL     1       0.715  10.623  21.313  0.00  0.00    +0.000 C 
BRANCH  21  22
ATOM     22  O   UNL     1       1.944  10.123  21.800  0.00  0.00    +0.000 OA
ATOM     23  H   UNL     1       2.184   9.372  21.237  0.00  0.00    +0.000 HD
ENDBRANCH  21  22
ENDBRANCH  10  13
ENDBRANCH   3   7
BRANCH   1  24
ATOM     24  C   UNL     1       7.197   5.794  18.075  0.00  0.00    +0.000 C 
ATOM     25  C   UNL     1       8.083   5.771  19.341  0.00  0.00    +0.000 C 
ATOM     26  C   UNL     1       7.406   7.178  17.404  0.00  0.00    +0.000 C 
BRANCH  24  28
ATOM     27  C   UNL     1       7.055   4.716  15.695  0.00  0.00    +0.000 C 
ATOM     28  C   UNL     1       7.718   4.722  17.067  0.00  0.00    +0.000 C 
ENDBRANCH  24  28
ENDBRANCH   1  24
BRANCH   4  29
ATOM     29  O   UNL     1       1.590   4.853  18.847  0.00  0.00    +0.000 OA
ATOM     30  C   UNL     1       1.116   4.467  17.546  0.00  0.00    +0.000 C 
ENDBRANCH   4  29
BRANCH   5  31
ATOM     31  C   UNL     1       3.479   2.797  19.720  0.00  0.00    +0.000 C 
BRANCH  31  32
ATOM     32  C   UNL     1       3.058   1.655  18.761  0.00  0.00    +0.000 C 
ATOM     33  F   UNL     1       3.843   0.559  18.843  0.00  0.00    +0.000 F 
ATOM     34  F   UNL     1       1.793   1.244  19.056  0.00  0.00    +0.000 F 
ATOM     35  F   UNL     1       3.041   2.050  17.465  0.00  0.00    +0.000 F 
ENDBRANCH  31  32
BRANCH  31  36
ATOM     36  O   UNL     1       2.556   3.011  20.808  0.00  0.00    +0.000 OA
ATOM     37  H   UNL     1       1.694   3.242  20.412  0.00  0.00    +0.000 HD
ENDBRANCH  31  36
ENDBRANCH   5  31
TORSDOF 9
ENDMDL
MODEL 9
REMARK VINA RESULT:      -7.8      1.859      2.843
REMARK  Name = 
REMARK  13 active torsions:
REMARK  status: ('A' for Active; 'I' for Inactive)
REMARK    1  A    between atoms: C_1  and  C_2
REMARK    2  A    between atoms: C_2  and  C_3
REMARK    3  A    between atoms: C_3  and  C_4
REMARK    4  A    between atoms: C_3  and  C_5
REMARK    5  A    between atoms: C_3  and  C_6
REMARK    6  A    between atoms: C_8  and  N_9
REMARK    7  A    between atoms: N_12  and  C_13
REMARK    8  A    between atoms: C_21  and  O_22
REMARK    9  A    between atoms: C_23  and  O_24
REMARK   10  A    between atoms: O_24  and  C_25
REMARK   11  A    between atoms: C_26  and  C_27
REMARK   12  A    between atoms: C_27  and  O_28
REMARK   13  A    between atoms: C_27  and  C_29
REMARK                            x       y       z     vdW  Elec       q    Type
REMARK                         _______ _______ _______ _____ _____    ______ ____
ROOT
ATOM      1  C   UNL     1       5.706   5.675  18.326  0.00  0.00    +0.000 A 
ATOM      2  C   UNL     1       4.756   6.709  18.209  0.00  0.00    +0.000 A 
ATOM      3  C   UNL     1       3.394   6.521  18.511  0.00  0.00    +0.000 A 
ATOM      4  C   UNL     1       2.950   5.213  18.827  0.00  0.00    +0.000 A 
ATOM      5  C   UNL     1       3.882   4.188  19.068  0.00  0.00    +0.000 A 
ATOM      6  C   UNL     1       5.245   4.438  18.796  0.00  0.00    +0.000 A 
ENDROOT
BRANCH   3   7
ATOM      7  N   UNL     1       2.539   7.652  18.467  0.00  0.00    +0.000 N 
ATOM      8  C   UNL     1       1.715   7.986  19.541  0.00  0.00    +0.000 C 
ATOM      9  O   UNL     1       1.628   7.370  20.601  0.00  0.00    +0.000 OA
ATOM     10  N   UNL     1       1.006   9.144  19.295  0.00  0.00    +0.000 N 
ATOM     11  H   UNL     1       2.891   8.462  17.971  0.00  0.00    +0.000 HD
ATOM     12  H   UNL     1       0.800   9.311  18.320  0.00  0.00    +0.000 HD
BRANCH  10  13
ATOM     13  C   UNL     1       0.013   9.687  20.271  0.00  0.00    +0.000 C 
ATOM     14  C   UNL     1      -1.022  10.641  19.608  0.00  0.00    +0.000 C 
ATOM     15  C   UNL     1      -0.215  11.913  19.552  0.00  0.00    +0.000 A 
ATOM     16  C   UNL     1      -0.376  13.000  18.711  0.00  0.00    +0.000 A 
ATOM     17  C   UNL     1       0.596  14.000  18.742  0.00  0.00    +0.000 A 
ATOM     18  C   UNL     1       1.689  13.916  19.622  0.00  0.00    +0.000 A 
ATOM     19  C   UNL     1       1.800  12.855  20.523  0.00  0.00    +0.000 A 
ATOM     20  C   UNL     1       0.835  11.864  20.485  0.00  0.00    +0.000 A 
ATOM     21  C   UNL     1       0.708  10.613  21.314  0.00  0.00    +0.000 C 
BRANCH  21  22
ATOM     22  O   UNL     1       1.940  10.111  21.789  0.00  0.00    +0.000 OA
ATOM     23  H   UNL     1       1.962  10.277  22.743  0.00  0.00    +0.000 HD
ENDBRANCH  21  22
ENDBRANCH  10  13
ENDBRANCH   3   7
BRANCH   1  24
ATOM     24  C   UNL     1       7.201   5.865  17.983  0.00  0.00    +0.000 C 
ATOM     25  C   UNL     1       7.780   4.683  17.172  0.00  0.00    +0.000 C 
ATOM     26  C   UNL     1       8.012   5.944  19.304  0.00  0.00    +0.000 C 
BRANCH  24  28
ATOM     27  C   UNL     1       8.134   8.310  18.007  0.00  0.00    +0.000 C 
ATOM     28  C   UNL     1       7.469   7.194  17.209  0.00  0.00    +0.000 C 
ENDBRANCH  24  28
ENDBRANCH   1  24
BRANCH   4  29
ATOM     29  O   UNL     1       1.615   4.870  18.834  0.00  0.00    +0.000 OA
ATOM     30  C   UNL     1       1.123   4.493  17.537  0.00  0.00    +0.000 C 
ENDBRANCH   4  29
BRANCH   5  31
ATOM     31  C   UNL     1       3.536   2.835  19.684  0.00  0.00    +0.000 C 
BRANCH  31  32
ATOM     32  C   UNL     1       3.075   1.699  18.737  0.00  0.00    +0.000 C 
ATOM     33  F   UNL     1       3.049   2.052  17.434  0.00  0.00    +0.000 F 
ATOM     34  F   UNL     1       3.931   0.642  18.830  0.00  0.00    +0.000 F 
ATOM     35  F   UNL     1       1.846   1.226  19.057  0.00  0.00    +0.000 F 
ENDBRANCH  31  32
BRANCH  31  36
ATOM     36  O   UNL     1       2.656   3.045  20.809  0.00  0.00    +0.000 OA
ATOM     37  H   UNL     1       3.212   3.324  21.560  0.00  0.00    +0.000 HD
ENDBRANCH  31  36
ENDBRANCH   5  31
TORSDOF 9
ENDMDL
