MODEL 1
REMARK VINA RESULT:      -8.2      0.000      0.000
REMARK  Name = 
REMARK  10 active torsions:
REMARK  status: ('A' for Active; 'I' for Inactive)
REMARK    1  A    between atoms: C_1  and  C_2
REMARK    2  A    between atoms: C_4  and  C_5
REMARK    3  A    between atoms: C_6  and  C_7
REMARK    4  A    between atoms: C_9  and  C_10
REMARK    5  A    between atoms: C_10  and  C_11
REMARK    6  A    between atoms: C_10  and  O_12
REMARK    7  A    between atoms: C_14  and  C_15
REMARK    8  A    between atoms: C_17  and  C_18
REMARK    9  A    between atoms: C_22  and  C_24
REMARK   10  A    between atoms: C_27  and  C_28
REMARK                            x       y       z     vdW  Elec       q    Type
REMARK                         _______ _______ _______ _____ _____    ______ ____
ROOT
ATOM      1  C   UNL     1      -2.231  10.506  16.316  0.00  0.00    +0.000 C 
ATOM      2  C   UNL     1      -3.037  11.065  17.456  0.00  0.00    +0.000 A 
ATOM      3  C   UNL     1      -4.433  11.124  17.309  0.00  0.00    +0.000 A 
ATOM      4  C   UNL     1      -5.272  11.695  18.285  0.00  0.00    +0.000 A 
ATOM      5  C   UNL     1      -6.747  11.736  17.976  0.00  0.00    +0.000 C 
ATOM      6  C   UNL     1      -4.704  12.212  19.469  0.00  0.00    +0.000 A 
ATOM      7  C   UNL     1      -3.306  12.137  19.616  0.00  0.00    +0.000 A 
ATOM      8  C   UNL     1      -2.465  11.577  18.632  0.00  0.00    +0.000 A 
ENDROOT
BRANCH   6   9
ATOM      9  C   UNL     1      -5.501  12.875  20.518  0.00  0.00    +0.000 A 
ATOM     10  N   UNL     1      -5.634  12.390  21.801  0.00  0.00    +0.000 N 
ATOM     11  C   UNL     1      -6.575  13.127  22.470  0.00  0.00    +0.000 A 
ATOM     12  N   UNL     1      -6.914  14.175  21.755  0.00  0.00    +0.000 NA
ATOM     13  C   UNL     1      -6.249  14.049  20.553  0.00  0.00    +0.000 A 
ATOM     14  C   UNL     1      -6.463  15.085  19.514  0.00  0.00    +0.000 C 
ATOM     15  H   UNL     1      -5.200  11.567  22.189  0.00  0.00    +0.000 HD
BRANCH  11  16
ATOM     16  C   UNL     1      -7.066  12.730  23.824  0.00  0.00    +0.000 C 
ATOM     17  C   UNL     1      -7.902  13.815  24.486  0.00  0.00    +0.000 C 
BRANCH  16  18
ATOM     18  O   UNL     1      -7.860  11.549  23.661  0.00  0.00    +0.000 OA
ATOM     19  H   UNL     1      -8.605  11.621  24.283  0.00  0.00    +0.000 HD
ENDBRANCH  16  18
ENDBRANCH  11  16
ENDBRANCH   6   9
BRANCH   8  20
ATOM     20  C   UNL     1      -0.979  11.638  18.837  0.00  0.00    +0.000 C 
ATOM     21  O   UNL     1      -0.239  12.106  17.978  0.00  0.00    +0.000 OA
ATOM     22  N   UNL     1      -0.502  11.197  20.059  0.00  0.00    +0.000 N 
ATOM     23  C   UNL     1       0.897  11.224  20.484  0.00  0.00    +0.000 C 
ATOM     24  C   UNL     1       0.768   9.737  20.889  0.00  0.00    +0.000 C 
ATOM     25  F   UNL     1       1.090   9.504  22.194  0.00  0.00    +0.000 F 
ATOM     26  C   UNL     1      -0.755   9.878  20.644  0.00  0.00    +0.000 C 
BRANCH  24  27
ATOM     27  C   UNL     1       1.551   8.639  20.009  0.00  0.00    +0.000 A 
ATOM     28  C   UNL     1       1.894   8.891  18.662  0.00  0.00    +0.000 A 
ATOM     29  C   UNL     1       2.546   7.944  17.865  0.00  0.00    +0.000 A 
ATOM     30  C   UNL     1       2.882   6.701  18.395  0.00  0.00    +0.000 A 
ATOM     31  C   UNL     1       2.577   6.419  19.726  0.00  0.00    +0.000 A 
ATOM     32  C   UNL     1       1.929   7.376  20.516  0.00  0.00    +0.000 A 
BRANCH  30  33
ATOM     33  C   UNL     1       3.531   5.716  17.579  0.00  0.00    +0.000 C 
ATOM     34  N   UNL     1       4.056   4.918  16.922  0.00  0.00    +0.000 NA
ENDBRANCH  30  33
ENDBRANCH  24  27
ENDBRANCH   8  20
TORSDOF 6
ENDMDL
MODEL 2
REMARK VINA RESULT:      -8.0      2.857     10.385
REMARK  Name = 
REMARK  10 active torsions:
REMARK  status: ('A' for Active; 'I' for Inactive)
REMARK    1  A    between atoms: C_1  and  C_2
REMARK    2  A    between atoms: C_4  and  C_5
REMARK    3  A    between atoms: C_6  and  C_7
REMARK    4  A    between atoms: C_9  and  C_10
REMARK    5  A    between atoms: C_10  and  C_11
REMARK    6  A    between atoms: C_10  and  O_12
REMARK    7  A    between atoms: C_14  and  C_15
REMARK    8  A    between atoms: C_17  and  C_18
REMARK    9  A    between atoms: C_22  and  C_24
REMARK   10  A    between atoms: C_27  and  C_28
REMARK                            x       y       z     vdW  Elec       q    Type
REMARK                         _______ _______ _______ _____ _____    ______ ____
ROOT
ATOM      1  C   UNL     1      -0.191   8.994  22.049  0.00  0.00    +0.000 C 
ATOM      2  C   UNL     1       0.678   8.285  21.046  0.00  0.00    +0.000 A 
ATOM      3  C   UNL     1       1.055   6.960  21.321  0.00  0.00    +0.000 A 
ATOM      4  C   UNL     1       1.923   6.233  20.485  0.00  0.00    +0.000 A 
ATOM      5  C   UNL     1       2.282   4.835  20.926  0.00  0.00    +0.000 C 
ATOM      6  C   UNL     1       2.424   6.838  19.313  0.00  0.00    +0.000 A 
ATOM      7  C   UNL     1       2.032   8.161  19.036  0.00  0.00    +0.000 A 
ATOM      8  C   UNL     1       1.172   8.894  19.881  0.00  0.00    +0.000 A 
ENDROOT
BRANCH   6   9
ATOM      9  C   UNL     1       3.379   6.169  18.410  0.00  0.00    +0.000 A 
ATOM     10  N   UNL     1       4.680   6.583  18.226  0.00  0.00    +0.000 N 
ATOM     11  C   UNL     1       5.243   5.873  17.199  0.00  0.00    +0.000 A 
ATOM     12  N   UNL     1       4.443   4.895  16.842  0.00  0.00    +0.000 NA
ATOM     13  C   UNL     1       3.294   5.047  17.589  0.00  0.00    +0.000 A 
ATOM     14  C   UNL     1       2.180   4.092  17.378  0.00  0.00    +0.000 C 
ATOM     15  H   UNL     1       5.145   7.351  18.685  0.00  0.00    +0.000 HD
BRANCH  11  16
ATOM     16  C   UNL     1       6.588   6.220  16.649  0.00  0.00    +0.000 C 
ATOM     17  C   UNL     1       7.329   7.234  17.507  0.00  0.00    +0.000 C 
BRANCH  16  18
ATOM     18  O   UNL     1       7.347   5.007  16.582  0.00  0.00    +0.000 OA
ATOM     19  H   UNL     1       7.934   4.997  17.358  0.00  0.00    +0.000 HD
ENDBRANCH  16  18
ENDBRANCH  11  16
ENDBRANCH   6   9
BRANCH   8  20
ATOM     20  C   UNL     1       0.897  10.333  19.553  0.00  0.00    +0.000 C 
ATOM     21  O   UNL     1       1.564  11.235  20.047  0.00  0.00    +0.000 OA
ATOM     22  N   UNL     1      -0.102  10.578  18.626  0.00  0.00    +0.000 N 
ATOM     23  C   UNL     1      -0.489  11.896  18.124  0.00  0.00    +0.000 C 
ATOM     24  C   UNL     1      -1.962  11.548  18.443  0.00  0.00    +0.000 C 
ATOM     25  F   UNL     1      -2.786  11.652  17.361  0.00  0.00    +0.000 F 
ATOM     26  C   UNL     1      -1.484  10.100  18.719  0.00  0.00    +0.000 C 
BRANCH  24  27
ATOM     27  C   UNL     1      -2.681  12.324  19.657  0.00  0.00    +0.000 A 
ATOM     28  C   UNL     1      -1.933  12.841  20.739  0.00  0.00    +0.000 A 
ATOM     29  C   UNL     1      -2.533  13.491  21.822  0.00  0.00    +0.000 A 
ATOM     30  C   UNL     1      -3.917  13.650  21.859  0.00  0.00    +0.000 A 
ATOM     31  C   UNL     1      -4.689  13.170  20.801  0.00  0.00    +0.000 A 
ATOM     32  C   UNL     1      -4.077  12.525  19.720  0.00  0.00    +0.000 A 
BRANCH  30  33
ATOM     33  C   UNL     1      -4.543  14.296  22.975  0.00  0.00    +0.000 C 
ATOM     34  N   UNL     1      -5.047  14.822  23.877  0.00  0.00    +0.000 NA
ENDBRANCH  30  33
ENDBRANCH  24  27
ENDBRANCH   8  20
TORSDOF 6
ENDMDL
MODEL 3
REMARK VINA RESULT:      -8.0      3.786     11.308
REMARK  Name = 
REMARK  10 active torsions:
REMARK  status: ('A' for Active; 'I' for Inactive)
REMARK    1  A    between atoms: C_1  and  C_2
REMARK    2  A    between atoms: C_4  and  C_5
REMARK    3  A    between atoms: C_6  and  C_7
REMARK    4  A    between atoms: C_9  and  C_10
REMARK    5  A    between atoms: C_10  and  C_11
REMARK    6  A    between atoms: C_10  and  O_12
REMARK    7  A    between atoms: C_14  and  C_15
REMARK    8  A    between atoms: C_17  and  C_18
REMARK    9  A    between atoms: C_22  and  C_24
REMARK   10  A    between atoms: C_27  and  C_28
REMARK                            x       y       z     vdW  Elec       q    Type
REMARK                         _______ _______ _______ _____ _____    ______ ____
ROOT
ATOM      1  C   UNL     1       0.730   4.560  20.390  0.00  0.00    +0.000 C 
ATOM      2  C   UNL     1       1.866   4.776  19.428  0.00  0.00    +0.000 A 
ATOM      3  C   UNL     1       2.439   3.646  18.821  0.00  0.00    +0.000 A 
ATOM      4  C   UNL     1       3.551   3.733  17.962  0.00  0.00    +0.000 A 
ATOM      5  C   UNL     1       4.094   2.435  17.418  0.00  0.00    +0.000 C 
ATOM      6  C   UNL     1       4.108   4.997  17.676  0.00  0.00    +0.000 A 
ATOM      7  C   UNL     1       3.521   6.126  18.277  0.00  0.00    +0.000 A 
ATOM      8  C   UNL     1       2.414   6.038  19.148  0.00  0.00    +0.000 A 
ENDROOT
BRANCH   6   9
ATOM      9  C   UNL     1       5.304   5.175  16.832  0.00  0.00    +0.000 A 
ATOM     10  N   UNL     1       5.374   4.790  15.510  0.00  0.00    +0.000 N 
ATOM     11  C   UNL     1       6.663   4.922  15.066  0.00  0.00    +0.000 A 
ATOM     12  N   UNL     1       7.384   5.549  15.966  0.00  0.00    +0.000 NA
ATOM     13  C   UNL     1       6.561   5.732  17.058  0.00  0.00    +0.000 A 
ATOM     14  C   UNL     1       7.116   6.396  18.260  0.00  0.00    +0.000 C 
ATOM     15  H   UNL     1       4.639   4.378  14.957  0.00  0.00    +0.000 HD
BRANCH  11  16
ATOM     16  C   UNL     1       7.087   4.416  13.726  0.00  0.00    +0.000 C 
ATOM     17  C   UNL     1       5.930   3.835  12.926  0.00  0.00    +0.000 C 
BRANCH  16  18
ATOM     18  O   UNL     1       7.652   5.521  13.012  0.00  0.00    +0.000 OA
ATOM     19  H   UNL     1       6.909   6.063  12.694  0.00  0.00    +0.000 HD
ENDBRANCH  16  18
ENDBRANCH  11  16
ENDBRANCH   6   9
BRANCH   8  20
ATOM     20  C   UNL     1       1.926   7.289  19.819  0.00  0.00    +0.000 C 
ATOM     21  O   UNL     1       1.315   7.242  20.881  0.00  0.00    +0.000 OA
ATOM     22  N   UNL     1       2.252   8.489  19.209  0.00  0.00    +0.000 N 
ATOM     23  C   UNL     1       1.926   9.818  19.725  0.00  0.00    +0.000 C 
ATOM     24  C   UNL     1       1.348  10.178  18.336  0.00  0.00    +0.000 C 
ATOM     25  F   UNL     1       1.924  11.284  17.783  0.00  0.00    +0.000 F 
ATOM     26  C   UNL     1       1.949   8.846  17.821  0.00  0.00    +0.000 C 
BRANCH  24  27
ATOM     27  C   UNL     1      -0.246  10.361  18.201  0.00  0.00    +0.000 A 
ATOM     28  C   UNL     1      -0.944  11.300  18.992  0.00  0.00    +0.000 A 
ATOM     29  C   UNL     1      -2.332  11.458  18.918  0.00  0.00    +0.000 A 
ATOM     30  C   UNL     1      -3.076  10.675  18.039  0.00  0.00    +0.000 A 
ATOM     31  C   UNL     1      -2.422   9.748  17.228  0.00  0.00    +0.000 A 
ATOM     32  C   UNL     1      -1.032   9.602  17.306  0.00  0.00    +0.000 A 
BRANCH  30  33
ATOM     33  C   UNL     1      -4.501  10.814  17.972  0.00  0.00    +0.000 C 
ATOM     34  N   UNL     1      -5.654  10.931  17.921  0.00  0.00    +0.000 NA
ENDBRANCH  30  33
ENDBRANCH  24  27
ENDBRANCH   8  20
TORSDOF 6
ENDMDL
MODEL 4
REMARK VINA RESULT:      -7.7      1.659      2.155
REMARK  Name = 
REMARK  10 active torsions:
REMARK  status: ('A' for Active; 'I' for Inactive)
REMARK    1  A    between atoms: C_1  and  C_2
REMARK    2  A    between atoms: C_4  and  C_5
REMARK    3  A    between atoms: C_6  and  C_7
REMARK    4  A    between atoms: C_9  and  C_10
REMARK    5  A    between atoms: C_10  and  C_11
REMARK    6  A    between atoms: C_10  and  O_12
REMARK    7  A    between atoms: C_14  and  C_15
REMARK    8  A    between atoms: C_17  and  C_18
REMARK    9  A    between atoms: C_22  and  C_24
REMARK   10  A    between atoms: C_27  and  C_28
REMARK                            x       y       z     vdW  Elec       q    Type
REMARK                         _______ _______ _______ _____ _____    ______ ____
ROOT
ATOM      1  C   UNL     1      -1.980   9.938  16.880  0.00  0.00    +0.000 C 
ATOM      2  C   UNL     1      -2.827  10.791  17.785  0.00  0.00    +0.000 A 
ATOM      3  C   UNL     1      -4.197  10.902  17.493  0.00  0.00    +0.000 A 
ATOM      4  C   UNL     1      -5.062  11.731  18.233  0.00  0.00    +0.000 A 
ATOM      5  C   UNL     1      -6.499  11.791  17.779  0.00  0.00    +0.000 C 
ATOM      6  C   UNL     1      -4.551  12.467  19.323  0.00  0.00    +0.000 A 
ATOM      7  C   UNL     1      -3.181  12.340  19.619  0.00  0.00    +0.000 A 
ATOM      8  C   UNL     1      -2.312  11.520  18.869  0.00  0.00    +0.000 A 
ENDROOT
BRANCH   6   9
ATOM      9  C   UNL     1      -5.374  13.398  20.117  0.00  0.00    +0.000 A 
ATOM     10  N   UNL     1      -5.227  14.768  20.087  0.00  0.00    +0.000 N 
ATOM     11  C   UNL     1      -6.007  15.330  21.062  0.00  0.00    +0.000 A 
ATOM     12  N   UNL     1      -6.791  14.418  21.589  0.00  0.00    +0.000 NA
ATOM     13  C   UNL     1      -6.431  13.220  21.007  0.00  0.00    +0.000 A 
ATOM     14  C   UNL     1      -7.132  11.987  21.433  0.00  0.00    +0.000 C 
ATOM     15  H   UNL     1      -4.584  15.298  19.521  0.00  0.00    +0.000 HD
BRANCH  11  16
ATOM     16  C   UNL     1      -5.925  16.785  21.392  0.00  0.00    +0.000 C 
ATOM     17  C   UNL     1      -6.195  17.069  22.862  0.00  0.00    +0.000 C 
BRANCH  16  18
ATOM     18  O   UNL     1      -4.603  17.224  21.057  0.00  0.00    +0.000 OA
ATOM     19  H   UNL     1      -4.671  18.161  20.803  0.00  0.00    +0.000 HD
ENDBRANCH  16  18
ENDBRANCH  11  16
ENDBRANCH   6   9
BRANCH   8  20
ATOM     20  C   UNL     1      -0.847  11.533  19.200  0.00  0.00    +0.000 C 
ATOM     21  O   UNL     1      -0.049  12.163  18.515  0.00  0.00    +0.000 OA
ATOM     22  N   UNL     1      -0.462  10.851  20.341  0.00  0.00    +0.000 N 
ATOM     23  C   UNL     1       0.899  10.788  20.872  0.00  0.00    +0.000 C 
ATOM     24  C   UNL     1       0.758   9.249  20.956  0.00  0.00    +0.000 C 
ATOM     25  F   UNL     1       0.980   8.755  22.208  0.00  0.00    +0.000 F 
ATOM     26  C   UNL     1      -0.743   9.442  20.624  0.00  0.00    +0.000 C 
BRANCH  24  27
ATOM     27  C   UNL     1       1.622   8.350  19.937  0.00  0.00    +0.000 A 
ATOM     28  C   UNL     1       2.091   7.070  20.308  0.00  0.00    +0.000 A 
ATOM     29  C   UNL     1       2.869   6.281  19.455  0.00  0.00    +0.000 A 
ATOM     30  C   UNL     1       3.206   6.750  18.187  0.00  0.00    +0.000 A 
ATOM     31  C   UNL     1       2.748   8.001  17.777  0.00  0.00    +0.000 A 
ATOM     32  C   UNL     1       1.966   8.780  18.637  0.00  0.00    +0.000 A 
BRANCH  30  33
ATOM     33  C   UNL     1       4.022   5.957  17.315  0.00  0.00    +0.000 C 
ATOM     34  N   UNL     1       4.681   5.318  16.606  0.00  0.00    +0.000 NA
ENDBRANCH  30  33
ENDBRANCH  24  27
ENDBRANCH   8  20
TORSDOF 6
ENDMDL
MODEL 5
REMARK VINA RESULT:      -7.5      1.504      2.073
REMARK  Name = 
REMARK  10 active torsions:
REMARK  status: ('A' for Active; 'I' for Inactive)
REMARK    1  A    between atoms: C_1  and  C_2
REMARK    2  A    between atoms: C_4  and  C_5
REMARK    3  A    between atoms: C_6  and  C_7
REMARK    4  A    between atoms: C_9  and  C_10
REMARK    5  A    between atoms: C_10  and  C_11
REMARK    6  A    between atoms: C_10  and  O_12
REMARK    7  A    between atoms: C_14  and  C_15
REMARK    8  A    between atoms: C_17  and  C_18
REMARK    9  A    between atoms: C_22  and  C_24
REMARK   10  A    between atoms: C_27  and  C_28
REMARK                            x       y       z     vdW  Elec       q    Type
REMARK                         _______ _______ _______ _____ _____    ______ ____
ROOT
ATOM      1  C   UNL     1      -1.926   9.846  16.922  0.00  0.00    +0.000 C 
ATOM      2  C   UNL     1      -2.777  10.719  17.804  0.00  0.00    +0.000 A 
ATOM      3  C   UNL     1      -4.142  10.838  17.492  0.00  0.00    +0.000 A 
ATOM      4  C   UNL     1      -5.008  11.685  18.209  0.00  0.00    +0.000 A 
ATOM      5  C   UNL     1      -6.439  11.753  17.736  0.00  0.00    +0.000 C 
ATOM      6  C   UNL     1      -4.505  12.432  19.295  0.00  0.00    +0.000 A 
ATOM      7  C   UNL     1      -3.140  12.297  19.610  0.00  0.00    +0.000 A 
ATOM      8  C   UNL     1      -2.269  11.458  18.884  0.00  0.00    +0.000 A 
ENDROOT
BRANCH   6   9
ATOM      9  C   UNL     1      -5.329  13.381  20.066  0.00  0.00    +0.000 A 
ATOM     10  N   UNL     1      -5.192  14.751  19.992  0.00  0.00    +0.000 N 
ATOM     11  C   UNL     1      -5.970  15.338  20.954  0.00  0.00    +0.000 A 
ATOM     12  N   UNL     1      -6.744  14.437  21.515  0.00  0.00    +0.000 NA
ATOM     13  C   UNL     1      -6.378  13.224  20.968  0.00  0.00    +0.000 A 
ATOM     14  C   UNL     1      -7.068  12.000  21.437  0.00  0.00    +0.000 C 
ATOM     15  H   UNL     1      -4.557  15.268  19.405  0.00  0.00    +0.000 HD
BRANCH  11  16
ATOM     16  C   UNL     1      -5.896  16.803  21.238  0.00  0.00    +0.000 C 
ATOM     17  C   UNL     1      -5.584  17.625  19.996  0.00  0.00    +0.000 C 
BRANCH  16  18
ATOM     18  O   UNL     1      -7.167  17.200  21.766  0.00  0.00    +0.000 OA
ATOM     19  H   UNL     1      -7.376  16.586  22.492  0.00  0.00    +0.000 HD
ENDBRANCH  16  18
ENDBRANCH  11  16
ENDBRANCH   6   9
BRANCH   8  20
ATOM     20  C   UNL     1      -0.808  11.463  19.233  0.00  0.00    +0.000 C 
ATOM     21  O   UNL     1       0.008  12.054  18.535  0.00  0.00    +0.000 OA
ATOM     22  N   UNL     1      -0.448  10.820  20.405  0.00  0.00    +0.000 N 
ATOM     23  C   UNL     1       0.905  10.757  20.956  0.00  0.00    +0.000 C 
ATOM     24  C   UNL     1       0.740   9.225  21.097  0.00  0.00    +0.000 C 
ATOM     25  F   UNL     1       0.938   8.777  22.370  0.00  0.00    +0.000 F 
ATOM     26  C   UNL     1      -0.754   9.427  20.738  0.00  0.00    +0.000 C 
BRANCH  24  27
ATOM     27  C   UNL     1       1.603   8.275  20.124  0.00  0.00    +0.000 A 
ATOM     28  C   UNL     1       1.959   8.692  18.822  0.00  0.00    +0.000 A 
ATOM     29  C   UNL     1       2.680   7.876  17.945  0.00  0.00    +0.000 A 
ATOM     30  C   UNL     1       3.076   6.602  18.346  0.00  0.00    +0.000 A 
ATOM     31  C   UNL     1       2.760   6.160  19.630  0.00  0.00    +0.000 A 
ATOM     32  C   UNL     1       2.042   6.987  20.501  0.00  0.00    +0.000 A 
BRANCH  30  33
ATOM     33  C   UNL     1       3.797   5.750  17.446  0.00  0.00    +0.000 C 
ATOM     34  N   UNL     1       4.377   5.059  16.717  0.00  0.00    +0.000 NA
ENDBRANCH  30  33
ENDBRANCH  24  27
ENDBRANCH   8  20
TORSDOF 6
ENDMDL
MODEL 6
REMARK VINA RESULT:      -7.3      1.401      1.464
REMARK  Name = 
REMARK  10 active torsions:
REMARK  status: ('A' for Active; 'I' for Inactive)
REMARK    1  A    between atoms: C_1  and  C_2
REMARK    2  A    between atoms: C_4  and  C_5
REMARK    3  A    between atoms: C_6  and  C_7
REMARK    4  A    between atoms: C_9  and  C_10
REMARK    5  A    between atoms: C_10  and  C_11
REMARK    6  A    between atoms: C_10  and  O_12
REMARK    7  A    between atoms: C_14  and  C_15
REMARK    8  A    between atoms: C_17  and  C_18
REMARK    9  A    between atoms: C_22  and  C_24
REMARK   10  A    between atoms: C_27  and  C_28
REMARK                            x       y       z     vdW  Elec       q    Type
REMARK                         _______ _______ _______ _____ _____    ______ ____
ROOT
ATOM      1  C   UNL     1      -1.911  10.083  17.112  0.00  0.00    +0.000 C 
ATOM      2  C   UNL     1      -2.479  10.945  18.207  0.00  0.00    +0.000 A 
ATOM      3  C   UNL     1      -3.836  11.302  18.126  0.00  0.00    +0.000 A 
ATOM      4  C   UNL     1      -4.446  12.162  19.059  0.00  0.00    +0.000 A 
ATOM      5  C   UNL     1      -5.897  12.500  18.824  0.00  0.00    +0.000 C 
ATOM      6  C   UNL     1      -3.685  12.675  20.130  0.00  0.00    +0.000 A 
ATOM      7  C   UNL     1      -2.330  12.302  20.212  0.00  0.00    +0.000 A 
ATOM      8  C   UNL     1      -1.715  11.450  19.271  0.00  0.00    +0.000 A 
ENDROOT
BRANCH   6   9
ATOM      9  C   UNL     1      -4.229  13.622  21.120  0.00  0.00    +0.000 A 
ATOM     10  N   UNL     1      -4.983  13.245  22.210  0.00  0.00    +0.000 N 
ATOM     11  C   UNL     1      -5.484  14.360  22.825  0.00  0.00    +0.000 A 
ATOM     12  N   UNL     1      -4.941  15.438  22.309  0.00  0.00    +0.000 NA
ATOM     13  C   UNL     1      -4.148  15.005  21.266  0.00  0.00    +0.000 A 
ATOM     14  C   UNL     1      -3.419  16.016  20.464  0.00  0.00    +0.000 C 
ATOM     15  H   UNL     1      -5.230  12.306  22.482  0.00  0.00    +0.000 HD
BRANCH  11  16
ATOM     16  C   UNL     1      -6.484  14.265  23.931  0.00  0.00    +0.000 C 
ATOM     17  C   UNL     1      -7.917  14.423  23.442  0.00  0.00    +0.000 C 
BRANCH  16  18
ATOM     18  O   UNL     1      -6.327  12.977  24.538  0.00  0.00    +0.000 OA
ATOM     19  H   UNL     1      -5.969  12.383  23.855  0.00  0.00    +0.000 HD
ENDBRANCH  16  18
ENDBRANCH  11  16
ENDBRANCH   6   9
BRANCH   8  20
ATOM     20  C   UNL     1      -0.240  11.196  19.388  0.00  0.00    +0.000 C 
ATOM     21  O   UNL     1       0.533  11.525  18.494  0.00  0.00    +0.000 OA
ATOM     22  N   UNL     1       0.200  10.629  20.571  0.00  0.00    +0.000 N 
ATOM     23  C   UNL     1       1.596  10.353  20.912  0.00  0.00    +0.000 C 
ATOM     24  C   UNL     1       1.181   8.913  21.298  0.00  0.00    +0.000 C 
ATOM     25  F   UNL     1       1.519   8.580  22.577  0.00  0.00    +0.000 F 
ATOM     26  C   UNL     1      -0.290   9.374  21.147  0.00  0.00    +0.000 C 
BRANCH  24  27
ATOM     27  C   UNL     1       1.668   7.703  20.353  0.00  0.00    +0.000 A 
ATOM     28  C   UNL     1       2.199   7.948  19.067  0.00  0.00    +0.000 A 
ATOM     29  C   UNL     1       2.601   6.915  18.214  0.00  0.00    +0.000 A 
ATOM     30  C   UNL     1       2.485   5.588  18.623  0.00  0.00    +0.000 A 
ATOM     31  C   UNL     1       1.981   5.306  19.893  0.00  0.00    +0.000 A 
ATOM     32  C   UNL     1       1.587   6.347  20.740  0.00  0.00    +0.000 A 
BRANCH  30  33
ATOM     33  C   UNL     1       2.873   4.523  17.746  0.00  0.00    +0.000 C 
ATOM     34  N   UNL     1       3.189   3.659  17.040  0.00  0.00    +0.000 NA
ENDBRANCH  30  33
ENDBRANCH  24  27
ENDBRANCH   8  20
TORSDOF 6
ENDMDL
MODEL 7
REMARK VINA RESULT:      -7.3      5.260     11.083
REMARK  Name = 
REMARK  10 active torsions:
REMARK  status: ('A' for Active; 'I' for Inactive)
REMARK    1  A    between atoms: C_1  and  C_2
REMARK    2  A    between atoms: C_4  and  C_5
REMARK    3  A    between atoms: C_6  and  C_7
REMARK    4  A    between atoms: C_9  and  C_10
REMARK    5  A    between atoms: C_10  and  C_11
REMARK    6  A    between atoms: C_10  and  O_12
REMARK    7  A    between atoms: C_14  and  C_15
REMARK    8  A    between atoms: C_17  and  C_18
REMARK    9  A    between atoms: C_22  and  C_24
REMARK   10  A    between atoms: C_27  and  C_28
REMARK                            x       y       z     vdW  Elec       q    Type
REMARK                         _______ _______ _______ _____ _____    ______ ____
ROOT
ATOM      1  C   UNL     1       1.171   7.117  20.784  0.00  0.00    +0.000 C 
ATOM      2  C   UNL     1       2.234   6.874  19.746  0.00  0.00    +0.000 A 
ATOM      3  C   UNL     1       3.134   5.817  19.960  0.00  0.00    +0.000 A 
ATOM      4  C   UNL     1       4.207   5.552  19.089  0.00  0.00    +0.000 A 
ATOM      5  C   UNL     1       5.125   4.415  19.465  0.00  0.00    +0.000 C 
ATOM      6  C   UNL     1       4.385   6.357  17.944  0.00  0.00    +0.000 A 
ATOM      7  C   UNL     1       3.472   7.405  17.728  0.00  0.00    +0.000 A 
ATOM      8  C   UNL     1       2.404   7.680  18.608  0.00  0.00    +0.000 A 
ENDROOT
BRANCH   6   9
ATOM      9  C   UNL     1       5.512   6.183  17.008  0.00  0.00    +0.000 A 
ATOM     10  N   UNL     1       5.425   5.480  15.826  0.00  0.00    +0.000 N 
ATOM     11  C   UNL     1       6.675   5.350  15.282  0.00  0.00    +0.000 A 
ATOM     12  N   UNL     1       7.531   6.092  15.945  0.00  0.00    +0.000 NA
ATOM     13  C   UNL     1       6.831   6.631  17.005  0.00  0.00    +0.000 A 
ATOM     14  C   UNL     1       7.553   7.501  17.962  0.00  0.00    +0.000 C 
ATOM     15  H   UNL     1       4.607   5.033  15.443  0.00  0.00    +0.000 HD
BRANCH  11  16
ATOM     16  C   UNL     1       6.927   4.485  14.090  0.00  0.00    +0.000 C 
ATOM     17  C   UNL     1       5.646   3.918  13.497  0.00  0.00    +0.000 C 
BRANCH  16  18
ATOM     18  O   UNL     1       7.589   5.292  13.109  0.00  0.00    +0.000 OA
ATOM     19  H   UNL     1       6.898   5.791  12.639  0.00  0.00    +0.000 HD
ENDBRANCH  16  18
ENDBRANCH  11  16
ENDBRANCH   6   9
BRANCH   8  20
ATOM     20  C   UNL     1       1.547   8.884  18.346  0.00  0.00    +0.000 C 
ATOM     21  O   UNL     1       1.322   9.265  17.203  0.00  0.00    +0.000 OA
ATOM     22  N   UNL     1       0.985   9.499  19.452  0.00  0.00    +0.000 N 
ATOM     23  C   UNL     1       0.078  10.645  19.415  0.00  0.00    +0.000 C 
ATOM     24  C   UNL     1       0.971  11.344  20.467  0.00  0.00    +0.000 C 
ATOM     25  F   UNL     1       0.292  11.713  21.591  0.00  0.00    +0.000 F 
ATOM     26  C   UNL     1       1.724   9.998  20.614  0.00  0.00    +0.000 C 
BRANCH  24  27
ATOM     27  C   UNL     1       1.838  12.619  20.002  0.00  0.00    +0.000 A 
ATOM     28  C   UNL     1       2.258  13.596  20.932  0.00  0.00    +0.000 A 
ATOM     29  C   UNL     1       2.985  14.728  20.552  0.00  0.00    +0.000 A 
ATOM     30  C   UNL     1       3.321  14.924  19.214  0.00  0.00    +0.000 A 
ATOM     31  C   UNL     1       2.940  13.973  18.268  0.00  0.00    +0.000 A 
ATOM     32  C   UNL     1       2.217  12.841  18.660  0.00  0.00    +0.000 A 
BRANCH  30  33
ATOM     33  C   UNL     1       4.047  16.093  18.812  0.00  0.00    +0.000 C 
ATOM     34  N   UNL     1       4.632  17.040  18.490  0.00  0.00    +0.000 NA
ENDBRANCH  30  33
ENDBRANCH  24  27
ENDBRANCH   8  20
TORSDOF 6
ENDMDL
MODEL 8
REMARK VINA RESULT:      -7.1      1.370      1.633
REMARK  Name = 
REMARK  10 active torsions:
REMARK  status: ('A' for Active; 'I' for Inactive)
REMARK    1  A    between atoms: C_1  and  C_2
REMARK    2  A    between atoms: C_4  and  C_5
REMARK    3  A    between atoms: C_6  and  C_7
REMARK    4  A    between atoms: C_9  and  C_10
REMARK    5  A    between atoms: C_10  and  C_11
REMARK    6  A    between atoms: C_10  and  O_12
REMARK    7  A    between atoms: C_14  and  C_15
REMARK    8  A    between atoms: C_17  and  C_18
REMARK    9  A    between atoms: C_22  and  C_24
REMARK   10  A    between atoms: C_27  and  C_28
REMARK                            x       y       z     vdW  Elec       q    Type
REMARK                         _______ _______ _______ _____ _____    ______ ____
ROOT
ATOM      1  C   UNL     1      -1.005  10.123  17.494  0.00  0.00    +0.000 C 
ATOM      2  C   UNL     1      -1.872  10.809  18.515  0.00  0.00    +0.000 A 
ATOM      3  C   UNL     1      -3.170  11.186  18.129  0.00  0.00    +0.000 A 
ATOM      4  C   UNL     1      -4.034  11.897  18.983  0.00  0.00    +0.000 A 
ATOM      5  C   UNL     1      -5.382  12.279  18.423  0.00  0.00    +0.000 C 
ATOM      6  C   UNL     1      -3.602  12.231  20.284  0.00  0.00    +0.000 A 
ATOM      7  C   UNL     1      -2.306  11.839  20.668  0.00  0.00    +0.000 A 
ATOM      8  C   UNL     1      -1.435  11.138  19.808  0.00  0.00    +0.000 A 
ENDROOT
BRANCH   6   9
ATOM      9  C   UNL     1      -4.421  13.019  21.224  0.00  0.00    +0.000 A 
ATOM     10  N   UNL     1      -4.964  12.508  22.383  0.00  0.00    +0.000 N 
ATOM     11  C   UNL     1      -5.812  13.431  22.934  0.00  0.00    +0.000 A 
ATOM     12  N   UNL     1      -5.699  14.576  22.301  0.00  0.00    +0.000 NA
ATOM     13  C   UNL     1      -4.832  14.350  21.252  0.00  0.00    +0.000 A 
ATOM     14  C   UNL     1      -4.530  15.469  20.328  0.00  0.00    +0.000 C 
ATOM     15  H   UNL     1      -4.855  11.573  22.745  0.00  0.00    +0.000 HD
BRANCH  11  16
ATOM     16  C   UNL     1      -6.684  13.099  24.100  0.00  0.00    +0.000 C 
ATOM     17  C   UNL     1      -7.911  13.994  24.190  0.00  0.00    +0.000 C 
BRANCH  16  18
ATOM     18  O   UNL     1      -7.099  11.736  23.948  0.00  0.00    +0.000 OA
ATOM     19  H   UNL     1      -6.378  11.180  24.292  0.00  0.00    +0.000 HD
ENDBRANCH  16  18
ENDBRANCH  11  16
ENDBRANCH   6   9
BRANCH   8  20
ATOM     20  C   UNL     1      -0.036  10.857  20.275  0.00  0.00    +0.000 C 
ATOM     21  O   UNL     1       0.870  11.661  20.085  0.00  0.00    +0.000 OA
ATOM     22  N   UNL     1       0.159   9.679  20.975  0.00  0.00    +0.000 N 
ATOM     23  C   UNL     1       1.425   9.243  21.566  0.00  0.00    +0.000 C 
ATOM     24  C   UNL     1       1.238   7.873  20.872  0.00  0.00    +0.000 C 
ATOM     25  F   UNL     1       1.259   6.822  21.740  0.00  0.00    +0.000 F 
ATOM     26  C   UNL     1      -0.193   8.339  20.499  0.00  0.00    +0.000 C 
BRANCH  24  27
ATOM     27  C   UNL     1       2.223   7.498  19.654  0.00  0.00    +0.000 A 
ATOM     28  C   UNL     1       2.336   8.333  18.521  0.00  0.00    +0.000 A 
ATOM     29  C   UNL     1       3.159   8.016  17.435  0.00  0.00    +0.000 A 
ATOM     30  C   UNL     1       3.908   6.841  17.449  0.00  0.00    +0.000 A 
ATOM     31  C   UNL     1       3.838   5.999  18.557  0.00  0.00    +0.000 A 
ATOM     32  C   UNL     1       3.014   6.328  19.640  0.00  0.00    +0.000 A 
BRANCH  30  33
ATOM     33  C   UNL     1       4.738   6.498  16.331  0.00  0.00    +0.000 C 
ATOM     34  N   UNL     1       5.406   6.218  15.426  0.00  0.00    +0.000 NA
ENDBRANCH  30  33
ENDBRANCH  24  27
ENDBRANCH   8  20
TORSDOF 6
ENDMDL
MODEL 9
REMARK VINA RESULT:      -7.0      3.677     10.336
REMARK  Name = 
REMARK  10 active torsions:
REMARK  status: ('A' for Active; 'I' for Inactive)
REMARK    1  A    between atoms: C_1  and  C_2
REMARK    2  A    between atoms: C_4  and  C_5
REMARK    3  A    between atoms: C_6  and  C_7
REMARK    4  A    between atoms: C_9  and  C_10
REMARK    5  A    between atoms: C_10  and  C_11
REMARK    6  A    between atoms: C_10  and  O_12
REMARK    7  A    between atoms: C_14  and  C_15
REMARK    8  A    between atoms: C_17  and  C_18
REMARK    9  A    between atoms: C_22  and  C_24
REMARK   10  A    between atoms: C_27  and  C_28
REMARK                            x       y       z     vdW  Elec       q    Type
REMARK                         _______ _______ _______ _____ _____    ______ ____
ROOT
ATOM      1  C   UNL     1       0.201   9.329  22.089  0.00  0.00    +0.000 C 
ATOM      2  C   UNL     1       0.869   8.461  21.058  0.00  0.00    +0.000 A 
ATOM      3  C   UNL     1       1.184   7.139  21.414  0.00  0.00    +0.000 A 
ATOM      4  C   UNL     1       1.873   6.268  20.549  0.00  0.00    +0.000 A 
ATOM      5  C   UNL     1       2.188   4.891  21.078  0.00  0.00    +0.000 C 
ATOM      6  C   UNL     1       2.250   6.720  19.267  0.00  0.00    +0.000 A 
ATOM      7  C   UNL     1       1.920   8.041  18.912  0.00  0.00    +0.000 A 
ATOM      8  C   UNL     1       1.240   8.918  19.783  0.00  0.00    +0.000 A 
ENDROOT
BRANCH   6   9
ATOM      9  C   UNL     1       3.020   5.894  18.319  0.00  0.00    +0.000 A 
ATOM     10  N   UNL     1       4.302   6.190  17.908  0.00  0.00    +0.000 N 
ATOM     11  C   UNL     1       4.664   5.338  16.899  0.00  0.00    +0.000 A 
ATOM     12  N   UNL     1       3.765   4.391  16.768  0.00  0.00    +0.000 NA
ATOM     13  C   UNL     1       2.749   4.703  17.648  0.00  0.00    +0.000 A 
ATOM     14  C   UNL     1       1.562   3.817  17.703  0.00  0.00    +0.000 C 
ATOM     15  H   UNL     1       4.874   6.964  18.209  0.00  0.00    +0.000 HD
BRANCH  11  16
ATOM     16  C   UNL     1       5.931   5.527  16.129  0.00  0.00    +0.000 C 
ATOM     17  C   UNL     1       6.406   4.246  15.459  0.00  0.00    +0.000 C 
BRANCH  16  18
ATOM     18  O   UNL     1       5.679   6.522  15.130  0.00  0.00    +0.000 OA
ATOM     19  H   UNL     1       5.007   7.125  15.494  0.00  0.00    +0.000 HD
ENDBRANCH  16  18
ENDBRANCH  11  16
ENDBRANCH   6   9
BRANCH   8  20
ATOM     20  C   UNL     1       1.027  10.340  19.350  0.00  0.00    +0.000 C 
ATOM     21  O   UNL     1       1.918  11.175  19.455  0.00  0.00    +0.000 OA
ATOM     22  N   UNL     1      -0.199  10.637  18.779  0.00  0.00    +0.000 N 
ATOM     23  C   UNL     1      -0.589  11.939  18.240  0.00  0.00    +0.000 C 
ATOM     24  C   UNL     1      -1.889  11.858  19.075  0.00  0.00    +0.000 C 
ATOM     25  F   UNL     1      -3.021  11.973  18.324  0.00  0.00    +0.000 F 
ATOM     26  C   UNL     1      -1.505  10.391  19.394  0.00  0.00    +0.000 C 
BRANCH  24  27
ATOM     27  C   UNL     1      -2.052  12.859  20.327  0.00  0.00    +0.000 A 
ATOM     28  C   UNL     1      -1.784  14.240  20.197  0.00  0.00    +0.000 A 
ATOM     29  C   UNL     1      -1.887  15.127  21.275  0.00  0.00    +0.000 A 
ATOM     30  C   UNL     1      -2.267  14.657  22.530  0.00  0.00    +0.000 A 
ATOM     31  C   UNL     1      -2.556  13.303  22.694  0.00  0.00    +0.000 A 
ATOM     32  C   UNL     1      -2.455  12.425  21.609  0.00  0.00    +0.000 A 
BRANCH  30  33
ATOM     33  C   UNL     1      -2.353  15.555  23.644  0.00  0.00    +0.000 C 
ATOM     34  N   UNL     1      -2.420  16.280  24.546  0.00  0.00    +0.000 NA
ENDBRANCH  30  33
ENDBRANCH  24  27
ENDBRANCH   8  20
TORSDOF 6
ENDMDL
