MODEL 1
REMARK VINA RESULT:      -7.7      0.000      0.000
REMARK  Name = 
REMARK  7 active torsions:
REMARK  status: ('A' for Active; 'I' for Inactive)
REMARK    1  A    between atoms: C_1  and  C_2
REMARK    2  A    between atoms: C_2  and  C_3
REMARK    3  A    between atoms: C_3  and  C_4
REMARK    4  A    between atoms: C_8  and  C_9
REMARK    5  A    between atoms: C_13  and  N_14
REMARK    6  A    between atoms: C_15  and  C_17
REMARK    7  A    between atoms: C_20  and  C_21
REMARK                            x       y       z     vdW  Elec       q    Type
REMARK                         _______ _______ _______ _____ _____    ______ ____
ROOT
ATOM      1  N   UNL     1       0.779   9.239  18.593  0.00  0.00    +0.000 N 
ATOM      2  C   UNL     1       1.856   8.506  18.173  0.00  0.00    +0.000 C 
ATOM      3  O   UNL     1       2.574   8.838  17.233  0.00  0.00    +0.000 OA
ATOM      4  H   UNL     1       0.300   8.961  19.448  0.00  0.00    +0.000 HD
ENDROOT
BRANCH   1  14
ATOM      5  C   UNL     1       0.451  11.875  20.199  0.00  0.00    +0.000 C 
ATOM      6  C   UNL     1      -0.985  12.355  19.952  0.00  0.00    +0.000 C 
ATOM      7  C   UNL     1      -1.729  11.547  18.919  0.00  0.00    +0.000 A 
ATOM      8  C   UNL     1      -3.125  11.686  18.845  0.00  0.00    +0.000 A 
ATOM      9  C   UNL     1      -3.874  10.982  17.897  0.00  0.00    +0.000 A 
ATOM     10  C   UNL     1      -5.364  11.139  17.829  0.00  0.00    +0.000 C 
ATOM     11  C   UNL     1      -3.210  10.129  17.013  0.00  0.00    +0.000 A 
ATOM     12  C   UNL     1      -1.819   9.995  17.068  0.00  0.00    +0.000 A 
ATOM     13  C   UNL     1      -1.061  10.711  18.009  0.00  0.00    +0.000 A 
ATOM     14  C   UNL     1       0.446  10.543  18.040  0.00  0.00    +0.000 C 
ATOM     15  C   UNL     1       1.144  11.656  18.841  0.00  0.00    +0.000 C 
BRANCH   5  16
ATOM     16  C   UNL     1       1.250  12.866  21.067  0.00  0.00    +0.000 C 
BRANCH  16  18
ATOM     17  C   UNL     1       1.935  15.077  20.056  0.00  0.00    +0.000 C 
ATOM     18  C   UNL     1       2.321  13.623  20.276  0.00  0.00    +0.000 C 
ENDBRANCH  16  18
ENDBRANCH   5  16
ENDBRANCH   1  14
BRANCH   2  19
ATOM     19  C   UNL     1       2.087   7.235  18.919  0.00  0.00    +0.000 A 
ATOM     20  C   UNL     1       2.491   6.152  18.227  0.00  0.00    +0.000 A 
ATOM     21  C   UNL     1       2.649   4.861  18.862  0.00  0.00    +0.000 A 
ATOM     22  C   UNL     1       2.420   4.714  20.179  0.00  0.00    +0.000 A 
ATOM     23  N   UNL     1       2.056   5.831  20.913  0.00  0.00    +0.000 N 
ATOM     24  C   UNL     1       1.866   7.086  20.386  0.00  0.00    +0.000 A 
ATOM     25  O   UNL     1       1.519   8.025  21.098  0.00  0.00    +0.000 OA
ATOM     26  H   UNL     1       1.890   5.739  21.913  0.00  0.00    +0.000 HD
BRANCH  22  27
ATOM     27  C   UNL     1       2.514   3.382  20.887  0.00  0.00    +0.000 C 
ATOM     28  F   UNL     1       2.393   3.524  22.234  0.00  0.00    +0.000 F 
ATOM     29  F   UNL     1       1.533   2.532  20.491  0.00  0.00    +0.000 F 
ATOM     30  F   UNL     1       3.697   2.762  20.657  0.00  0.00    +0.000 F 
ENDBRANCH  22  27
ENDBRANCH   2  19
TORSDOF 5
ENDMDL
MODEL 2
REMARK VINA RESULT:      -7.7      1.260      1.642
REMARK  Name = 
REMARK  7 active torsions:
REMARK  status: ('A' for Active; 'I' for Inactive)
REMARK    1  A    between atoms: C_1  and  C_2
REMARK    2  A    between atoms: C_2  and  C_3
REMARK    3  A    between atoms: C_3  and  C_4
REMARK    4  A    between atoms: C_8  and  C_9
REMARK    5  A    between atoms: C_13  and  N_14
REMARK    6  A    between atoms: C_15  and  C_17
REMARK    7  A    between atoms: C_20  and  C_21
REMARK                            x       y       z     vdW  Elec       q    Type
REMARK                         _______ _______ _______ _____ _____    ______ ____
ROOT
ATOM      1  N   UNL     1       0.381  10.027  18.969  0.00  0.00    +0.000 N 
ATOM      2  C   UNL     1       1.494   9.415  18.457  0.00  0.00    +0.000 C 
ATOM      3  O   UNL     1       2.170   9.893  17.550  0.00  0.00    +0.000 OA
ATOM      4  H   UNL     1      -0.063   9.627  19.794  0.00  0.00    +0.000 HD
ENDROOT
BRANCH   1  14
ATOM      5  C   UNL     1      -0.513  12.310  20.871  0.00  0.00    +0.000 C 
ATOM      6  C   UNL     1      -1.954  12.663  20.475  0.00  0.00    +0.000 C 
ATOM      7  C   UNL     1      -2.434  11.958  19.232  0.00  0.00    +0.000 A 
ATOM      8  C   UNL     1      -3.813  11.952  18.962  0.00  0.00    +0.000 A 
ATOM      9  C   UNL     1      -4.323  11.335  17.816  0.00  0.00    +0.000 A 
ATOM     10  C   UNL     1      -5.797  11.335  17.539  0.00  0.00    +0.000 C 
ATOM     11  C   UNL     1      -3.436  10.718  16.931  0.00  0.00    +0.000 A 
ATOM     12  C   UNL     1      -2.061  10.730  17.183  0.00  0.00    +0.000 A 
ATOM     13  C   UNL     1      -1.542  11.362  18.325  0.00  0.00    +0.000 A 
ATOM     14  C   UNL     1      -0.045  11.359  18.567  0.00  0.00    +0.000 C 
ATOM     15  C   UNL     1       0.382  12.395  19.621  0.00  0.00    +0.000 C 
BRANCH   5  16
ATOM     16  C   UNL     1       0.018  13.228  21.988  0.00  0.00    +0.000 C 
BRANCH  16  18
ATOM     17  C   UNL     1      -0.979  15.009  23.474  0.00  0.00    +0.000 C 
ATOM     18  C   UNL     1      -1.039  13.552  23.048  0.00  0.00    +0.000 C 
ENDBRANCH  16  18
ENDBRANCH   5  16
ENDBRANCH   1  14
BRANCH   2  19
ATOM     19  C   UNL     1       1.819   8.088  19.056  0.00  0.00    +0.000 A 
ATOM     20  C   UNL     1       2.298   7.122  18.248  0.00  0.00    +0.000 A 
ATOM     21  C   UNL     1       2.552   5.782  18.734  0.00  0.00    +0.000 A 
ATOM     22  C   UNL     1       2.338   5.472  20.025  0.00  0.00    +0.000 A 
ATOM     23  N   UNL     1       1.897   6.469  20.879  0.00  0.00    +0.000 N 
ATOM     24  C   UNL     1       1.614   7.759  20.496  0.00  0.00    +0.000 A 
ATOM     25  O   UNL     1       1.202   8.584  21.308  0.00  0.00    +0.000 OA
ATOM     26  H   UNL     1       1.741   6.254  21.861  0.00  0.00    +0.000 HD
BRANCH  22  27
ATOM     27  C   UNL     1       2.531   4.078  20.579  0.00  0.00    +0.000 C 
ATOM     28  F   UNL     1       1.558   3.233  20.150  0.00  0.00    +0.000 F 
ATOM     29  F   UNL     1       3.716   3.543  20.191  0.00  0.00    +0.000 F 
ATOM     30  F   UNL     1       2.507   4.058  21.934  0.00  0.00    +0.000 F 
ENDBRANCH  22  27
ENDBRANCH   2  19
TORSDOF 5
ENDMDL
MODEL 3
REMARK VINA RESULT:      -7.6      2.156      4.649
REMARK  Name = 
REMARK  7 active torsions:
REMARK  status: ('A' for Active; 'I' for Inactive)
REMARK    1  A    between atoms: C_1  and  C_2
REMARK    2  A    between atoms: C_2  and  C_3
REMARK    3  A    between atoms: C_3  and  C_4
REMARK    4  A    between atoms: C_8  and  C_9
REMARK    5  A    between atoms: C_13  and  N_14
REMARK    6  A    between atoms: C_15  and  C_17
REMARK    7  A    between atoms: C_20  and  C_21
REMARK                            x       y       z     vdW  Elec       q    Type
REMARK                         _______ _______ _______ _____ _____    ______ ____
ROOT
ATOM      1  N   UNL     1       0.763   9.368  19.299  0.00  0.00    +0.000 N 
ATOM      2  C   UNL     1       1.462   8.458  20.045  0.00  0.00    +0.000 C 
ATOM      3  O   UNL     1       1.419   8.416  21.271  0.00  0.00    +0.000 OA
ATOM      4  H   UNL     1       0.760   9.272  18.284  0.00  0.00    +0.000 HD
ENDROOT
BRANCH   1  14
ATOM      5  C   UNL     1      -1.736  10.542  17.882  0.00  0.00    +0.000 C 
ATOM      6  C   UNL     1      -1.553  12.066  17.873  0.00  0.00    +0.000 C 
ATOM      7  C   UNL     1      -0.361  12.540  18.665  0.00  0.00    +0.000 A 
ATOM      8  C   UNL     1       0.087  13.857  18.468  0.00  0.00    +0.000 A 
ATOM      9  C   UNL     1       1.174  14.367  19.185  0.00  0.00    +0.000 A 
ATOM     10  C   UNL     1       1.642  15.775  18.965  0.00  0.00    +0.000 C 
ATOM     11  C   UNL     1       1.816  13.544  20.112  0.00  0.00    +0.000 A 
ATOM     12  C   UNL     1       1.369  12.236  20.327  0.00  0.00    +0.000 A 
ATOM     13  C   UNL     1       0.269  11.723  19.620  0.00  0.00    +0.000 A 
ATOM     14  C   UNL     1      -0.190  10.302  19.878  0.00  0.00    +0.000 C 
ATOM     15  C   UNL     1      -1.602  10.032  19.328  0.00  0.00    +0.000 C 
BRANCH   5  16
ATOM     16  C   UNL     1      -3.089  10.121  17.277  0.00  0.00    +0.000 C 
BRANCH  16  18
ATOM     17  C   UNL     1      -2.997  10.170  14.754  0.00  0.00    +0.000 C 
ATOM     18  C   UNL     1      -3.444  10.903  16.008  0.00  0.00    +0.000 C 
ENDBRANCH  16  18
ENDBRANCH   5  16
ENDBRANCH   1  14
BRANCH   2  19
ATOM     19  C   UNL     1       2.326   7.527  19.262  0.00  0.00    +0.000 A 
ATOM     20  C   UNL     1       2.648   6.339  19.811  0.00  0.00    +0.000 A 
ATOM     21  C   UNL     1       3.554   5.420  19.156  0.00  0.00    +0.000 A 
ATOM     22  C   UNL     1       4.082   5.721  17.957  0.00  0.00    +0.000 A 
ATOM     23  N   UNL     1       3.719   6.915  17.356  0.00  0.00    +0.000 N 
ATOM     24  C   UNL     1       2.882   7.850  17.917  0.00  0.00    +0.000 A 
ATOM     25  O   UNL     1       2.624   8.899  17.332  0.00  0.00    +0.000 OA
ATOM     26  H   UNL     1       4.101   7.152  16.444  0.00  0.00    +0.000 HD
BRANCH  22  27
ATOM     27  C   UNL     1       5.076   4.828  17.249  0.00  0.00    +0.000 C 
ATOM     28  F   UNL     1       4.452   3.847  16.545  0.00  0.00    +0.000 F 
ATOM     29  F   UNL     1       5.836   5.523  16.366  0.00  0.00    +0.000 F 
ATOM     30  F   UNL     1       5.924   4.218  18.114  0.00  0.00    +0.000 F 
ENDBRANCH  22  27
ENDBRANCH   2  19
TORSDOF 5
ENDMDL
MODEL 4
REMARK VINA RESULT:      -7.6      2.260      4.616
REMARK  Name = 
REMARK  7 active torsions:
REMARK  status: ('A' for Active; 'I' for Inactive)
REMARK    1  A    between atoms: C_1  and  C_2
REMARK    2  A    between atoms: C_2  and  C_3
REMARK    3  A    between atoms: C_3  and  C_4
REMARK    4  A    between atoms: C_8  and  C_9
REMARK    5  A    between atoms: C_13  and  N_14
REMARK    6  A    between atoms: C_15  and  C_17
REMARK    7  A    between atoms: C_20  and  C_21
REMARK                            x       y       z     vdW  Elec       q    Type
REMARK                         _______ _______ _______ _____ _____    ______ ____
ROOT
ATOM      1  N   UNL     1       0.779   9.381  19.324  0.00  0.00    +0.000 N 
ATOM      2  C   UNL     1       1.436   8.453  20.086  0.00  0.00    +0.000 C 
ATOM      3  O   UNL     1       1.361   8.411  21.312  0.00  0.00    +0.000 OA
ATOM      4  H   UNL     1       0.799   9.285  18.309  0.00  0.00    +0.000 HD
ENDROOT
BRANCH   1  14
ATOM      5  C   UNL     1      -1.713  10.538  17.881  0.00  0.00    +0.000 C 
ATOM      6  C   UNL     1      -1.516  12.060  17.832  0.00  0.00    +0.000 C 
ATOM      7  C   UNL     1      -0.318  12.544  18.609  0.00  0.00    +0.000 A 
ATOM      8  C   UNL     1       0.141  13.852  18.376  0.00  0.00    +0.000 A 
ATOM      9  C   UNL     1       1.234  14.371  19.077  0.00  0.00    +0.000 A 
ATOM     10  C   UNL     1       1.714  15.768  18.818  0.00  0.00    +0.000 C 
ATOM     11  C   UNL     1       1.871  13.567  20.024  0.00  0.00    +0.000 A 
ATOM     12  C   UNL     1       1.413  12.269  20.274  0.00  0.00    +0.000 A 
ATOM     13  C   UNL     1       0.307  11.748  19.583  0.00  0.00    +0.000 A 
ATOM     14  C   UNL     1      -0.165  10.338  19.880  0.00  0.00    +0.000 C 
ATOM     15  C   UNL     1      -1.579  10.066  19.340  0.00  0.00    +0.000 C 
BRANCH   5  16
ATOM     16  C   UNL     1      -3.071  10.114  17.290  0.00  0.00    +0.000 C 
BRANCH  16  18
ATOM     17  C   UNL     1      -2.993  10.156  14.766  0.00  0.00    +0.000 C 
ATOM     18  C   UNL     1      -3.437  10.890  16.021  0.00  0.00    +0.000 C 
ENDBRANCH  16  18
ENDBRANCH   5  16
ENDBRANCH   1  14
BRANCH   2  19
ATOM     19  C   UNL     1       2.296   7.501  19.325  0.00  0.00    +0.000 A 
ATOM     20  C   UNL     1       2.928   7.950  18.223  0.00  0.00    +0.000 A 
ATOM     21  C   UNL     1       3.707   7.068  17.381  0.00  0.00    +0.000 A 
ATOM     22  C   UNL     1       3.843   5.768  17.696  0.00  0.00    +0.000 A 
ATOM     23  N   UNL     1       3.242   5.303  18.855  0.00  0.00    +0.000 N 
ATOM     24  C   UNL     1       2.472   6.068  19.698  0.00  0.00    +0.000 A 
ATOM     25  O   UNL     1       1.952   5.579  20.697  0.00  0.00    +0.000 OA
ATOM     26  H   UNL     1       3.345   4.324  19.113  0.00  0.00    +0.000 HD
BRANCH  22  27
ATOM     27  C   UNL     1       4.596   4.785  16.827  0.00  0.00    +0.000 C 
ATOM     28  F   UNL     1       5.031   5.368  15.679  0.00  0.00    +0.000 F 
ATOM     29  F   UNL     1       5.691   4.293  17.458  0.00  0.00    +0.000 F 
ATOM     30  F   UNL     1       3.830   3.726  16.469  0.00  0.00    +0.000 F 
ENDBRANCH  22  27
ENDBRANCH   2  19
TORSDOF 5
ENDMDL
MODEL 5
REMARK VINA RESULT:      -7.6      4.969      8.269
REMARK  Name = 
REMARK  7 active torsions:
REMARK  status: ('A' for Active; 'I' for Inactive)
REMARK    1  A    between atoms: C_1  and  C_2
REMARK    2  A    between atoms: C_2  and  C_3
REMARK    3  A    between atoms: C_3  and  C_4
REMARK    4  A    between atoms: C_8  and  C_9
REMARK    5  A    between atoms: C_13  and  N_14
REMARK    6  A    between atoms: C_15  and  C_17
REMARK    7  A    between atoms: C_20  and  C_21
REMARK                            x       y       z     vdW  Elec       q    Type
REMARK                         _______ _______ _______ _____ _____    ______ ____
ROOT
ATOM      1  N   UNL     1       4.245   6.432  18.212  0.00  0.00    +0.000 N 
ATOM      2  C   UNL     1       3.266   6.432  19.169  0.00  0.00    +0.000 C 
ATOM      3  O   UNL     1       3.163   5.560  20.028  0.00  0.00    +0.000 OA
ATOM      4  H   UNL     1       4.336   7.245  17.604  0.00  0.00    +0.000 HD
ENDROOT
BRANCH   1  14
ATOM      5  C   UNL     1       7.260   7.071  17.846  0.00  0.00    +0.000 C 
ATOM      6  C   UNL     1       7.710   6.323  16.583  0.00  0.00    +0.000 C 
ATOM      7  C   UNL     1       6.660   5.405  16.012  0.00  0.00    +0.000 A 
ATOM      8  C   UNL     1       6.836   4.925  14.704  0.00  0.00    +0.000 A 
ATOM      9  C   UNL     1       5.911   4.053  14.121  0.00  0.00    +0.000 A 
ATOM     10  C   UNL     1       6.111   3.548  12.723  0.00  0.00    +0.000 C 
ATOM     11  C   UNL     1       4.796   3.659  14.864  0.00  0.00    +0.000 A 
ATOM     12  C   UNL     1       4.618   4.120  16.172  0.00  0.00    +0.000 A 
ATOM     13  C   UNL     1       5.552   4.984  16.767  0.00  0.00    +0.000 A 
ATOM     14  C   UNL     1       5.329   5.462  18.189  0.00  0.00    +0.000 C 
ATOM     15  C   UNL     1       6.600   6.068  18.810  0.00  0.00    +0.000 C 
BRANCH   5  16
ATOM     16  C   UNL     1       8.431   7.800  18.532  0.00  0.00    +0.000 C 
BRANCH  16  18
ATOM     17  C   UNL     1       9.229  10.082  19.260  0.00  0.00    +0.000 C 
ATOM     18  C   UNL     1       8.482   9.294  18.197  0.00  0.00    +0.000 C 
ENDBRANCH  16  18
ENDBRANCH   5  16
ENDBRANCH   1  14
BRANCH   2  19
ATOM     19  C   UNL     1       2.291   7.557  19.078  0.00  0.00    +0.000 A 
ATOM     20  C   UNL     1       2.131   8.170  17.889  0.00  0.00    +0.000 A 
ATOM     21  C   UNL     1       1.272   9.326  17.740  0.00  0.00    +0.000 A 
ATOM     22  C   UNL     1       0.584   9.806  18.791  0.00  0.00    +0.000 A 
ATOM     23  N   UNL     1       0.698   9.153  20.008  0.00  0.00    +0.000 N 
ATOM     24  C   UNL     1       1.504   8.063  20.239  0.00  0.00    +0.000 A 
ATOM     25  O   UNL     1       1.570   7.551  21.353  0.00  0.00    +0.000 OA
ATOM     26  H   UNL     1       0.176   9.496  20.810  0.00  0.00    +0.000 HD
BRANCH  22  27
ATOM     27  C   UNL     1      -0.283  11.041  18.712  0.00  0.00    +0.000 C 
ATOM     28  F   UNL     1       0.451  12.148  18.423  0.00  0.00    +0.000 F 
ATOM     29  F   UNL     1      -1.227  10.931  17.743  0.00  0.00    +0.000 F 
ATOM     30  F   UNL     1      -0.932  11.288  19.876  0.00  0.00    +0.000 F 
ENDBRANCH  22  27
ENDBRANCH   2  19
TORSDOF 5
ENDMDL
MODEL 6
REMARK VINA RESULT:      -7.5      1.772      2.231
REMARK  Name = 
REMARK  7 active torsions:
REMARK  status: ('A' for Active; 'I' for Inactive)
REMARK    1  A    between atoms: C_1  and  C_2
REMARK    2  A    between atoms: C_2  and  C_3
REMARK    3  A    between atoms: C_3  and  C_4
REMARK    4  A    between atoms: C_8  and  C_9
REMARK    5  A    between atoms: C_13  and  N_14
REMARK    6  A    between atoms: C_15  and  C_17
REMARK    7  A    between atoms: C_20  and  C_21
REMARK                            x       y       z     vdW  Elec       q    Type
REMARK                         _______ _______ _______ _____ _____    ______ ____
ROOT
ATOM      1  N   UNL     1       0.002  10.646  19.172  0.00  0.00    +0.000 N 
ATOM      2  C   UNL     1       1.264  10.287  18.780  0.00  0.00    +0.000 C 
ATOM      3  O   UNL     1       2.007  11.026  18.139  0.00  0.00    +0.000 OA
ATOM      4  H   UNL     1      -0.512  10.027  19.797  0.00  0.00    +0.000 HD
ENDROOT
BRANCH   1  14
ATOM      5  C   UNL     1      -1.161  12.504  21.369  0.00  0.00    +0.000 C 
ATOM      6  C   UNL     1      -2.618  12.781  20.974  0.00  0.00    +0.000 C 
ATOM      7  C   UNL     1      -2.994  12.242  19.618  0.00  0.00    +0.000 A 
ATOM      8  C   UNL     1      -4.358  12.152  19.293  0.00  0.00    +0.000 A 
ATOM      9  C   UNL     1      -4.776  11.681  18.044  0.00  0.00    +0.000 A 
ATOM     10  C   UNL     1      -6.235  11.589  17.710  0.00  0.00    +0.000 C 
ATOM     11  C   UNL     1      -3.810  11.297  17.112  0.00  0.00    +0.000 A 
ATOM     12  C   UNL     1      -2.449  11.397  17.419  0.00  0.00    +0.000 A 
ATOM     13  C   UNL     1      -2.024  11.883  18.666  0.00  0.00    +0.000 A 
ATOM     14  C   UNL     1      -0.541  11.980  18.966  0.00  0.00    +0.000 C 
ATOM     15  C   UNL     1      -0.246  12.870  20.186  0.00  0.00    +0.000 C 
BRANCH   5  16
ATOM     16  C   UNL     1      -0.750  13.277  22.637  0.00  0.00    +0.000 C 
BRANCH  16  18
ATOM     17  C   UNL     1      -1.590  14.882  24.396  0.00  0.00    +0.000 C 
ATOM     18  C   UNL     1      -1.951  13.729  23.474  0.00  0.00    +0.000 C 
ENDBRANCH  16  18
ENDBRANCH   5  16
ENDBRANCH   1  14
BRANCH   2  19
ATOM     19  C   UNL     1       1.675   8.903  19.156  0.00  0.00    +0.000 A 
ATOM     20  C   UNL     1       2.212   8.115  18.205  0.00  0.00    +0.000 A 
ATOM     21  C   UNL     1       2.553   6.733  18.467  0.00  0.00    +0.000 A 
ATOM     22  C   UNL     1       2.364   6.203  19.688  0.00  0.00    +0.000 A 
ATOM     23  N   UNL     1       1.861   7.016  20.690  0.00  0.00    +0.000 N 
ATOM     24  C   UNL     1       1.496   8.331  20.521  0.00  0.00    +0.000 A 
ATOM     25  O   UNL     1       1.035   8.984  21.454  0.00  0.00    +0.000 OA
ATOM     26  H   UNL     1       1.723   6.633  21.622  0.00  0.00    +0.000 HD
BRANCH  22  27
ATOM     27  C   UNL     1       2.647   4.752  20.007  0.00  0.00    +0.000 C 
ATOM     28  F   UNL     1       2.407   4.475  21.316  0.00  0.00    +0.000 F 
ATOM     29  F   UNL     1       1.867   3.915  19.278  0.00  0.00    +0.000 F 
ATOM     30  F   UNL     1       3.936   4.415  19.760  0.00  0.00    +0.000 F 
ENDBRANCH  22  27
ENDBRANCH   2  19
TORSDOF 5
ENDMDL
MODEL 7
REMARK VINA RESULT:      -7.5      4.230      8.259
REMARK  Name = 
REMARK  7 active torsions:
REMARK  status: ('A' for Active; 'I' for Inactive)
REMARK    1  A    between atoms: C_1  and  C_2
REMARK    2  A    between atoms: C_2  and  C_3
REMARK    3  A    between atoms: C_3  and  C_4
REMARK    4  A    between atoms: C_8  and  C_9
REMARK    5  A    between atoms: C_13  and  N_14
REMARK    6  A    between atoms: C_15  and  C_17
REMARK    7  A    between atoms: C_20  and  C_21
REMARK                            x       y       z     vdW  Elec       q    Type
REMARK                         _______ _______ _______ _____ _____    ______ ____
ROOT
ATOM      1  N   UNL     1       2.605   7.227  19.057  0.00  0.00    +0.000 N 
ATOM      2  C   UNL     1       1.928   7.894  20.041  0.00  0.00    +0.000 C 
ATOM      3  O   UNL     1       1.933   7.546  21.219  0.00  0.00    +0.000 OA
ATOM      4  H   UNL     1       2.646   7.637  18.125  0.00  0.00    +0.000 HD
ENDROOT
BRANCH   1  14
ATOM      5  C   UNL     1       4.418   5.793  16.986  0.00  0.00    +0.000 C 
ATOM      6  C   UNL     1       3.970   4.325  16.962  0.00  0.00    +0.000 C 
ATOM      7  C   UNL     1       2.951   3.982  18.018  0.00  0.00    +0.000 A 
ATOM      8  C   UNL     1       2.241   2.776  17.891  0.00  0.00    +0.000 A 
ATOM      9  C   UNL     1       1.296   2.387  18.846  0.00  0.00    +0.000 A 
ATOM     10  C   UNL     1       0.545   1.098  18.698  0.00  0.00    +0.000 C 
ATOM     11  C   UNL     1       1.065   3.221  19.942  0.00  0.00    +0.000 A 
ATOM     12  C   UNL     1       1.776   4.416  20.087  0.00  0.00    +0.000 A 
ATOM     13  C   UNL     1       2.736   4.804  19.138  0.00  0.00    +0.000 A 
ATOM     14  C   UNL     1       3.491   6.105  19.326  0.00  0.00    +0.000 C 
ATOM     15  C   UNL     1       4.744   6.191  18.437  0.00  0.00    +0.000 C 
BRANCH   5  16
ATOM     16  C   UNL     1       5.628   6.041  16.065  0.00  0.00    +0.000 C 
BRANCH  16  18
ATOM     17  C   UNL     1       6.494   4.505  14.258  0.00  0.00    +0.000 C 
ATOM     18  C   UNL     1       6.412   4.763  15.754  0.00  0.00    +0.000 C 
ENDBRANCH  16  18
ENDBRANCH   5  16
ENDBRANCH   1  14
BRANCH   2  19
ATOM     19  C   UNL     1       1.136   9.072  19.580  0.00  0.00    +0.000 A 
ATOM     20  C   UNL     1       0.217   9.592  20.417  0.00  0.00    +0.000 A 
ATOM     21  C   UNL     1      -0.652  10.675  20.011  0.00  0.00    +0.000 A 
ATOM     22  C   UNL     1      -0.545  11.214  18.784  0.00  0.00    +0.000 A 
ATOM     23  N   UNL     1       0.432  10.725  17.931  0.00  0.00    +0.000 N 
ATOM     24  C   UNL     1       1.284   9.688  18.231  0.00  0.00    +0.000 A 
ATOM     25  O   UNL     1       2.111   9.294  17.413  0.00  0.00    +0.000 OA
ATOM     26  H   UNL     1       0.534  11.129  17.004  0.00  0.00    +0.000 HD
BRANCH  22  27
ATOM     27  C   UNL     1      -1.460  12.308  18.282  0.00  0.00    +0.000 C 
ATOM     28  F   UNL     1      -2.175  11.903  17.199  0.00  0.00    +0.000 F 
ATOM     29  F   UNL     1      -2.357  12.685  19.228  0.00  0.00    +0.000 F 
ATOM     30  F   UNL     1      -0.776  13.420  17.914  0.00  0.00    +0.000 F 
ENDBRANCH  22  27
ENDBRANCH   2  19
TORSDOF 5
ENDMDL
MODEL 8
REMARK VINA RESULT:      -7.5      4.859      8.232
REMARK  Name = 
REMARK  7 active torsions:
REMARK  status: ('A' for Active; 'I' for Inactive)
REMARK    1  A    between atoms: C_1  and  C_2
REMARK    2  A    between atoms: C_2  and  C_3
REMARK    3  A    between atoms: C_3  and  C_4
REMARK    4  A    between atoms: C_8  and  C_9
REMARK    5  A    between atoms: C_13  and  N_14
REMARK    6  A    between atoms: C_15  and  C_17
REMARK    7  A    between atoms: C_20  and  C_21
REMARK                            x       y       z     vdW  Elec       q    Type
REMARK                         _______ _______ _______ _____ _____    ______ ____
ROOT
ATOM      1  N   UNL     1       4.337   6.499  18.484  0.00  0.00    +0.000 N 
ATOM      2  C   UNL     1       3.269   6.367  19.330  0.00  0.00    +0.000 C 
ATOM      3  O   UNL     1       3.078   5.372  20.024  0.00  0.00    +0.000 OA
ATOM      4  H   UNL     1       4.491   7.397  18.026  0.00  0.00    +0.000 HD
ENDROOT
BRANCH   1  14
ATOM      5  C   UNL     1       7.331   7.117  17.951  0.00  0.00    +0.000 C 
ATOM      6  C   UNL     1       7.707   6.361  16.669  0.00  0.00    +0.000 C 
ATOM      7  C   UNL     1       6.622   5.446  16.161  0.00  0.00    +0.000 A 
ATOM      8  C   UNL     1       6.724   4.959  14.847  0.00  0.00    +0.000 A 
ATOM      9  C   UNL     1       5.763   4.091  14.320  0.00  0.00    +0.000 A 
ATOM     10  C   UNL     1       5.883   3.578  12.916  0.00  0.00    +0.000 C 
ATOM     11  C   UNL     1       4.687   3.708  15.124  0.00  0.00    +0.000 A 
ATOM     12  C   UNL     1       4.584   4.175  16.438  0.00  0.00    +0.000 A 
ATOM     13  C   UNL     1       5.554   5.036  16.977  0.00  0.00    +0.000 A 
ATOM     14  C   UNL     1       5.412   5.523  18.406  0.00  0.00    +0.000 C 
ATOM     15  C   UNL     1       6.718   6.123  18.954  0.00  0.00    +0.000 C 
BRANCH   5  16
ATOM     16  C   UNL     1       8.542   7.842  18.568  0.00  0.00    +0.000 C 
BRANCH  16  18
ATOM     17  C   UNL     1       9.299  10.123  19.341  0.00  0.00    +0.000 C 
ATOM     18  C   UNL     1       8.554   9.344  18.269  0.00  0.00    +0.000 C 
ENDBRANCH  16  18
ENDBRANCH   5  16
ENDBRANCH   1  14
BRANCH   2  19
ATOM     19  C   UNL     1       2.315   7.514  19.331  0.00  0.00    +0.000 A 
ATOM     20  C   UNL     1       1.616   7.763  20.456  0.00  0.00    +0.000 A 
ATOM     21  C   UNL     1       0.606   8.799  20.508  0.00  0.00    +0.000 A 
ATOM     22  C   UNL     1       0.356   9.564  19.431  0.00  0.00    +0.000 A 
ATOM     23  N   UNL     1       1.104   9.354  18.284  0.00  0.00    +0.000 N 
ATOM     24  C   UNL     1       2.066   8.382  18.145  0.00  0.00    +0.000 A 
ATOM     25  O   UNL     1       2.673   8.240  17.086  0.00  0.00    +0.000 OA
ATOM     26  H   UNL     1       0.934   9.932  17.464  0.00  0.00    +0.000 HD
BRANCH  22  27
ATOM     27  C   UNL     1      -0.724  10.622  19.407  0.00  0.00    +0.000 C 
ATOM     28  F   UNL     1      -1.839  10.181  18.767  0.00  0.00    +0.000 F 
ATOM     29  F   UNL     1      -1.104  10.981  20.658  0.00  0.00    +0.000 F 
ATOM     30  F   UNL     1      -0.321  11.750  18.772  0.00  0.00    +0.000 F 
ENDBRANCH  22  27
ENDBRANCH   2  19
TORSDOF 5
ENDMDL
MODEL 9
REMARK VINA RESULT:      -7.4      1.209      1.560
REMARK  Name = 
REMARK  7 active torsions:
REMARK  status: ('A' for Active; 'I' for Inactive)
REMARK    1  A    between atoms: C_1  and  C_2
REMARK    2  A    between atoms: C_2  and  C_3
REMARK    3  A    between atoms: C_3  and  C_4
REMARK    4  A    between atoms: C_8  and  C_9
REMARK    5  A    between atoms: C_13  and  N_14
REMARK    6  A    between atoms: C_15  and  C_17
REMARK    7  A    between atoms: C_20  and  C_21
REMARK                            x       y       z     vdW  Elec       q    Type
REMARK                         _______ _______ _______ _____ _____    ______ ____
ROOT
ATOM      1  N   UNL     1       0.149  10.295  18.870  0.00  0.00    +0.000 N 
ATOM      2  C   UNL     1       1.409   9.869  18.549  0.00  0.00    +0.000 C 
ATOM      3  O   UNL     1       2.191  10.527  17.868  0.00  0.00    +0.000 OA
ATOM      4  H   UNL     1      -0.401   9.747  19.531  0.00  0.00    +0.000 HD
ENDROOT
BRANCH   1  14
ATOM      5  C   UNL     1      -0.737  12.479  20.889  0.00  0.00    +0.000 C 
ATOM      6  C   UNL     1      -2.208  12.786  20.577  0.00  0.00    +0.000 C 
ATOM      7  C   UNL     1      -2.722  12.102  19.336  0.00  0.00    +0.000 A 
ATOM      8  C   UNL     1      -4.112  12.049  19.133  0.00  0.00    +0.000 A 
ATOM      9  C   UNL     1      -4.655  11.447  17.994  0.00  0.00    +0.000 A 
ATOM     10  C   UNL     1      -6.140  11.397  17.790  0.00  0.00    +0.000 C 
ATOM     11  C   UNL     1      -3.790  10.895  17.047  0.00  0.00    +0.000 A 
ATOM     12  C   UNL     1      -2.405  10.955  17.231  0.00  0.00    +0.000 A 
ATOM     13  C   UNL     1      -1.854  11.571  18.367  0.00  0.00    +0.000 A 
ATOM     14  C   UNL     1      -0.348  11.620  18.535  0.00  0.00    +0.000 C 
ATOM     15  C   UNL     1       0.090  12.640  19.601  0.00  0.00    +0.000 C 
BRANCH   5  16
ATOM     16  C   UNL     1      -0.185  13.382  22.009  0.00  0.00    +0.000 C 
BRANCH  16  18
ATOM     17  C   UNL     1       0.899  15.636  22.362  0.00  0.00    +0.000 C 
ATOM     18  C   UNL     1       0.867  14.377  21.510  0.00  0.00    +0.000 C 
ENDBRANCH  16  18
ENDBRANCH   5  16
ENDBRANCH   1  14
BRANCH   2  19
ATOM     19  C   UNL     1       1.767   8.511  19.054  0.00  0.00    +0.000 A 
ATOM     20  C   UNL     1       2.266   7.615  18.180  0.00  0.00    +0.000 A 
ATOM     21  C   UNL     1       2.553   6.251  18.573  0.00  0.00    +0.000 A 
ATOM     22  C   UNL     1       2.352   5.848  19.839  0.00  0.00    +0.000 A 
ATOM     23  N   UNL     1       1.891   6.774  20.761  0.00  0.00    +0.000 N 
ATOM     24  C   UNL     1       1.576   8.080  20.468  0.00  0.00    +0.000 A 
ATOM     25  O   UNL     1       1.149   8.837  21.336  0.00  0.00    +0.000 OA
ATOM     26  H   UNL     1       1.744   6.488  21.726  0.00  0.00    +0.000 HD
BRANCH  22  27
ATOM     27  C   UNL     1       2.580   4.425  20.296  0.00  0.00    +0.000 C 
ATOM     28  F   UNL     1       3.822   3.987  19.961  0.00  0.00    +0.000 F 
ATOM     29  F   UNL     1       2.470   4.305  21.642  0.00  0.00    +0.000 F 
ATOM     30  F   UNL     1       1.692   3.562  19.743  0.00  0.00    +0.000 F 
ENDBRANCH  22  27
ENDBRANCH   2  19
TORSDOF 5
ENDMDL
