MODEL 1
REMARK VINA RESULT:      -5.9      0.000      0.000
REMARK  Name = 
REMARK  5 active torsions:
REMARK  status: ('A' for Active; 'I' for Inactive)
REMARK    1  A    between atoms: C_1  and  O_2
REMARK    2  A    between atoms: O_2  and  C_3
REMARK    3  A    between atoms: C_3  and  C_4
REMARK    4  A    between atoms: C_4  and  N_5
REMARK    5  A    between atoms: C_13  and  C_14
REMARK                            x       y       z     vdW  Elec       q    Type
REMARK                         _______ _______ _______ _____ _____    ______ ____
ROOT
ATOM      1  N   UNL     1       5.722   4.020  18.626  0.00  0.00    +0.000 N 
ATOM      2  C   UNL     1       4.514   4.287  18.051  0.00  0.00    +0.000 C 
ATOM      3  O   UNL     1       4.322   5.318  17.412  0.00  0.00    +0.000 OA
ATOM      4  N   UNL     1       3.570   3.281  18.200  0.00  0.00    +0.000 N 
ATOM      5  C   UNL     1       2.370   3.379  17.356  0.00  0.00    +0.000 C 
ATOM      6  C   UNL     1       1.125   3.702  18.179  0.00  0.00    +0.000 C 
ATOM      7  C   UNL     1       0.944   2.690  19.301  0.00  0.00    +0.000 C 
ATOM      8  C   UNL     1       2.208   2.597  20.152  0.00  0.00    +0.000 C 
ATOM      9  C   UNL     1       3.452   2.280  19.297  0.00  0.00    +0.000 C 
ATOM     10  C   UNL     1       4.630   2.073  20.255  0.00  0.00    +0.000 C 
ATOM     11  H   UNL     1       6.003   3.061  18.486  0.00  0.00    +0.000 HD
ENDROOT
BRANCH   1  12
ATOM     12  C   UNL     1       6.849   4.932  18.533  0.00  0.00    +0.000 C 
BRANCH  12  13
ATOM     13  C   UNL     1       7.538   4.786  17.173  0.00  0.00    +0.000 C 
BRANCH  13  15
ATOM     14  C   UNL     1       7.407   7.136  17.391  0.00  0.00    +0.000 C 
ATOM     15  O   UNL     1       7.491   6.043  16.483  0.00  0.00    +0.000 OA
ENDBRANCH  13  15
ENDBRANCH  12  13
ENDBRANCH   1  12
TORSDOF 3
ENDMDL
MODEL 2
REMARK VINA RESULT:      -5.9      1.667      2.546
REMARK  Name = 
REMARK  5 active torsions:
REMARK  status: ('A' for Active; 'I' for Inactive)
REMARK    1  A    between atoms: C_1  and  O_2
REMARK    2  A    between atoms: O_2  and  C_3
REMARK    3  A    between atoms: C_3  and  C_4
REMARK    4  A    between atoms: C_4  and  N_5
REMARK    5  A    between atoms: C_13  and  C_14
REMARK                            x       y       z     vdW  Elec       q    Type
REMARK                         _______ _______ _______ _____ _____    ______ ____
ROOT
ATOM      1  N   UNL     1       5.412   5.444  19.070  0.00  0.00    +0.000 N 
ATOM      2  C   UNL     1       4.808   4.259  19.373  0.00  0.00    +0.000 C 
ATOM      3  O   UNL     1       5.463   3.243  19.589  0.00  0.00    +0.000 OA
ATOM      4  N   UNL     1       3.425   4.325  19.472  0.00  0.00    +0.000 N 
ATOM      5  C   UNL     1       2.757   3.167  20.084  0.00  0.00    +0.000 C 
ATOM      6  C   UNL     1       1.942   2.379  19.061  0.00  0.00    +0.000 C 
ATOM      7  C   UNL     1       0.953   3.288  18.346  0.00  0.00    +0.000 C 
ATOM      8  C   UNL     1       1.669   4.488  17.733  0.00  0.00    +0.000 C 
ATOM      9  C   UNL     1       2.493   5.261  18.784  0.00  0.00    +0.000 C 
ATOM     10  C   UNL     1       3.055   6.513  18.101  0.00  0.00    +0.000 C 
ATOM     11  H   UNL     1       4.994   6.217  19.565  0.00  0.00    +0.000 HD
ENDROOT
BRANCH   1  12
ATOM     12  C   UNL     1       6.854   5.583  18.973  0.00  0.00    +0.000 C 
BRANCH  12  13
ATOM     13  C   UNL     1       7.264   5.881  17.529  0.00  0.00    +0.000 C 
BRANCH  13  15
ATOM     14  C   UNL     1       6.812   4.352  15.784  0.00  0.00    +0.000 C 
ATOM     15  O   UNL     1       7.657   4.659  16.887  0.00  0.00    +0.000 OA
ENDBRANCH  13  15
ENDBRANCH  12  13
ENDBRANCH   1  12
TORSDOF 3
ENDMDL
MODEL 3
REMARK VINA RESULT:      -5.9      1.481      2.010
REMARK  Name = 
REMARK  5 active torsions:
REMARK  status: ('A' for Active; 'I' for Inactive)
REMARK    1  A    between atoms: C_1  and  O_2
REMARK    2  A    between atoms: O_2  and  C_3
REMARK    3  A    between atoms: C_3  and  C_4
REMARK    4  A    between atoms: C_4  and  N_5
REMARK    5  A    between atoms: C_13  and  C_14
REMARK                            x       y       z     vdW  Elec       q    Type
REMARK                         _______ _______ _______ _____ _____    ______ ____
ROOT
ATOM      1  N   UNL     1       5.040   4.345  17.740  0.00  0.00    +0.000 N 
ATOM      2  C   UNL     1       4.526   4.767  18.931  0.00  0.00    +0.000 C 
ATOM      3  O   UNL     1       5.225   5.336  19.765  0.00  0.00    +0.000 OA
ATOM      4  N   UNL     1       3.163   4.555  19.078  0.00  0.00    +0.000 N 
ATOM      5  C   UNL     1       2.508   5.251  20.196  0.00  0.00    +0.000 C 
ATOM      6  C   UNL     1       2.065   4.278  21.286  0.00  0.00    +0.000 C 
ATOM      7  C   UNL     1       1.177   3.187  20.705  0.00  0.00    +0.000 C 
ATOM      8  C   UNL     1       1.873   2.490  19.539  0.00  0.00    +0.000 C 
ATOM      9  C   UNL     1       2.320   3.494  18.457  0.00  0.00    +0.000 C 
ATOM     10  C   UNL     1       2.878   2.686  17.279  0.00  0.00    +0.000 C 
ATOM     11  H   UNL     1       4.426   4.557  16.968  0.00  0.00    +0.000 HD
ENDROOT
BRANCH   1  12
ATOM     12  C   UNL     1       6.436   4.528  17.383  0.00  0.00    +0.000 C 
BRANCH  12  13
ATOM     13  C   UNL     1       6.551   5.294  16.063  0.00  0.00    +0.000 C 
BRANCH  13  15
ATOM     14  C   UNL     1       7.353   7.059  17.415  0.00  0.00    +0.000 C 
ATOM     15  O   UNL     1       7.531   6.333  16.204  0.00  0.00    +0.000 OA
ENDBRANCH  13  15
ENDBRANCH  12  13
ENDBRANCH   1  12
TORSDOF 3
ENDMDL
MODEL 4
REMARK VINA RESULT:      -5.8      1.268      1.474
REMARK  Name = 
REMARK  5 active torsions:
REMARK  status: ('A' for Active; 'I' for Inactive)
REMARK    1  A    between atoms: C_1  and  O_2
REMARK    2  A    between atoms: O_2  and  C_3
REMARK    3  A    between atoms: C_3  and  C_4
REMARK    4  A    between atoms: C_4  and  N_5
REMARK    5  A    between atoms: C_13  and  C_14
REMARK                            x       y       z     vdW  Elec       q    Type
REMARK                         _______ _______ _______ _____ _____    ______ ____
ROOT
ATOM      1  N   UNL     1       5.100   4.384  18.474  0.00  0.00    +0.000 N 
ATOM      2  C   UNL     1       3.789   4.734  18.607  0.00  0.00    +0.000 C 
ATOM      3  O   UNL     1       3.390   5.855  18.304  0.00  0.00    +0.000 OA
ATOM      4  N   UNL     1       2.961   3.711  19.047  0.00  0.00    +0.000 N 
ATOM      5  C   UNL     1       1.514   3.939  18.921  0.00  0.00    +0.000 C 
ATOM      6  C   UNL     1       0.848   4.112  20.284  0.00  0.00    +0.000 C 
ATOM      7  C   UNL     1       1.155   2.927  21.187  0.00  0.00    +0.000 C 
ATOM      8  C   UNL     1       2.662   2.703  21.290  0.00  0.00    +0.000 C 
ATOM      9  C   UNL     1       3.312   2.541  19.900  0.00  0.00    +0.000 C 
ATOM     10  C   UNL     1       4.787   2.186  20.119  0.00  0.00    +0.000 C 
ATOM     11  H   UNL     1       5.207   3.464  18.074  0.00  0.00    +0.000 HD
ENDROOT
BRANCH   1  12
ATOM     12  C   UNL     1       6.108   5.307  17.979  0.00  0.00    +0.000 C 
BRANCH  12  13
ATOM     13  C   UNL     1       7.481   4.632  17.957  0.00  0.00    +0.000 C 
BRANCH  13  15
ATOM     14  C   UNL     1       7.001   5.068  15.685  0.00  0.00    +0.000 C 
ATOM     15  O   UNL     1       7.885   4.425  16.596  0.00  0.00    +0.000 OA
ENDBRANCH  13  15
ENDBRANCH  12  13
ENDBRANCH   1  12
TORSDOF 3
ENDMDL
MODEL 5
REMARK VINA RESULT:      -5.8      1.815      2.435
REMARK  Name = 
REMARK  5 active torsions:
REMARK  status: ('A' for Active; 'I' for Inactive)
REMARK    1  A    between atoms: C_1  and  O_2
REMARK    2  A    between atoms: O_2  and  C_3
REMARK    3  A    between atoms: C_3  and  C_4
REMARK    4  A    between atoms: C_4  and  N_5
REMARK    5  A    between atoms: C_13  and  C_14
REMARK                            x       y       z     vdW  Elec       q    Type
REMARK                         _______ _______ _______ _____ _____    ______ ____
ROOT
ATOM      1  N   UNL     1       4.505   5.488  17.697  0.00  0.00    +0.000 N 
ATOM      2  C   UNL     1       4.162   4.190  17.941  0.00  0.00    +0.000 C 
ATOM      3  O   UNL     1       4.435   3.295  17.146  0.00  0.00    +0.000 OA
ATOM      4  N   UNL     1       3.548   3.977  19.167  0.00  0.00    +0.000 N 
ATOM      5  C   UNL     1       3.433   2.579  19.607  0.00  0.00    +0.000 C 
ATOM      6  C   UNL     1       1.983   2.099  19.592  0.00  0.00    +0.000 C 
ATOM      7  C   UNL     1       1.101   3.025  20.418  0.00  0.00    +0.000 C 
ATOM      8  C   UNL     1       1.251   4.470  19.951  0.00  0.00    +0.000 C 
ATOM      9  C   UNL     1       2.724   4.927  19.966  0.00  0.00    +0.000 C 
ATOM     10  C   UNL     1       2.748   6.420  19.617  0.00  0.00    +0.000 C 
ATOM     11  H   UNL     1       4.882   5.939  18.517  0.00  0.00    +0.000 HD
ENDROOT
BRANCH   1  12
ATOM     12  C   UNL     1       5.200   5.898  16.490  0.00  0.00    +0.000 C 
BRANCH  12  13
ATOM     13  C   UNL     1       6.694   6.079  16.772  0.00  0.00    +0.000 C 
BRANCH  13  15
ATOM     14  C   UNL     1       6.825   4.664  14.884  0.00  0.00    +0.000 C 
ATOM     15  O   UNL     1       7.443   5.728  15.600  0.00  0.00    +0.000 OA
ENDBRANCH  13  15
ENDBRANCH  12  13
ENDBRANCH   1  12
TORSDOF 3
ENDMDL
MODEL 6
REMARK VINA RESULT:      -5.8      1.601      2.480
REMARK  Name = 
REMARK  5 active torsions:
REMARK  status: ('A' for Active; 'I' for Inactive)
REMARK    1  A    between atoms: C_1  and  O_2
REMARK    2  A    between atoms: O_2  and  C_3
REMARK    3  A    between atoms: C_3  and  C_4
REMARK    4  A    between atoms: C_4  and  N_5
REMARK    5  A    between atoms: C_13  and  C_14
REMARK                            x       y       z     vdW  Elec       q    Type
REMARK                         _______ _______ _______ _____ _____    ______ ____
ROOT
ATOM      1  N   UNL     1       5.037   5.556  18.645  0.00  0.00    +0.000 N 
ATOM      2  C   UNL     1       4.689   4.355  19.191  0.00  0.00    +0.000 C 
ATOM      3  O   UNL     1       5.527   3.485  19.411  0.00  0.00    +0.000 OA
ATOM      4  N   UNL     1       3.347   4.239  19.522  0.00  0.00    +0.000 N 
ATOM      5  C   UNL     1       2.979   3.101  20.377  0.00  0.00    +0.000 C 
ATOM      6  C   UNL     1       2.157   2.064  19.616  0.00  0.00    +0.000 C 
ATOM      7  C   UNL     1       0.934   2.709  18.979  0.00  0.00    +0.000 C 
ATOM      8  C   UNL     1       1.341   3.895  18.109  0.00  0.00    +0.000 C 
ATOM      9  C   UNL     1       2.178   4.922  18.898  0.00  0.00    +0.000 C 
ATOM     10  C   UNL     1       2.416   6.127  17.980  0.00  0.00    +0.000 C 
ATOM     11  H   UNL     1       4.579   6.327  19.108  0.00  0.00    +0.000 HD
ENDROOT
BRANCH   1  12
ATOM     12  C   UNL     1       6.405   5.882  18.282  0.00  0.00    +0.000 C 
BRANCH  12  13
ATOM     13  C   UNL     1       6.425   7.011  17.249  0.00  0.00    +0.000 C 
BRANCH  13  15
ATOM     14  C   UNL     1       7.931   8.757  17.766  0.00  0.00    +0.000 C 
ATOM     15  O   UNL     1       7.766   7.503  17.114  0.00  0.00    +0.000 OA
ENDBRANCH  13  15
ENDBRANCH  12  13
ENDBRANCH   1  12
TORSDOF 3
ENDMDL
MODEL 7
REMARK VINA RESULT:      -5.8      1.172      1.404
REMARK  Name = 
REMARK  5 active torsions:
REMARK  status: ('A' for Active; 'I' for Inactive)
REMARK    1  A    between atoms: C_1  and  O_2
REMARK    2  A    between atoms: O_2  and  C_3
REMARK    3  A    between atoms: C_3  and  C_4
REMARK    4  A    between atoms: C_4  and  N_5
REMARK    5  A    between atoms: C_13  and  C_14
REMARK                            x       y       z     vdW  Elec       q    Type
REMARK                         _______ _______ _______ _____ _____    ______ ____
ROOT
ATOM      1  N   UNL     1       5.457   3.934  18.649  0.00  0.00    +0.000 N 
ATOM      2  C   UNL     1       4.189   4.436  18.677  0.00  0.00    +0.000 C 
ATOM      3  O   UNL     1       3.939   5.570  18.278  0.00  0.00    +0.000 OA
ATOM      4  N   UNL     1       3.225   3.545  19.128  0.00  0.00    +0.000 N 
ATOM      5  C   UNL     1       1.824   3.923  18.897  0.00  0.00    +0.000 C 
ATOM      6  C   UNL     1       1.108   4.265  20.202  0.00  0.00    +0.000 C 
ATOM      7  C   UNL     1       1.226   3.120  21.197  0.00  0.00    +0.000 C 
ATOM      8  C   UNL     1       2.688   2.738  21.408  0.00  0.00    +0.000 C 
ATOM      9  C   UNL     1       3.391   2.406  20.076  0.00  0.00    +0.000 C 
ATOM     10  C   UNL     1       4.802   1.906  20.409  0.00  0.00    +0.000 C 
ATOM     11  H   UNL     1       5.478   2.982  18.316  0.00  0.00    +0.000 HD
ENDROOT
BRANCH   1  12
ATOM     12  C   UNL     1       6.589   4.701  18.160  0.00  0.00    +0.000 C 
BRANCH  12  13
ATOM     13  C   UNL     1       7.249   5.466  19.310  0.00  0.00    +0.000 C 
BRANCH  13  15
ATOM     14  C   UNL     1       7.408   6.989  17.509  0.00  0.00    +0.000 C 
ATOM     15  O   UNL     1       7.920   6.621  18.785  0.00  0.00    +0.000 OA
ENDBRANCH  13  15
ENDBRANCH  12  13
ENDBRANCH   1  12
TORSDOF 3
ENDMDL
MODEL 8
REMARK VINA RESULT:      -5.8      1.720      2.334
REMARK  Name = 
REMARK  5 active torsions:
REMARK  status: ('A' for Active; 'I' for Inactive)
REMARK    1  A    between atoms: C_1  and  O_2
REMARK    2  A    between atoms: O_2  and  C_3
REMARK    3  A    between atoms: C_3  and  C_4
REMARK    4  A    between atoms: C_4  and  N_5
REMARK    5  A    between atoms: C_13  and  C_14
REMARK                            x       y       z     vdW  Elec       q    Type
REMARK                         _______ _______ _______ _____ _____    ______ ____
ROOT
ATOM      1  N   UNL     1       4.760   4.241  17.604  0.00  0.00    +0.000 N 
ATOM      2  C   UNL     1       4.339   4.666  18.830  0.00  0.00    +0.000 C 
ATOM      3  O   UNL     1       5.088   5.274  19.590  0.00  0.00    +0.000 OA
ATOM      4  N   UNL     1       3.002   4.409  19.101  0.00  0.00    +0.000 N 
ATOM      5  C   UNL     1       2.425   5.102  20.262  0.00  0.00    +0.000 C 
ATOM      6  C   UNL     1       2.115   4.134  21.401  0.00  0.00    +0.000 C 
ATOM      7  C   UNL     1       1.219   3.003  20.917  0.00  0.00    +0.000 C 
ATOM      8  C   UNL     1       1.834   2.310  19.704  0.00  0.00    +0.000 C 
ATOM      9  C   UNL     1       2.147   3.310  18.572  0.00  0.00    +0.000 C 
ATOM     10  C   UNL     1       2.627   2.501  17.361  0.00  0.00    +0.000 C 
ATOM     11  H   UNL     1       4.073   4.419  16.886  0.00  0.00    +0.000 HD
ENDROOT
BRANCH   1  12
ATOM     12  C   UNL     1       6.112   4.466  17.122  0.00  0.00    +0.000 C 
BRANCH  12  13
ATOM     13  C   UNL     1       6.164   5.727  16.255  0.00  0.00    +0.000 C 
BRANCH  13  15
ATOM     14  C   UNL     1       6.937   4.766  14.239  0.00  0.00    +0.000 C 
ATOM     15  O   UNL     1       7.257   5.620  15.331  0.00  0.00    +0.000 OA
ENDBRANCH  13  15
ENDBRANCH  12  13
ENDBRANCH   1  12
TORSDOF 3
ENDMDL
MODEL 9
REMARK VINA RESULT:      -5.7      1.094      1.318
REMARK  Name = 
REMARK  5 active torsions:
REMARK  status: ('A' for Active; 'I' for Inactive)
REMARK    1  A    between atoms: C_1  and  O_2
REMARK    2  A    between atoms: O_2  and  C_3
REMARK    3  A    between atoms: C_3  and  C_4
REMARK    4  A    between atoms: C_4  and  N_5
REMARK    5  A    between atoms: C_13  and  C_14
REMARK                            x       y       z     vdW  Elec       q    Type
REMARK                         _______ _______ _______ _____ _____    ______ ____
ROOT
ATOM      1  N   UNL     1       4.826   3.589  17.803  0.00  0.00    +0.000 N 
ATOM      2  C   UNL     1       3.547   4.018  18.007  0.00  0.00    +0.000 C 
ATOM      3  O   UNL     1       3.118   5.034  17.467  0.00  0.00    +0.000 OA
ATOM      4  N   UNL     1       2.781   3.186  18.810  0.00  0.00    +0.000 N 
ATOM      5  C   UNL     1       1.332   3.434  18.817  0.00  0.00    +0.000 C 
ATOM      6  C   UNL     1       0.861   3.993  20.158  0.00  0.00    +0.000 C 
ATOM      7  C   UNL     1       1.281   3.079  21.300  0.00  0.00    +0.000 C 
ATOM      8  C   UNL     1       2.786   2.825  21.261  0.00  0.00    +0.000 C 
ATOM      9  C   UNL     1       3.238   2.271  19.894  0.00  0.00    +0.000 C 
ATOM     10  C   UNL     1       4.727   1.924  20.006  0.00  0.00    +0.000 C 
ATOM     11  H   UNL     1       4.870   2.592  17.656  0.00  0.00    +0.000 HD
ENDROOT
BRANCH   1  12
ATOM     12  C   UNL     1       5.761   4.302  16.950  0.00  0.00    +0.000 C 
BRANCH  12  13
ATOM     13  C   UNL     1       6.965   4.780  17.765  0.00  0.00    +0.000 C 
BRANCH  13  15
ATOM     14  C   UNL     1       7.624   7.047  17.872  0.00  0.00    +0.000 C 
ATOM     15  O   UNL     1       7.600   5.867  17.077  0.00  0.00    +0.000 OA
ENDBRANCH  13  15
ENDBRANCH  12  13
ENDBRANCH   1  12
TORSDOF 3
ENDMDL
