MODEL 1
REMARK VINA RESULT:      -6.0      0.000      0.000
REMARK  Name = 
REMARK  5 active torsions:
REMARK  status: ('A' for Active; 'I' for Inactive)
REMARK    1  A    between atoms: C_1  and  C_2
REMARK    2  A    between atoms: C_2  and  C_5
REMARK    3  A    between atoms: N_3  and  O_4
REMARK    4  A    between atoms: C_18  and  C_19
REMARK    5  A    between atoms: C_23  and  C_24
REMARK                            x       y       z     vdW  Elec       q    Type
REMARK                         _______ _______ _______ _____ _____    ______ ____
ROOT
ATOM      1  C   UNL     1       3.036   3.942  20.204  0.00  0.00    +0.000 C 
ATOM      2  C   UNL     1       2.759   5.354  20.781  0.00  0.00    +0.000 C 
ATOM      3  C   UNL     1       2.159   6.204  19.655  0.00  0.00    +0.000 C 
ATOM      4  C   UNL     1       2.088   5.298  18.416  0.00  0.00    +0.000 C 
ATOM      5  C   UNL     1       3.394   5.415  17.569  0.00  0.00    +0.000 C 
ATOM      6  C   UNL     1       3.784   6.807  17.070  0.00  0.00    +0.000 C 
ATOM      7  C   UNL     1       5.306   6.830  16.945  0.00  0.00    +0.000 C 
ATOM      8  C   UNL     1       5.812   5.778  15.983  0.00  0.00    +0.000 C 
ATOM      9  C   UNL     1       6.859   6.138  15.200  0.00  0.00    +0.000 C 
ATOM     10  C   UNL     1       7.316   5.305  14.066  0.00  0.00    +0.000 C 
ATOM     11  O   UNL     1       8.343   5.617  13.485  0.00  0.00    +0.000 OA
ATOM     12  C   UNL     1       6.494   4.096  13.687  0.00  0.00    +0.000 C 
ATOM     13  C   UNL     1       5.077   4.147  14.291  0.00  0.00    +0.000 C 
ATOM     14  C   UNL     1       5.096   4.414  15.831  0.00  0.00    +0.000 C 
ATOM     15  C   UNL     1       5.955   3.250  16.426  0.00  0.00    +0.000 C 
ATOM     16  C   UNL     1       3.599   4.387  16.428  0.00  0.00    +0.000 C 
ATOM     17  C   UNL     1       3.174   2.972  16.876  0.00  0.00    +0.000 C 
ATOM     18  C   UNL     1       2.010   2.886  17.837  0.00  0.00    +0.000 C 
ATOM     19  C   UNL     1       1.987   3.865  19.024  0.00  0.00    +0.000 C 
ATOM     20  C   UNL     1       0.650   3.489  19.748  0.00  0.00    +0.000 C 
ENDROOT
BRANCH   1  22
ATOM     21  C   UNL     1       5.641   4.483  19.661  0.00  0.00    +0.000 C 
ATOM     22  C   UNL     1       4.527   3.508  20.026  0.00  0.00    +0.000 C 
ATOM     23  N   UNL     1       4.914   2.281  20.190  0.00  0.00    +0.000 NA
BRANCH  23  24
ATOM     24  O   UNL     1       3.877   1.434  20.564  0.00  0.00    +0.000 OA
ATOM     25  H   UNL     1       4.054   1.296  21.514  0.00  0.00    +0.000 HD
ENDBRANCH  23  24
ENDBRANCH   1  22
TORSDOF 2
ENDMDL
MODEL 2
REMARK VINA RESULT:      -6.0     10.131     12.803
REMARK  Name = 
REMARK  5 active torsions:
REMARK  status: ('A' for Active; 'I' for Inactive)
REMARK    1  A    between atoms: C_1  and  C_2
REMARK    2  A    between atoms: C_2  and  C_5
REMARK    3  A    between atoms: N_3  and  O_4
REMARK    4  A    between atoms: C_18  and  C_19
REMARK    5  A    between atoms: C_23  and  C_24
REMARK                            x       y       z     vdW  Elec       q    Type
REMARK                         _______ _______ _______ _____ _____    ______ ____
ROOT
ATOM      1  C   UNL     1       9.837  14.566  17.827  0.00  0.00    +0.000 C 
ATOM      2  C   UNL     1      10.762  15.810  17.808  0.00  0.00    +0.000 C 
ATOM      3  C   UNL     1      11.787  15.641  18.937  0.00  0.00    +0.000 C 
ATOM      4  C   UNL     1      11.462  14.306  19.623  0.00  0.00    +0.000 C 
ATOM      5  C   UNL     1      10.461  14.517  20.802  0.00  0.00    +0.000 C 
ATOM      6  C   UNL     1      10.876  15.487  21.909  0.00  0.00    +0.000 C 
ATOM      7  C   UNL     1       9.594  16.078  22.493  0.00  0.00    +0.000 C 
ATOM      8  C   UNL     1       8.684  15.011  23.058  0.00  0.00    +0.000 C 
ATOM      9  C   UNL     1       8.025  15.331  24.199  0.00  0.00    +0.000 C 
ATOM     10  C   UNL     1       7.280  14.323  24.986  0.00  0.00    +0.000 C 
ATOM     11  O   UNL     1       6.600  14.699  25.927  0.00  0.00    +0.000 OA
ATOM     12  C   UNL     1       7.385  12.873  24.578  0.00  0.00    +0.000 C 
ATOM     13  C   UNL     1       8.583  12.621  23.642  0.00  0.00    +0.000 C 
ATOM     14  C   UNL     1       8.604  13.601  22.424  0.00  0.00    +0.000 C 
ATOM     15  C   UNL     1       7.232  13.374  21.708  0.00  0.00    +0.000 C 
ATOM     16  C   UNL     1       9.831  13.252  21.439  0.00  0.00    +0.000 C 
ATOM     17  C   UNL     1       9.438  12.225  20.356  0.00  0.00    +0.000 C 
ATOM     18  C   UNL     1      10.326  12.153  19.135  0.00  0.00    +0.000 C 
ATOM     19  C   UNL     1      10.772  13.480  18.493  0.00  0.00    +0.000 C 
ATOM     20  C   UNL     1      11.674  12.997  17.308  0.00  0.00    +0.000 C 
ENDROOT
BRANCH   1  22
ATOM     21  C   UNL     1       7.902  15.899  19.187  0.00  0.00    +0.000 C 
ATOM     22  C   UNL     1       8.351  14.772  18.264  0.00  0.00    +0.000 C 
ATOM     23  N   UNL     1       7.396  13.994  17.855  0.00  0.00    +0.000 NA
BRANCH  23  24
ATOM     24  O   UNL     1       7.841  13.008  16.982  0.00  0.00    +0.000 OA
ATOM     25  H   UNL     1       7.429  13.277  16.138  0.00  0.00    +0.000 HD
ENDBRANCH  23  24
ENDBRANCH   1  22
TORSDOF 2
ENDMDL
MODEL 3
REMARK VINA RESULT:      -5.9      9.607     12.494
REMARK  Name = 
REMARK  5 active torsions:
REMARK  status: ('A' for Active; 'I' for Inactive)
REMARK    1  A    between atoms: C_1  and  C_2
REMARK    2  A    between atoms: C_2  and  C_5
REMARK    3  A    between atoms: N_3  and  O_4
REMARK    4  A    between atoms: C_18  and  C_19
REMARK    5  A    between atoms: C_23  and  C_24
REMARK                            x       y       z     vdW  Elec       q    Type
REMARK                         _______ _______ _______ _____ _____    ______ ____
ROOT
ATOM      1  C   UNL     1      10.201  14.888  17.724  0.00  0.00    +0.000 C 
ATOM      2  C   UNL     1       9.454  16.214  17.433  0.00  0.00    +0.000 C 
ATOM      3  C   UNL     1       9.433  17.027  18.734  0.00  0.00    +0.000 C 
ATOM      4  C   UNL     1      10.160  16.179  19.789  0.00  0.00    +0.000 C 
ATOM      5  C   UNL     1       9.152  15.264  20.553  0.00  0.00    +0.000 C 
ATOM      6  C   UNL     1       7.987  15.946  21.269  0.00  0.00    +0.000 C 
ATOM      7  C   UNL     1       6.828  14.952  21.293  0.00  0.00    +0.000 C 
ATOM      8  C   UNL     1       7.193  13.672  22.010  0.00  0.00    +0.000 C 
ATOM      9  C   UNL     1       6.220  13.115  22.773  0.00  0.00    +0.000 C 
ATOM     10  C   UNL     1       6.492  11.997  23.703  0.00  0.00    +0.000 C 
ATOM     11  O   UNL     1       5.551  11.455  24.260  0.00  0.00    +0.000 OA
ATOM     12  C   UNL     1       7.925  11.570  23.910  0.00  0.00    +0.000 C 
ATOM     13  C   UNL     1       8.924  12.637  23.424  0.00  0.00    +0.000 C 
ATOM     14  C   UNL     1       8.632  13.103  21.960  0.00  0.00    +0.000 C 
ATOM     15  C   UNL     1       8.697  11.793  21.106  0.00  0.00    +0.000 C 
ATOM     16  C   UNL     1       9.743  14.163  21.471  0.00  0.00    +0.000 C 
ATOM     17  C   UNL     1      10.953  13.476  20.803  0.00  0.00    +0.000 C 
ATOM     18  C   UNL     1      11.825  14.343  19.924  0.00  0.00    +0.000 C 
ATOM     19  C   UNL     1      11.126  15.298  18.939  0.00  0.00    +0.000 C 
ATOM     20  C   UNL     1      12.333  16.020  18.251  0.00  0.00    +0.000 C 
ENDROOT
BRANCH   1  22
ATOM     21  C   UNL     1       7.869  13.526  18.003  0.00  0.00    +0.000 C 
ATOM     22  C   UNL     1       9.366  13.567  17.719  0.00  0.00    +0.000 C 
ATOM     23  N   UNL     1       9.899  12.413  17.458  0.00  0.00    +0.000 NA
BRANCH  23  24
ATOM     24  O   UNL     1      11.254  12.500  17.162  0.00  0.00    +0.000 OA
ATOM     25  H   UNL     1      11.585  11.625  17.442  0.00  0.00    +0.000 HD
ENDBRANCH  23  24
ENDBRANCH   1  22
TORSDOF 2
ENDMDL
MODEL 4
REMARK VINA RESULT:      -5.8     10.348     12.970
REMARK  Name = 
REMARK  5 active torsions:
REMARK  status: ('A' for Active; 'I' for Inactive)
REMARK    1  A    between atoms: C_1  and  C_2
REMARK    2  A    between atoms: C_2  and  C_5
REMARK    3  A    between atoms: N_3  and  O_4
REMARK    4  A    between atoms: C_18  and  C_19
REMARK    5  A    between atoms: C_23  and  C_24
REMARK                            x       y       z     vdW  Elec       q    Type
REMARK                         _______ _______ _______ _____ _____    ______ ____
ROOT
ATOM      1  C   UNL     1      10.216  13.560  17.823  0.00  0.00    +0.000 C 
ATOM      2  C   UNL     1      11.370  14.529  17.459  0.00  0.00    +0.000 C 
ATOM      3  C   UNL     1      12.279  14.648  18.689  0.00  0.00    +0.000 C 
ATOM      4  C   UNL     1      11.659  13.758  19.776  0.00  0.00    +0.000 C 
ATOM      5  C   UNL     1      10.660  14.573  20.655  0.00  0.00    +0.000 C 
ATOM      6  C   UNL     1      11.200  15.815  21.365  0.00  0.00    +0.000 C 
ATOM      7  C   UNL     1      10.034  16.788  21.520  0.00  0.00    +0.000 C 
ATOM      8  C   UNL     1       8.900  16.190  22.323  0.00  0.00    +0.000 C 
ATOM      9  C   UNL     1       8.259  17.032  23.171  0.00  0.00    +0.000 C 
ATOM     10  C   UNL     1       7.287  16.548  24.176  0.00  0.00    +0.000 C 
ATOM     11  O   UNL     1       6.648  17.367  24.816  0.00  0.00    +0.000 OA
ATOM     12  C   UNL     1       7.123  15.057  24.354  0.00  0.00    +0.000 C 
ATOM     13  C   UNL     1       8.294  14.268  23.738  0.00  0.00    +0.000 C 
ATOM     14  C   UNL     1       8.575  14.678  22.256  0.00  0.00    +0.000 C 
ATOM     15  C   UNL     1       7.224  14.419  21.510  0.00  0.00    +0.000 C 
ATOM     16  C   UNL     1       9.758  13.778  21.634  0.00  0.00    +0.000 C 
ATOM     17  C   UNL     1       9.225  12.489  20.971  0.00  0.00    +0.000 C 
ATOM     18  C   UNL     1      10.144  11.803  19.987  0.00  0.00    +0.000 C 
ATOM     19  C   UNL     1      10.879  12.682  18.958  0.00  0.00    +0.000 C 
ATOM     20  C   UNL     1      11.728  11.635  18.162  0.00  0.00    +0.000 C 
ENDROOT
BRANCH   1  22
ATOM     21  C   UNL     1       8.515  15.598  18.396  0.00  0.00    +0.000 C 
ATOM     22  C   UNL     1       8.780  14.160  17.963  0.00  0.00    +0.000 C 
ATOM     23  N   UNL     1       7.713  13.468  17.705  0.00  0.00    +0.000 NA
BRANCH  23  24
ATOM     24  O   UNL     1       8.000  12.178  17.272  0.00  0.00    +0.000 OA
ATOM     25  H   UNL     1       8.574  12.342  16.499  0.00  0.00    +0.000 HD
ENDBRANCH  23  24
ENDBRANCH   1  22
TORSDOF 2
ENDMDL
MODEL 5
REMARK VINA RESULT:      -5.8      2.025      6.120
REMARK  Name = 
REMARK  5 active torsions:
REMARK  status: ('A' for Active; 'I' for Inactive)
REMARK    1  A    between atoms: C_1  and  C_2
REMARK    2  A    between atoms: C_2  and  C_5
REMARK    3  A    between atoms: N_3  and  O_4
REMARK    4  A    between atoms: C_18  and  C_19
REMARK    5  A    between atoms: C_23  and  C_24
REMARK                            x       y       z     vdW  Elec       q    Type
REMARK                         _______ _______ _______ _____ _____    ______ ____
ROOT
ATOM      1  C   UNL     1       6.801   5.598  16.324  0.00  0.00    +0.000 C 
ATOM      2  C   UNL     1       7.218   4.327  15.541  0.00  0.00    +0.000 C 
ATOM      3  C   UNL     1       5.937   3.670  15.010  0.00  0.00    +0.000 C 
ATOM      4  C   UNL     1       4.769   4.548  15.485  0.00  0.00    +0.000 C 
ATOM      5  C   UNL     1       4.236   4.060  16.868  0.00  0.00    +0.000 C 
ATOM      6  C   UNL     1       3.759   2.610  16.965  0.00  0.00    +0.000 C 
ATOM      7  C   UNL     1       3.983   2.158  18.407  0.00  0.00    +0.000 C 
ATOM      8  C   UNL     1       3.224   3.016  19.394  0.00  0.00    +0.000 C 
ATOM      9  C   UNL     1       2.679   2.369  20.454  0.00  0.00    +0.000 C 
ATOM     10  C   UNL     1       1.729   3.028  21.376  0.00  0.00    +0.000 C 
ATOM     11  O   UNL     1       1.379   2.434  22.383  0.00  0.00    +0.000 OA
ATOM     12  C   UNL     1       1.243   4.416  21.032  0.00  0.00    +0.000 C 
ATOM     13  C   UNL     1       1.505   4.772  19.556  0.00  0.00    +0.000 C 
ATOM     14  C   UNL     1       2.991   4.525  19.138  0.00  0.00    +0.000 C 
ATOM     15  C   UNL     1       3.832   5.405  20.121  0.00  0.00    +0.000 C 
ATOM     16  C   UNL     1       3.232   4.979  17.611  0.00  0.00    +0.000 C 
ATOM     17  C   UNL     1       3.653   6.460  17.500  0.00  0.00    +0.000 C 
ATOM     18  C   UNL     1       4.327   6.879  16.214  0.00  0.00    +0.000 C 
ATOM     19  C   UNL     1       5.420   5.957  15.644  0.00  0.00    +0.000 C 
ATOM     20  C   UNL     1       5.841   6.701  14.332  0.00  0.00    +0.000 C 
ENDROOT
BRANCH   1  22
ATOM     21  C   UNL     1       6.745   4.362  18.741  0.00  0.00    +0.000 C 
ATOM     22  C   UNL     1       6.992   5.593  17.875  0.00  0.00    +0.000 C 
ATOM     23  N   UNL     1       7.388   6.642  18.527  0.00  0.00    +0.000 NA
BRANCH  23  24
ATOM     24  O   UNL     1       7.644   7.727  17.696  0.00  0.00    +0.000 OA
ATOM     25  H   UNL     1       7.396   8.484  18.261  0.00  0.00    +0.000 HD
ENDBRANCH  23  24
ENDBRANCH   1  22
TORSDOF 2
ENDMDL
MODEL 6
REMARK VINA RESULT:      -5.8      8.587     10.803
REMARK  Name = 
REMARK  5 active torsions:
REMARK  status: ('A' for Active; 'I' for Inactive)
REMARK    1  A    between atoms: C_1  and  C_2
REMARK    2  A    between atoms: C_2  and  C_5
REMARK    3  A    between atoms: N_3  and  O_4
REMARK    4  A    between atoms: C_18  and  C_19
REMARK    5  A    between atoms: C_23  and  C_24
REMARK                            x       y       z     vdW  Elec       q    Type
REMARK                         _______ _______ _______ _____ _____    ______ ____
ROOT
ATOM      1  C   UNL     1      -2.191  15.020  22.250  0.00  0.00    +0.000 C 
ATOM      2  C   UNL     1      -3.264  15.546  21.264  0.00  0.00    +0.000 C 
ATOM      3  C   UNL     1      -4.096  14.343  20.802  0.00  0.00    +0.000 C 
ATOM      4  C   UNL     1      -3.510  13.112  21.508  0.00  0.00    +0.000 C 
ATOM      5  C   UNL     1      -2.396  12.452  20.637  0.00  0.00    +0.000 C 
ATOM      6  C   UNL     1      -2.781  12.004  19.226  0.00  0.00    +0.000 C 
ATOM      7  C   UNL     1      -1.521  12.089  18.367  0.00  0.00    +0.000 C 
ATOM      8  C   UNL     1      -0.411  11.212  18.900  0.00  0.00    +0.000 C 
ATOM      9  C   UNL     1       0.349  10.578  17.972  0.00  0.00    +0.000 C 
ATOM     10  C   UNL     1       1.318   9.522  18.336  0.00  0.00    +0.000 C 
ATOM     11  O   UNL     1       2.063   9.087  17.473  0.00  0.00    +0.000 OA
ATOM     12  C   UNL     1       1.350   9.040  19.767  0.00  0.00    +0.000 C 
ATOM     13  C   UNL     1       0.080   9.443  20.541  0.00  0.00    +0.000 C 
ATOM     14  C   UNL     1      -0.233  10.970  20.419  0.00  0.00    +0.000 C 
ATOM     15  C   UNL     1       1.048  11.683  20.963  0.00  0.00    +0.000 C 
ATOM     16  C   UNL     1      -1.526  11.355  21.302  0.00  0.00    +0.000 C 
ATOM     17  C   UNL     1      -1.150  11.747  22.747  0.00  0.00    +0.000 C 
ATOM     18  C   UNL     1      -2.177  12.539  23.523  0.00  0.00    +0.000 C 
ATOM     19  C   UNL     1      -2.876  13.708  22.803  0.00  0.00    +0.000 C 
ATOM     20  C   UNL     1      -3.859  14.242  23.899  0.00  0.00    +0.000 C 
ENDROOT
BRANCH   1  22
ATOM     21  C   UNL     1      -0.281  14.997  20.320  0.00  0.00    +0.000 C 
ATOM     22  C   UNL     1      -0.699  15.051  21.786  0.00  0.00    +0.000 C 
ATOM     23  N   UNL     1       0.286  15.137  22.626  0.00  0.00    +0.000 NA
BRANCH  23  24
ATOM     24  O   UNL     1      -0.140  15.229  23.947  0.00  0.00    +0.000 OA
ATOM     25  H   UNL     1       0.454  15.914  24.309  0.00  0.00    +0.000 HD
ENDBRANCH  23  24
ENDBRANCH   1  22
TORSDOF 2
ENDMDL
MODEL 7
REMARK VINA RESULT:      -5.8      9.722     12.354
REMARK  Name = 
REMARK  5 active torsions:
REMARK  status: ('A' for Active; 'I' for Inactive)
REMARK    1  A    between atoms: C_1  and  C_2
REMARK    2  A    between atoms: C_2  and  C_5
REMARK    3  A    between atoms: N_3  and  O_4
REMARK    4  A    between atoms: C_18  and  C_19
REMARK    5  A    between atoms: C_23  and  C_24
REMARK                            x       y       z     vdW  Elec       q    Type
REMARK                         _______ _______ _______ _____ _____    ______ ____
ROOT
ATOM      1  C   UNL     1      10.516  12.074  18.108  0.00  0.00    +0.000 C 
ATOM      2  C   UNL     1      11.476  12.737  17.087  0.00  0.00    +0.000 C 
ATOM      3  C   UNL     1      12.120  13.947  17.776  0.00  0.00    +0.000 C 
ATOM      4  C   UNL     1      11.537  14.000  19.196  0.00  0.00    +0.000 C 
ATOM      5  C   UNL     1      10.252  14.885  19.234  0.00  0.00    +0.000 C 
ATOM      6  C   UNL     1      10.383  16.333  18.762  0.00  0.00    +0.000 C 
ATOM      7  C   UNL     1       9.023  16.751  18.206  0.00  0.00    +0.000 C 
ATOM      8  C   UNL     1       7.929  16.646  19.245  0.00  0.00    +0.000 C 
ATOM      9  C   UNL     1       6.988  17.622  19.224  0.00  0.00    +0.000 C 
ATOM     10  C   UNL     1       5.992  17.779  20.306  0.00  0.00    +0.000 C 
ATOM     11  O   UNL     1       5.092  18.591  20.163  0.00  0.00    +0.000 OA
ATOM     12  C   UNL     1       6.130  16.916  21.538  0.00  0.00    +0.000 C 
ATOM     13  C   UNL     1       7.530  16.284  21.648  0.00  0.00    +0.000 C 
ATOM     14  C   UNL     1       7.957  15.548  20.336  0.00  0.00    +0.000 C 
ATOM     15  C   UNL     1       6.839  14.480  20.099  0.00  0.00    +0.000 C 
ATOM     16  C   UNL     1       9.394  14.844  20.525  0.00  0.00    +0.000 C 
ATOM     17  C   UNL     1       9.273  13.402  21.062  0.00  0.00    +0.000 C 
ATOM     18  C   UNL     1      10.470  12.501  20.863  0.00  0.00    +0.000 C 
ATOM     19  C   UNL     1      11.156  12.514  19.484  0.00  0.00    +0.000 C 
ATOM     20  C   UNL     1      12.333  11.501  19.681  0.00  0.00    +0.000 C 
ENDROOT
BRANCH   1  22
ATOM     21  C   UNL     1       8.324  13.385  17.188  0.00  0.00    +0.000 C 
ATOM     22  C   UNL     1       8.981  12.169  17.832  0.00  0.00    +0.000 C 
ATOM     23  N   UNL     1       8.164  11.205  18.125  0.00  0.00    +0.000 NA
BRANCH  23  24
ATOM     24  O   UNL     1       8.809  10.100  18.669  0.00  0.00    +0.000 OA
ATOM     25  H   UNL     1       8.702  10.248  19.628  0.00  0.00    +0.000 HD
ENDBRANCH  23  24
ENDBRANCH   1  22
TORSDOF 2
ENDMDL
MODEL 8
REMARK VINA RESULT:      -5.7      9.835     11.628
REMARK  Name = 
REMARK  5 active torsions:
REMARK  status: ('A' for Active; 'I' for Inactive)
REMARK    1  A    between atoms: C_1  and  C_2
REMARK    2  A    between atoms: C_2  and  C_5
REMARK    3  A    between atoms: N_3  and  O_4
REMARK    4  A    between atoms: C_18  and  C_19
REMARK    5  A    between atoms: C_23  and  C_24
REMARK                            x       y       z     vdW  Elec       q    Type
REMARK                         _______ _______ _______ _____ _____    ______ ____
ROOT
ATOM      1  C   UNL     1       6.792  14.392  22.866  0.00  0.00    +0.000 C 
ATOM      2  C   UNL     1       6.135  12.998  23.029  0.00  0.00    +0.000 C 
ATOM      3  C   UNL     1       7.264  11.972  23.195  0.00  0.00    +0.000 C 
ATOM      4  C   UNL     1       8.581  12.759  23.124  0.00  0.00    +0.000 C 
ATOM      5  C   UNL     1       9.103  12.832  21.654  0.00  0.00    +0.000 C 
ATOM      6  C   UNL     1       9.345  11.509  20.928  0.00  0.00    +0.000 C 
ATOM      7  C   UNL     1       9.130  11.766  19.438  0.00  0.00    +0.000 C 
ATOM      8  C   UNL     1      10.069  12.824  18.905  0.00  0.00    +0.000 C 
ATOM      9  C   UNL     1      10.559  12.616  17.657  0.00  0.00    +0.000 C 
ATOM     10  C   UNL     1      11.651  13.438  17.092  0.00  0.00    +0.000 C 
ATOM     11  O   UNL     1      11.954  13.286  15.920  0.00  0.00    +0.000 OA
ATOM     12  C   UNL     1      12.333  14.440  17.993  0.00  0.00    +0.000 C 
ATOM     13  C   UNL     1      12.053  14.164  19.483  0.00  0.00    +0.000 C 
ATOM     14  C   UNL     1      10.526  14.014  19.784  0.00  0.00    +0.000 C 
ATOM     15  C   UNL     1       9.891  15.359  19.297  0.00  0.00    +0.000 C 
ATOM     16  C   UNL     1      10.279  13.799  21.362  0.00  0.00    +0.000 C 
ATOM     17  C   UNL     1      10.096  15.135  22.112  0.00  0.00    +0.000 C 
ATOM     18  C   UNL     1       9.429  15.067  23.467  0.00  0.00    +0.000 C 
ATOM     19  C   UNL     1       8.174  14.186  23.605  0.00  0.00    +0.000 C 
ATOM     20  C   UNL     1       7.807  14.352  25.118  0.00  0.00    +0.000 C 
ENDROOT
BRANCH   1  22
ATOM     21  C   UNL     1       6.550  14.315  20.163  0.00  0.00    +0.000 C 
ATOM     22  C   UNL     1       6.686  15.087  21.470  0.00  0.00    +0.000 C 
ATOM     23  N   UNL     1       6.697  16.378  21.337  0.00  0.00    +0.000 NA
BRANCH  23  24
ATOM     24  O   UNL     1       6.778  17.044  22.555  0.00  0.00    +0.000 OA
ATOM     25  H   UNL     1       6.577  16.333  23.194  0.00  0.00    +0.000 HD
ENDBRANCH  23  24
ENDBRANCH   1  22
TORSDOF 2
ENDMDL
MODEL 9
REMARK VINA RESULT:      -5.5      1.988      3.343
REMARK  Name = 
REMARK  5 active torsions:
REMARK  status: ('A' for Active; 'I' for Inactive)
REMARK    1  A    between atoms: C_1  and  C_2
REMARK    2  A    between atoms: C_2  and  C_5
REMARK    3  A    between atoms: N_3  and  O_4
REMARK    4  A    between atoms: C_18  and  C_19
REMARK    5  A    between atoms: C_23  and  C_24
REMARK                            x       y       z     vdW  Elec       q    Type
REMARK                         _______ _______ _______ _____ _____    ______ ____
ROOT
ATOM      1  C   UNL     1       1.283   4.264  20.007  0.00  0.00    +0.000 C 
ATOM      2  C   UNL     1       0.295   3.336  19.256  0.00  0.00    +0.000 C 
ATOM      3  C   UNL     1       1.072   2.085  18.825  0.00  0.00    +0.000 C 
ATOM      4  C   UNL     1       2.515   2.279  19.315  0.00  0.00    +0.000 C 
ATOM      5  C   UNL     1       3.381   2.978  18.221  0.00  0.00    +0.000 C 
ATOM      6  C   UNL     1       3.473   2.297  16.856  0.00  0.00    +0.000 C 
ATOM      7  C   UNL     1       3.696   3.395  15.818  0.00  0.00    +0.000 C 
ATOM      8  C   UNL     1       4.960   4.180  16.086  0.00  0.00    +0.000 C 
ATOM      9  C   UNL     1       5.675   4.553  14.996  0.00  0.00    +0.000 C 
ATOM     10  C   UNL     1       7.035   5.124  15.105  0.00  0.00    +0.000 C 
ATOM     11  O   UNL     1       7.571   5.561  14.098  0.00  0.00    +0.000 OA
ATOM     12  C   UNL     1       7.695   5.152  16.463  0.00  0.00    +0.000 C 
ATOM     13  C   UNL     1       7.002   4.207  17.463  0.00  0.00    +0.000 C 
ATOM     14  C   UNL     1       5.457   4.439  17.529  0.00  0.00    +0.000 C 
ATOM     15  C   UNL     1       5.299   5.944  17.926  0.00  0.00    +0.000 C 
ATOM     16  C   UNL     1       4.789   3.479  18.638  0.00  0.00    +0.000 C 
ATOM     17  C   UNL     1       4.751   4.136  20.034  0.00  0.00    +0.000 C 
ATOM     18  C   UNL     1       3.777   3.553  21.032  0.00  0.00    +0.000 C 
ATOM     19  C   UNL     1       2.353   3.231  20.541  0.00  0.00    +0.000 C 
ATOM     20  C   UNL     1       1.679   2.636  21.823  0.00  0.00    +0.000 C 
ENDROOT
BRANCH   1  22
ATOM     21  C   UNL     1       1.743   5.780  17.802  0.00  0.00    +0.000 C 
ATOM     22  C   UNL     1       1.690   5.605  19.315  0.00  0.00    +0.000 C 
ATOM     23  N   UNL     1       2.001   6.667  19.994  0.00  0.00    +0.000 NA
BRANCH  23  24
ATOM     24  O   UNL     1       1.898   6.477  21.367  0.00  0.00    +0.000 OA
ATOM     25  H   UNL     1       0.942   6.319  21.483  0.00  0.00    +0.000 HD
ENDBRANCH  23  24
ENDBRANCH   1  22
TORSDOF 2
ENDMDL
