MODEL 1
REMARK VINA RESULT:      -7.9      0.000      0.000
REMARK  Name = 
REMARK  11 active torsions:
REMARK  status: ('A' for Active; 'I' for Inactive)
REMARK    1  A    between atoms: C_2  and  C_3
REMARK    2  A    between atoms: C_3  and  C_4
REMARK    3  A    between atoms: C_7  and  O_8
REMARK    4  A    between atoms: O_8  and  C_9
REMARK    5  A    between atoms: C_9  and  C_10
REMARK    6  A    between atoms: C_12  and  C_13
REMARK    7  A    between atoms: C_15  and  C_16
REMARK    8  A    between atoms: C_16  and  C_17
REMARK    9  A    between atoms: C_21  and  O_22
REMARK   10  A    between atoms: O_22  and  C_23
REMARK   11  A    between atoms: C_23  and  C_24
REMARK                            x       y       z     vdW  Elec       q    Type
REMARK                         _______ _______ _______ _____ _____    ______ ____
ROOT
ATOM      1  C   UNL     1       5.619   4.381  15.068  0.00  0.00    +0.000 A 
ATOM      2  C   UNL     1       6.931   4.237  15.514  0.00  0.00    +0.000 A 
ATOM      3  C   UNL     1       7.255   4.506  16.842  0.00  0.00    +0.000 A 
ATOM      4  C   UNL     1       6.262   4.901  17.751  0.00  0.00    +0.000 A 
ATOM      5  C   UNL     1       4.914   5.080  17.341  0.00  0.00    +0.000 A 
ATOM      6  C   UNL     1       4.645   4.833  15.974  0.00  0.00    +0.000 A 
ENDROOT
BRANCH   5   7
ATOM      7  C   UNL     1       3.749   5.295  18.265  0.00  0.00    +0.000 A 
ATOM      8  C   UNL     1       3.165   6.582  18.331  0.00  0.00    +0.000 A 
ATOM      9  C   UNL     1       2.289   6.965  19.366  0.00  0.00    +0.000 A 
ATOM     10  C   UNL     1       1.900   6.012  20.308  0.00  0.00    +0.000 A 
ATOM     11  C   UNL     1       2.407   4.714  20.248  0.00  0.00    +0.000 A 
ATOM     12  C   UNL     1       3.331   4.363  19.255  0.00  0.00    +0.000 A 
BRANCH   9  13
ATOM     13  C   UNL     1       1.910   8.417  19.544  0.00  0.00    +0.000 C 
BRANCH  13  14
ATOM     14  C   UNL     1       1.569   9.153  18.285  0.00  0.00    +0.000 C 
ATOM     15  C   UNL     1       0.367   9.699  18.046  0.00  0.00    +0.000 C 
ENDBRANCH  13  14
ENDBRANCH   9  13
BRANCH  12  16
ATOM     16  O   UNL     1       3.934   3.064  19.251  0.00  0.00    +0.000 OA
BRANCH  16  17
ATOM     17  C   UNL     1       3.523   1.916  18.550  0.00  0.00    +0.000 C 
ATOM     18  C   UNL     1       2.306   2.257  17.743  0.00  0.00    +0.000 C 
ATOM     19  O   UNL     1       4.044   0.808  18.567  0.00  0.00    +0.000 OA
ENDBRANCH  16  17
ENDBRANCH  12  16
ENDBRANCH   5   7
BRANCH   1  20
ATOM     20  C   UNL     1       5.225   3.956  13.674  0.00  0.00    +0.000 C 
BRANCH  20  22
ATOM     21  C   UNL     1       6.290   2.731  11.763  0.00  0.00    +0.000 C 
ATOM     22  C   UNL     1       6.376   3.596  12.783  0.00  0.00    +0.000 C 
ENDBRANCH  20  22
ENDBRANCH   1  20
BRANCH   4  23
ATOM     23  O   UNL     1       6.585   5.109  19.131  0.00  0.00    +0.000 OA
BRANCH  23  24
ATOM     24  C   UNL     1       7.771   5.660  19.643  0.00  0.00    +0.000 C 
ATOM     25  C   UNL     1       8.127   6.881  18.846  0.00  0.00    +0.000 C 
ATOM     26  O   UNL     1       8.438   5.248  20.580  0.00  0.00    +0.000 OA
ENDBRANCH  23  24
ENDBRANCH   4  23
TORSDOF 9
ENDMDL
MODEL 2
REMARK VINA RESULT:      -7.8      0.741      6.792
REMARK  Name = 
REMARK  11 active torsions:
REMARK  status: ('A' for Active; 'I' for Inactive)
REMARK    1  A    between atoms: C_2  and  C_3
REMARK    2  A    between atoms: C_3  and  C_4
REMARK    3  A    between atoms: C_7  and  O_8
REMARK    4  A    between atoms: O_8  and  C_9
REMARK    5  A    between atoms: C_9  and  C_10
REMARK    6  A    between atoms: C_12  and  C_13
REMARK    7  A    between atoms: C_15  and  C_16
REMARK    8  A    between atoms: C_16  and  C_17
REMARK    9  A    between atoms: C_21  and  O_22
REMARK   10  A    between atoms: O_22  and  C_23
REMARK   11  A    between atoms: C_23  and  C_24
REMARK                            x       y       z     vdW  Elec       q    Type
REMARK                         _______ _______ _______ _____ _____    ______ ____
ROOT
ATOM      1  C   UNL     1       2.331   6.747  19.565  0.00  0.00    +0.000 A 
ATOM      2  C   UNL     1       1.980   5.711  20.429  0.00  0.00    +0.000 A 
ATOM      3  C   UNL     1       2.537   4.444  20.269  0.00  0.00    +0.000 A 
ATOM      4  C   UNL     1       3.474   4.202  19.253  0.00  0.00    +0.000 A 
ATOM      5  C   UNL     1       3.850   5.219  18.336  0.00  0.00    +0.000 A 
ATOM      6  C   UNL     1       3.226   6.476  18.516  0.00  0.00    +0.000 A 
ENDROOT
BRANCH   5   7
ATOM      7  C   UNL     1       4.984   5.124  17.355  0.00  0.00    +0.000 A 
ATOM      8  C   UNL     1       4.683   5.073  15.974  0.00  0.00    +0.000 A 
ATOM      9  C   UNL     1       5.629   4.681  15.006  0.00  0.00    +0.000 A 
ATOM     10  C   UNL     1       6.942   4.432  15.407  0.00  0.00    +0.000 A 
ATOM     11  C   UNL     1       7.297   4.527  16.753  0.00  0.00    +0.000 A 
ATOM     12  C   UNL     1       6.332   4.850  17.716  0.00  0.00    +0.000 A 
BRANCH   9  13
ATOM     13  C   UNL     1       5.191   4.380  13.591  0.00  0.00    +0.000 C 
BRANCH  13  14
ATOM     14  C   UNL     1       6.071   3.437  12.830  0.00  0.00    +0.000 C 
ATOM     15  C   UNL     1       6.921   3.828  11.868  0.00  0.00    +0.000 C 
ENDBRANCH  13  14
ENDBRANCH   9  13
BRANCH  12  16
ATOM     16  O   UNL     1       6.667   4.846  19.108  0.00  0.00    +0.000 OA
BRANCH  16  17
ATOM     17  C   UNL     1       7.686   5.564  19.760  0.00  0.00    +0.000 C 
ATOM     18  C   UNL     1       8.093   6.715  18.890  0.00  0.00    +0.000 C 
ATOM     19  O   UNL     1       8.184   5.323  20.852  0.00  0.00    +0.000 OA
ENDBRANCH  16  17
ENDBRANCH  12  16
ENDBRANCH   5   7
BRANCH   1  20
ATOM     20  C   UNL     1       1.850   8.157  19.812  0.00  0.00    +0.000 C 
BRANCH  20  22
ATOM     21  C   UNL     1       1.334   9.055  22.095  0.00  0.00    +0.000 C 
ATOM     22  C   UNL     1       0.990   8.318  21.030  0.00  0.00    +0.000 C 
ENDBRANCH  20  22
ENDBRANCH   1  20
BRANCH   4  23
ATOM     23  O   UNL     1       4.097   2.917  19.135  0.00  0.00    +0.000 OA
BRANCH  23  24
ATOM     24  C   UNL     1       3.526   1.752  18.598  0.00  0.00    +0.000 C 
ATOM     25  C   UNL     1       2.340   2.130  17.759  0.00  0.00    +0.000 C 
ATOM     26  O   UNL     1       3.898   0.599  18.760  0.00  0.00    +0.000 OA
ENDBRANCH  23  24
ENDBRANCH   4  23
TORSDOF 9
ENDMDL
MODEL 3
REMARK VINA RESULT:      -7.7      1.294      6.538
REMARK  Name = 
REMARK  11 active torsions:
REMARK  status: ('A' for Active; 'I' for Inactive)
REMARK    1  A    between atoms: C_2  and  C_3
REMARK    2  A    between atoms: C_3  and  C_4
REMARK    3  A    between atoms: C_7  and  O_8
REMARK    4  A    between atoms: O_8  and  C_9
REMARK    5  A    between atoms: C_9  and  C_10
REMARK    6  A    between atoms: C_12  and  C_13
REMARK    7  A    between atoms: C_15  and  C_16
REMARK    8  A    between atoms: C_16  and  C_17
REMARK    9  A    between atoms: C_21  and  O_22
REMARK   10  A    between atoms: O_22  and  C_23
REMARK   11  A    between atoms: C_23  and  C_24
REMARK                            x       y       z     vdW  Elec       q    Type
REMARK                         _______ _______ _______ _____ _____    ______ ____
ROOT
ATOM      1  C   UNL     1       2.457   7.057  18.927  0.00  0.00    +0.000 A 
ATOM      2  C   UNL     1       2.365   6.101  19.938  0.00  0.00    +0.000 A 
ATOM      3  C   UNL     1       3.071   4.905  19.839  0.00  0.00    +0.000 A 
ATOM      4  C   UNL     1       3.901   4.657  18.735  0.00  0.00    +0.000 A 
ATOM      5  C   UNL     1       4.014   5.591  17.670  0.00  0.00    +0.000 A 
ATOM      6  C   UNL     1       3.245   6.772  17.800  0.00  0.00    +0.000 A 
ENDROOT
BRANCH   5   7
ATOM      7  C   UNL     1       5.020   5.518  16.558  0.00  0.00    +0.000 A 
ATOM      8  C   UNL     1       4.771   4.642  15.475  0.00  0.00    +0.000 A 
ATOM      9  C   UNL     1       5.771   4.273  14.554  0.00  0.00    +0.000 A 
ATOM     10  C   UNL     1       7.028   4.871  14.646  0.00  0.00    +0.000 A 
ATOM     11  C   UNL     1       7.300   5.785  15.664  0.00  0.00    +0.000 A 
ATOM     12  C   UNL     1       6.319   6.092  16.617  0.00  0.00    +0.000 A 
BRANCH   9  13
ATOM     13  C   UNL     1       5.533   3.135  13.587  0.00  0.00    +0.000 C 
BRANCH  13  14
ATOM     14  C   UNL     1       5.391   3.529  12.149  0.00  0.00    +0.000 C 
ATOM     15  C   UNL     1       4.312   3.245  11.405  0.00  0.00    +0.000 C 
ENDBRANCH  13  14
ENDBRANCH   9  13
BRANCH  12  16
ATOM     16  O   UNL     1       6.626   6.949  17.722  0.00  0.00    +0.000 OA
BRANCH  16  17
ATOM     17  C   UNL     1       7.775   6.946  18.533  0.00  0.00    +0.000 C 
ATOM     18  C   UNL     1       7.845   5.636  19.261  0.00  0.00    +0.000 C 
ATOM     19  O   UNL     1       8.603   7.840  18.653  0.00  0.00    +0.000 OA
ENDBRANCH  16  17
ENDBRANCH  12  16
ENDBRANCH   5   7
BRANCH   1  20
ATOM     20  C   UNL     1       1.815   8.415  19.086  0.00  0.00    +0.000 C 
BRANCH  20  22
ATOM     21  C   UNL     1       2.042  10.614  17.904  0.00  0.00    +0.000 C 
ATOM     22  C   UNL     1       1.885   9.284  17.866  0.00  0.00    +0.000 C 
ENDBRANCH  20  22
ENDBRANCH   1  20
BRANCH   4  23
ATOM     23  O   UNL     1       4.679   3.456  18.670  0.00  0.00    +0.000 OA
BRANCH  23  24
ATOM     24  C   UNL     1       4.441   2.260  19.365  0.00  0.00    +0.000 C 
ATOM     25  C   UNL     1       3.466   1.427  18.586  0.00  0.00    +0.000 C 
ATOM     26  O   UNL     1       4.923   1.913  20.433  0.00  0.00    +0.000 OA
ENDBRANCH  23  24
ENDBRANCH   4  23
TORSDOF 9
ENDMDL
MODEL 4
REMARK VINA RESULT:      -7.6      0.929      1.073
REMARK  Name = 
REMARK  11 active torsions:
REMARK  status: ('A' for Active; 'I' for Inactive)
REMARK    1  A    between atoms: C_2  and  C_3
REMARK    2  A    between atoms: C_3  and  C_4
REMARK    3  A    between atoms: C_7  and  O_8
REMARK    4  A    between atoms: O_8  and  C_9
REMARK    5  A    between atoms: C_9  and  C_10
REMARK    6  A    between atoms: C_12  and  C_13
REMARK    7  A    between atoms: C_15  and  C_16
REMARK    8  A    between atoms: C_16  and  C_17
REMARK    9  A    between atoms: C_21  and  O_22
REMARK   10  A    between atoms: O_22  and  C_23
REMARK   11  A    between atoms: C_23  and  C_24
REMARK                            x       y       z     vdW  Elec       q    Type
REMARK                         _______ _______ _______ _____ _____    ______ ____
ROOT
ATOM      1  C   UNL     1       5.669   4.337  14.727  0.00  0.00    +0.000 A 
ATOM      2  C   UNL     1       6.937   4.101  15.256  0.00  0.00    +0.000 A 
ATOM      3  C   UNL     1       7.246   4.515  16.550  0.00  0.00    +0.000 A 
ATOM      4  C   UNL     1       6.280   5.151  17.344  0.00  0.00    +0.000 A 
ATOM      5  C   UNL     1       4.980   5.431  16.844  0.00  0.00    +0.000 A 
ATOM      6  C   UNL     1       4.729   5.026  15.511  0.00  0.00    +0.000 A 
ENDROOT
BRANCH   5   7
ATOM      7  C   UNL     1       3.821   5.913  17.669  0.00  0.00    +0.000 A 
ATOM      8  C   UNL     1       3.320   7.216  17.437  0.00  0.00    +0.000 A 
ATOM      9  C   UNL     1       2.459   7.868  18.341  0.00  0.00    +0.000 A 
ATOM     10  C   UNL     1       1.997   7.170  19.457  0.00  0.00    +0.000 A 
ATOM     11  C   UNL     1       2.420   5.862  19.694  0.00  0.00    +0.000 A 
ATOM     12  C   UNL     1       3.331   5.247  18.826  0.00  0.00    +0.000 A 
BRANCH   9  13
ATOM     13  C   UNL     1       2.171   9.345  18.189  0.00  0.00    +0.000 C 
BRANCH  13  14
ATOM     14  C   UNL     1       0.725   9.710  18.057  0.00  0.00    +0.000 C 
ATOM     15  C   UNL     1       0.036  10.367  19.003  0.00  0.00    +0.000 C 
ENDBRANCH  13  14
ENDBRANCH   9  13
BRANCH  12  16
ATOM     16  O   UNL     1       3.849   3.945  19.121  0.00  0.00    +0.000 OA
BRANCH  16  17
ATOM     17  C   UNL     1       3.198   2.874  19.760  0.00  0.00    +0.000 C 
ATOM     18  C   UNL     1       2.305   2.194  18.766  0.00  0.00    +0.000 C 
ATOM     19  O   UNL     1       3.313   2.524  20.927  0.00  0.00    +0.000 OA
ENDBRANCH  16  17
ENDBRANCH  12  16
ENDBRANCH   5   7
BRANCH   1  20
ATOM     20  C   UNL     1       5.273   3.768  13.385  0.00  0.00    +0.000 C 
BRANCH  20  22
ATOM     21  C   UNL     1       6.672   2.547  11.702  0.00  0.00    +0.000 C 
ATOM     22  C   UNL     1       6.396   3.658  12.398  0.00  0.00    +0.000 C 
ENDBRANCH  20  22
ENDBRANCH   1  20
BRANCH   4  23
ATOM     23  O   UNL     1       6.579   5.513  18.697  0.00  0.00    +0.000 OA
BRANCH  23  24
ATOM     24  C   UNL     1       7.834   5.872  19.213  0.00  0.00    +0.000 C 
ATOM     25  C   UNL     1       8.212   7.225  18.684  0.00  0.00    +0.000 C 
ATOM     26  O   UNL     1       8.540   5.223  19.971  0.00  0.00    +0.000 OA
ENDBRANCH  23  24
ENDBRANCH   4  23
TORSDOF 9
ENDMDL
MODEL 5
REMARK VINA RESULT:      -7.5      2.320      6.097
REMARK  Name = 
REMARK  11 active torsions:
REMARK  status: ('A' for Active; 'I' for Inactive)
REMARK    1  A    between atoms: C_2  and  C_3
REMARK    2  A    between atoms: C_3  and  C_4
REMARK    3  A    between atoms: C_7  and  O_8
REMARK    4  A    between atoms: O_8  and  C_9
REMARK    5  A    between atoms: C_9  and  C_10
REMARK    6  A    between atoms: C_12  and  C_13
REMARK    7  A    between atoms: C_15  and  C_16
REMARK    8  A    between atoms: C_16  and  C_17
REMARK    9  A    between atoms: C_21  and  O_22
REMARK   10  A    between atoms: O_22  and  C_23
REMARK   11  A    between atoms: C_23  and  C_24
REMARK                            x       y       z     vdW  Elec       q    Type
REMARK                         _______ _______ _______ _____ _____    ______ ____
ROOT
ATOM      1  C   UNL     1       1.654   8.415  18.803  0.00  0.00    +0.000 A 
ATOM      2  C   UNL     1       1.154   8.070  20.058  0.00  0.00    +0.000 A 
ATOM      3  C   UNL     1       1.560   6.889  20.675  0.00  0.00    +0.000 A 
ATOM      4  C   UNL     1       2.493   6.045  20.054  0.00  0.00    +0.000 A 
ATOM      5  C   UNL     1       3.018   6.343  18.768  0.00  0.00    +0.000 A 
ATOM      6  C   UNL     1       2.544   7.533  18.167  0.00  0.00    +0.000 A 
ENDROOT
BRANCH   5   7
ATOM      7  C   UNL     1       4.163   5.625  18.113  0.00  0.00    +0.000 A 
ATOM      8  C   UNL     1       5.442   6.228  18.133  0.00  0.00    +0.000 A 
ATOM      9  C   UNL     1       6.495   5.800  17.301  0.00  0.00    +0.000 A 
ATOM     10  C   UNL     1       6.307   4.675  16.499  0.00  0.00    +0.000 A 
ATOM     11  C   UNL     1       5.079   4.013  16.491  0.00  0.00    +0.000 A 
ATOM     12  C   UNL     1       4.016   4.489  17.270  0.00  0.00    +0.000 A 
BRANCH   9  13
ATOM     13  C   UNL     1       7.745   6.640  17.162  0.00  0.00    +0.000 C 
BRANCH  13  14
ATOM     14  C   UNL     1       7.563   8.109  17.389  0.00  0.00    +0.000 C 
ATOM     15  C   UNL     1       8.367   8.845  18.172  0.00  0.00    +0.000 C 
ENDBRANCH  13  14
ENDBRANCH   9  13
BRANCH  12  16
ATOM     16  O   UNL     1       2.725   3.876  17.186  0.00  0.00    +0.000 OA
BRANCH  16  17
ATOM     17  C   UNL     1       2.291   2.675  17.774  0.00  0.00    +0.000 C 
ATOM     18  C   UNL     1       3.482   1.961  18.341  0.00  0.00    +0.000 C 
ATOM     19  O   UNL     1       1.146   2.247  17.833  0.00  0.00    +0.000 OA
ENDBRANCH  16  17
ENDBRANCH  12  16
ENDBRANCH   5   7
BRANCH   1  20
ATOM     20  C   UNL     1       1.338   9.756  18.187  0.00  0.00    +0.000 C 
BRANCH  20  22
ATOM     21  C   UNL     1      -1.100  10.184  17.793  0.00  0.00    +0.000 C 
ATOM     22  C   UNL     1      -0.005  10.311  18.555  0.00  0.00    +0.000 C 
ENDBRANCH  20  22
ENDBRANCH   1  20
BRANCH   4  23
ATOM     23  O   UNL     1       2.960   4.867  20.722  0.00  0.00    +0.000 OA
BRANCH  23  24
ATOM     24  C   UNL     1       2.172   3.857  21.296  0.00  0.00    +0.000 C 
ATOM     25  C   UNL     1       0.835   3.832  20.613  0.00  0.00    +0.000 C 
ATOM     26  O   UNL     1       2.479   3.100  22.204  0.00  0.00    +0.000 OA
ENDBRANCH  23  24
ENDBRANCH   4  23
TORSDOF 9
ENDMDL
MODEL 6
REMARK VINA RESULT:      -7.5      0.935      6.725
REMARK  Name = 
REMARK  11 active torsions:
REMARK  status: ('A' for Active; 'I' for Inactive)
REMARK    1  A    between atoms: C_2  and  C_3
REMARK    2  A    between atoms: C_3  and  C_4
REMARK    3  A    between atoms: C_7  and  O_8
REMARK    4  A    between atoms: O_8  and  C_9
REMARK    5  A    between atoms: C_9  and  C_10
REMARK    6  A    between atoms: C_12  and  C_13
REMARK    7  A    between atoms: C_15  and  C_16
REMARK    8  A    between atoms: C_16  and  C_17
REMARK    9  A    between atoms: C_21  and  O_22
REMARK   10  A    between atoms: O_22  and  C_23
REMARK   11  A    between atoms: C_23  and  C_24
REMARK                            x       y       z     vdW  Elec       q    Type
REMARK                         _______ _______ _______ _____ _____    ______ ____
ROOT
ATOM      1  C   UNL     1       2.526   8.052  18.270  0.00  0.00    +0.000 A 
ATOM      2  C   UNL     1       2.027   7.365  19.375  0.00  0.00    +0.000 A 
ATOM      3  C   UNL     1       2.425   6.053  19.624  0.00  0.00    +0.000 A 
ATOM      4  C   UNL     1       3.349   5.417  18.782  0.00  0.00    +0.000 A 
ATOM      5  C   UNL     1       3.871   6.068  17.633  0.00  0.00    +0.000 A 
ATOM      6  C   UNL     1       3.406   7.385  17.402  0.00  0.00    +0.000 A 
ENDROOT
BRANCH   5   7
ATOM      7  C   UNL     1       5.008   5.561  16.792  0.00  0.00    +0.000 A 
ATOM      8  C   UNL     1       4.753   5.214  15.445  0.00  0.00    +0.000 A 
ATOM      9  C   UNL     1       5.654   4.454  14.674  0.00  0.00    +0.000 A 
ATOM     10  C   UNL     1       6.892   4.115  15.221  0.00  0.00    +0.000 A 
ATOM     11  C   UNL     1       7.209   4.487  16.528  0.00  0.00    +0.000 A 
ATOM     12  C   UNL     1       6.278   5.183  17.309  0.00  0.00    +0.000 A 
BRANCH   9  13
ATOM     13  C   UNL     1       5.223   3.881  13.343  0.00  0.00    +0.000 C 
BRANCH  13  14
ATOM     14  C   UNL     1       6.323   3.319  12.496  0.00  0.00    +0.000 C 
ATOM     15  C   UNL     1       7.124   4.070  11.725  0.00  0.00    +0.000 C 
ENDBRANCH  13  14
ENDBRANCH   9  13
BRANCH  12  16
ATOM     16  O   UNL     1       6.558   5.475  18.683  0.00  0.00    +0.000 OA
BRANCH  16  17
ATOM     17  C   UNL     1       7.780   5.866  19.258  0.00  0.00    +0.000 C 
ATOM     18  C   UNL     1       8.207   7.164  18.640  0.00  0.00    +0.000 C 
ATOM     19  O   UNL     1       8.420   5.276  20.119  0.00  0.00    +0.000 OA
ENDBRANCH  16  17
ENDBRANCH  12  16
ENDBRANCH   5   7
BRANCH   1  20
ATOM     20  C   UNL     1       2.219   9.517  18.067  0.00  0.00    +0.000 C 
BRANCH  20  22
ATOM     21  C   UNL     1       0.554  11.263  18.749  0.00  0.00    +0.000 C 
ATOM     22  C   UNL     1       1.065  10.030  18.874  0.00  0.00    +0.000 C 
ENDBRANCH  20  22
ENDBRANCH   1  20
BRANCH   4  23
ATOM     23  O   UNL     1       3.808   4.093  19.080  0.00  0.00    +0.000 OA
BRANCH  23  24
ATOM     24  C   UNL     1       3.028   2.929  19.151  0.00  0.00    +0.000 C 
ATOM     25  C   UNL     1       2.780   2.421  17.760  0.00  0.00    +0.000 C 
ATOM     26  O   UNL     1       2.597   2.382  20.155  0.00  0.00    +0.000 OA
ENDBRANCH  23  24
ENDBRANCH   4  23
TORSDOF 9
ENDMDL
MODEL 7
REMARK VINA RESULT:      -7.4      2.319      4.166
REMARK  Name = 
REMARK  11 active torsions:
REMARK  status: ('A' for Active; 'I' for Inactive)
REMARK    1  A    between atoms: C_2  and  C_3
REMARK    2  A    between atoms: C_3  and  C_4
REMARK    3  A    between atoms: C_7  and  O_8
REMARK    4  A    between atoms: O_8  and  C_9
REMARK    5  A    between atoms: C_9  and  C_10
REMARK    6  A    between atoms: C_12  and  C_13
REMARK    7  A    between atoms: C_15  and  C_16
REMARK    8  A    between atoms: C_16  and  C_17
REMARK    9  A    between atoms: C_21  and  O_22
REMARK   10  A    between atoms: O_22  and  C_23
REMARK   11  A    between atoms: C_23  and  C_24
REMARK                            x       y       z     vdW  Elec       q    Type
REMARK                         _______ _______ _______ _____ _____    ______ ____
ROOT
ATOM      1  C   UNL     1       6.394   6.105  17.101  0.00  0.00    +0.000 A 
ATOM      2  C   UNL     1       6.248   4.885  16.444  0.00  0.00    +0.000 A 
ATOM      3  C   UNL     1       5.060   4.165  16.557  0.00  0.00    +0.000 A 
ATOM      4  C   UNL     1       3.991   4.670  17.312  0.00  0.00    +0.000 A 
ATOM      5  C   UNL     1       4.097   5.899  18.015  0.00  0.00    +0.000 A 
ATOM      6  C   UNL     1       5.337   6.572  17.901  0.00  0.00    +0.000 A 
ENDROOT
BRANCH   5   7
ATOM      7  C   UNL     1       2.957   6.622  18.673  0.00  0.00    +0.000 A 
ATOM      8  C   UNL     1       2.532   7.856  18.128  0.00  0.00    +0.000 A 
ATOM      9  C   UNL     1       1.697   8.747  18.831  0.00  0.00    +0.000 A 
ATOM     10  C   UNL     1       1.184   8.358  20.069  0.00  0.00    +0.000 A 
ATOM     11  C   UNL     1       1.532   7.125  20.619  0.00  0.00    +0.000 A 
ATOM     12  C   UNL     1       2.418   6.276  19.943  0.00  0.00    +0.000 A 
BRANCH   9  13
ATOM     13  C   UNL     1       1.494  10.158  18.327  0.00  0.00    +0.000 C 
BRANCH  13  14
ATOM     14  C   UNL     1       0.219  10.818  18.754  0.00  0.00    +0.000 C 
ATOM     15  C   UNL     1       0.172  11.904  19.541  0.00  0.00    +0.000 C 
ENDBRANCH  13  14
ENDBRANCH   9  13
BRANCH  12  16
ATOM     16  O   UNL     1       2.859   5.056  20.550  0.00  0.00    +0.000 OA
BRANCH  16  17
ATOM     17  C   UNL     1       2.079   4.050  21.149  0.00  0.00    +0.000 C 
ATOM     18  C   UNL     1       0.830   3.867  20.340  0.00  0.00    +0.000 C 
ATOM     19  O   UNL     1       2.340   3.410  22.159  0.00  0.00    +0.000 OA
ENDBRANCH  16  17
ENDBRANCH  12  16
ENDBRANCH   5   7
BRANCH   1  20
ATOM     20  C   UNL     1       7.615   6.965  16.873  0.00  0.00    +0.000 C 
BRANCH  20  22
ATOM     21  C   UNL     1       8.225   9.130  17.980  0.00  0.00    +0.000 C 
ATOM     22  C   UNL     1       8.011   7.809  18.048  0.00  0.00    +0.000 C 
ENDBRANCH  20  22
ENDBRANCH   1  20
BRANCH   4  23
ATOM     23  O   UNL     1       2.747   3.961  17.369  0.00  0.00    +0.000 OA
BRANCH  23  24
ATOM     24  C   UNL     1       2.562   2.615  17.724  0.00  0.00    +0.000 C 
ATOM     25  C   UNL     1       3.701   2.179  18.598  0.00  0.00    +0.000 C 
ATOM     26  O   UNL     1       1.641   1.881  17.398  0.00  0.00    +0.000 OA
ENDBRANCH  23  24
ENDBRANCH   4  23
TORSDOF 9
ENDMDL
MODEL 8
REMARK VINA RESULT:      -7.4      1.309      1.589
REMARK  Name = 
REMARK  11 active torsions:
REMARK  status: ('A' for Active; 'I' for Inactive)
REMARK    1  A    between atoms: C_2  and  C_3
REMARK    2  A    between atoms: C_3  and  C_4
REMARK    3  A    between atoms: C_7  and  O_8
REMARK    4  A    between atoms: O_8  and  C_9
REMARK    5  A    between atoms: C_9  and  C_10
REMARK    6  A    between atoms: C_12  and  C_13
REMARK    7  A    between atoms: C_15  and  C_16
REMARK    8  A    between atoms: C_16  and  C_17
REMARK    9  A    between atoms: C_21  and  O_22
REMARK   10  A    between atoms: O_22  and  C_23
REMARK   11  A    between atoms: C_23  and  C_24
REMARK                            x       y       z     vdW  Elec       q    Type
REMARK                         _______ _______ _______ _____ _____    ______ ____
ROOT
ATOM      1  C   UNL     1       5.662   4.164  13.686  0.00  0.00    +0.000 A 
ATOM      2  C   UNL     1       7.037   4.241  13.902  0.00  0.00    +0.000 A 
ATOM      3  C   UNL     1       7.533   4.843  15.057  0.00  0.00    +0.000 A 
ATOM      4  C   UNL     1       6.657   5.357  16.025  0.00  0.00    +0.000 A 
ATOM      5  C   UNL     1       5.249   5.318  15.843  0.00  0.00    +0.000 A 
ATOM      6  C   UNL     1       4.797   4.733  14.636  0.00  0.00    +0.000 A 
ENDROOT
BRANCH   5   7
ATOM      7  C   UNL     1       4.230   5.647  16.896  0.00  0.00    +0.000 A 
ATOM      8  C   UNL     1       3.685   6.951  16.928  0.00  0.00    +0.000 A 
ATOM      9  C   UNL     1       2.971   7.447  18.037  0.00  0.00    +0.000 A 
ATOM     10  C   UNL     1       2.700   6.590  19.104  0.00  0.00    +0.000 A 
ATOM     11  C   UNL     1       3.171   5.277  19.089  0.00  0.00    +0.000 A 
ATOM     12  C   UNL     1       3.939   4.815  18.013  0.00  0.00    +0.000 A 
BRANCH   9  13
ATOM     13  C   UNL     1       2.646   8.921  18.137  0.00  0.00    +0.000 C 
BRANCH  13  14
ATOM     14  C   UNL     1       1.218   9.285  17.873  0.00  0.00    +0.000 C 
ATOM     15  C   UNL     1       0.433   9.907  18.767  0.00  0.00    +0.000 C 
ENDBRANCH  13  14
ENDBRANCH   9  13
BRANCH  12  16
ATOM     16  O   UNL     1       4.511   3.503  18.041  0.00  0.00    +0.000 OA
BRANCH  16  17
ATOM     17  C   UNL     1       4.354   2.505  19.019  0.00  0.00    +0.000 C 
ATOM     18  C   UNL     1       3.342   1.512  18.533  0.00  0.00    +0.000 C 
ATOM     19  O   UNL     1       4.926   2.426  20.099  0.00  0.00    +0.000 OA
ENDBRANCH  16  17
ENDBRANCH  12  16
ENDBRANCH   5   7
BRANCH   1  20
ATOM     20  C   UNL     1       5.105   3.389  12.516  0.00  0.00    +0.000 C 
BRANCH  20  22
ATOM     21  C   UNL     1       5.914   1.400  11.221  0.00  0.00    +0.000 C 
ATOM     22  C   UNL     1       6.128   2.619  11.735  0.00  0.00    +0.000 C 
ENDBRANCH  20  22
ENDBRANCH   1  20
BRANCH   4  23
ATOM     23  O   UNL     1       7.170   5.912  17.242  0.00  0.00    +0.000 OA
BRANCH  23  24
ATOM     24  C   UNL     1       7.648   5.203  18.355  0.00  0.00    +0.000 C 
ATOM     25  C   UNL     1       7.021   5.763  19.598  0.00  0.00    +0.000 C 
ATOM     26  O   UNL     1       8.445   4.277  18.359  0.00  0.00    +0.000 OA
ENDBRANCH  23  24
ENDBRANCH   4  23
TORSDOF 9
ENDMDL
MODEL 9
REMARK VINA RESULT:      -7.3      2.403      4.226
REMARK  Name = 
REMARK  11 active torsions:
REMARK  status: ('A' for Active; 'I' for Inactive)
REMARK    1  A    between atoms: C_2  and  C_3
REMARK    2  A    between atoms: C_3  and  C_4
REMARK    3  A    between atoms: C_7  and  O_8
REMARK    4  A    between atoms: O_8  and  C_9
REMARK    5  A    between atoms: C_9  and  C_10
REMARK    6  A    between atoms: C_12  and  C_13
REMARK    7  A    between atoms: C_15  and  C_16
REMARK    8  A    between atoms: C_16  and  C_17
REMARK    9  A    between atoms: C_21  and  O_22
REMARK   10  A    between atoms: O_22  and  C_23
REMARK   11  A    between atoms: C_23  and  C_24
REMARK                            x       y       z     vdW  Elec       q    Type
REMARK                         _______ _______ _______ _____ _____    ______ ____
ROOT
ATOM      1  C   UNL     1       6.863   5.484  18.381  0.00  0.00    +0.000 A 
ATOM      2  C   UNL     1       6.835   4.540  17.356  0.00  0.00    +0.000 A 
ATOM      3  C   UNL     1       5.618   4.092  16.848  0.00  0.00    +0.000 A 
ATOM      4  C   UNL     1       4.409   4.602  17.343  0.00  0.00    +0.000 A 
ATOM      5  C   UNL     1       4.384   5.551  18.400  0.00  0.00    +0.000 A 
ATOM      6  C   UNL     1       5.645   5.944  18.908  0.00  0.00    +0.000 A 
ENDROOT
BRANCH   5   7
ATOM      7  C   UNL     1       3.169   6.307  18.856  0.00  0.00    +0.000 A 
ATOM      8  C   UNL     1       2.834   7.513  18.198  0.00  0.00    +0.000 A 
ATOM      9  C   UNL     1       1.917   8.439  18.733  0.00  0.00    +0.000 A 
ATOM     10  C   UNL     1       1.233   8.112  19.905  0.00  0.00    +0.000 A 
ATOM     11  C   UNL     1       1.491   6.906  20.557  0.00  0.00    +0.000 A 
ATOM     12  C   UNL     1       2.455   6.024  20.053  0.00  0.00    +0.000 A 
BRANCH   9  13
ATOM     13  C   UNL     1       1.798   9.824  18.138  0.00  0.00    +0.000 C 
BRANCH  13  14
ATOM     14  C   UNL     1       0.578  10.595  18.540  0.00  0.00    +0.000 C 
ATOM     15  C   UNL     1       0.601  11.627  19.398  0.00  0.00    +0.000 C 
ENDBRANCH  13  14
ENDBRANCH   9  13
BRANCH  12  16
ATOM     16  O   UNL     1       2.797   4.835  20.774  0.00  0.00    +0.000 OA
BRANCH  16  17
ATOM     17  C   UNL     1       2.008   3.691  20.990  0.00  0.00    +0.000 C 
ATOM     18  C   UNL     1       2.889   2.589  21.498  0.00  0.00    +0.000 C 
ATOM     19  O   UNL     1       0.803   3.573  20.806  0.00  0.00    +0.000 OA
ENDBRANCH  16  17
ENDBRANCH  12  16
ENDBRANCH   5   7
BRANCH   1  20
ATOM     20  C   UNL     1       8.169   6.086  18.843  0.00  0.00    +0.000 C 
BRANCH  20  22
ATOM     21  C   UNL     1       7.942   8.215  17.539  0.00  0.00    +0.000 C 
ATOM     22  C   UNL     1       8.267   7.572  18.668  0.00  0.00    +0.000 C 
ENDBRANCH  20  22
ENDBRANCH   1  20
BRANCH   4  23
ATOM     23  O   UNL     1       3.161   4.190  16.771  0.00  0.00    +0.000 OA
BRANCH  23  24
ATOM     24  C   UNL     1       2.184   3.384  17.374  0.00  0.00    +0.000 C 
ATOM     25  C   UNL     1       2.810   2.084  17.788  0.00  0.00    +0.000 C 
ATOM     26  O   UNL     1       1.006   3.653  17.554  0.00  0.00    +0.000 OA
ENDBRANCH  23  24
ENDBRANCH   4  23
TORSDOF 9
ENDMDL
