MODEL 1
REMARK VINA RESULT:      -8.5      0.000      0.000
REMARK  Name = 
REMARK  7 active torsions:
REMARK  status: ('A' for Active; 'I' for Inactive)
REMARK    1  A    between atoms: C_1  and  C_2
REMARK    2  A    between atoms: C_7  and  N_8
REMARK    3  A    between atoms: N_8  and  S_9
REMARK    4  A    between atoms: S_9  and  C_12
REMARK    5  A    between atoms: C_15  and  O_16
REMARK    6  A    between atoms: O_16  and  C_17
REMARK    7  A    between atoms: C_17  and  C_18
REMARK                            x       y       z     vdW  Elec       q    Type
REMARK                         _______ _______ _______ _____ _____    ______ ____
ROOT
ATOM      1  C   UNL     1       6.253   5.682  17.543  0.00  0.00    +0.000 A 
ATOM      2  C   UNL     1       7.152   5.395  18.577  0.00  0.00    +0.000 A 
ATOM      3  C   UNL     1       8.044   6.374  19.003  0.00  0.00    +0.000 A 
ATOM      4  C   UNL     1       8.071   7.626  18.385  0.00  0.00    +0.000 A 
ATOM      5  C   UNL     1       7.168   7.915  17.356  0.00  0.00    +0.000 A 
ATOM      6  C   UNL     1       6.266   6.935  16.922  0.00  0.00    +0.000 A 
ENDROOT
BRANCH   1   7
ATOM      7  S   UNL     1       5.130   4.420  17.013  0.00  0.00    +0.000 S 
ATOM      8  O   UNL     1       5.843   3.530  16.121  0.00  0.00    +0.000 OA
ATOM      9  O   UNL     1       3.905   5.077  16.587  0.00  0.00    +0.000 OA
BRANCH   7  10
ATOM     10  N   UNL     1       4.757   3.612  18.436  0.00  0.00    +0.000 N 
ATOM     11  H   UNL     1       5.404   2.886  18.732  0.00  0.00    +0.000 HD
BRANCH  10  18
ATOM     12  C   UNL     1       2.496   1.790  17.835  0.00  0.00    +0.000 C 
ATOM     13  C   UNL     1       2.425   2.926  18.814  0.00  0.00    +0.000 A 
ATOM     14  C   UNL     1       1.212   3.141  19.492  0.00  0.00    +0.000 A 
ATOM     15  C   UNL     1       1.085   4.163  20.431  0.00  0.00    +0.000 A 
ATOM     16  C   UNL     1       2.170   4.986  20.712  0.00  0.00    +0.000 A 
ATOM     17  C   UNL     1       3.379   4.794  20.038  0.00  0.00    +0.000 A 
ATOM     18  C   UNL     1       3.507   3.782  19.085  0.00  0.00    +0.000 A 
ENDBRANCH  10  18
ENDBRANCH   7  10
ENDBRANCH   1   7
BRANCH   4  19
ATOM     19  O   UNL     1       9.009   8.480  18.887  0.00  0.00    +0.000 OA
BRANCH  19  20
ATOM     20  C   UNL     1       8.818   9.866  18.629  0.00  0.00    +0.000 C 
BRANCH  20  21
ATOM     21  C   UNL     1       9.579  10.769  19.603  0.00  0.00    +0.000 C 
ATOM     22  O   UNL     1       9.238  10.826  20.791  0.00  0.00    +0.000 OA
ATOM     23  N   UNL     1      10.652  11.498  19.101  0.00  0.00    +0.000 N 
ATOM     24  C   UNL     1      11.502  12.251  20.017  0.00  0.00    +0.000 C 
ATOM     25  C   UNL     1      11.521  13.733  19.654  0.00  0.00    +0.000 C 
ATOM     26  C   UNL     1      11.847  13.945  18.175  0.00  0.00    +0.000 C 
ATOM     27  C   UNL     1      10.929  13.109  17.285  0.00  0.00    +0.000 C 
ATOM     28  C   UNL     1      10.985  11.638  17.684  0.00  0.00    +0.000 C 
ENDBRANCH  20  21
ENDBRANCH  19  20
ENDBRANCH   4  19
TORSDOF 6
ENDMDL
MODEL 2
REMARK VINA RESULT:      -8.4      0.889      1.603
REMARK  Name = 
REMARK  7 active torsions:
REMARK  status: ('A' for Active; 'I' for Inactive)
REMARK    1  A    between atoms: C_1  and  C_2
REMARK    2  A    between atoms: C_7  and  N_8
REMARK    3  A    between atoms: N_8  and  S_9
REMARK    4  A    between atoms: S_9  and  C_12
REMARK    5  A    between atoms: C_15  and  O_16
REMARK    6  A    between atoms: O_16  and  C_17
REMARK    7  A    between atoms: C_17  and  C_18
REMARK                            x       y       z     vdW  Elec       q    Type
REMARK                         _______ _______ _______ _____ _____    ______ ____
ROOT
ATOM      1  C   UNL     1       6.000   5.535  17.511  0.00  0.00    +0.000 A 
ATOM      2  C   UNL     1       6.957   5.209  18.478  0.00  0.00    +0.000 A 
ATOM      3  C   UNL     1       7.883   6.168  18.879  0.00  0.00    +0.000 A 
ATOM      4  C   UNL     1       7.882   7.439  18.301  0.00  0.00    +0.000 A 
ATOM      5  C   UNL     1       6.920   7.766  17.339  0.00  0.00    +0.000 A 
ATOM      6  C   UNL     1       5.985   6.807  16.931  0.00  0.00    +0.000 A 
ENDROOT
BRANCH   1   7
ATOM      7  S   UNL     1       4.835   4.298  17.011  0.00  0.00    +0.000 S 
ATOM      8  O   UNL     1       5.027   3.135  17.851  0.00  0.00    +0.000 OA
ATOM      9  O   UNL     1       4.907   4.191  15.563  0.00  0.00    +0.000 OA
BRANCH   7  10
ATOM     10  N   UNL     1       3.352   5.003  17.354  0.00  0.00    +0.000 N 
ATOM     11  H   UNL     1       3.180   5.924  16.957  0.00  0.00    +0.000 HD
BRANCH  10  18
ATOM     12  C   UNL     1       2.743   6.466  19.860  0.00  0.00    +0.000 C 
ATOM     13  C   UNL     1       2.162   5.128  19.504  0.00  0.00    +0.000 A 
ATOM     14  C   UNL     1       1.272   4.529  20.413  0.00  0.00    +0.000 A 
ATOM     15  C   UNL     1       0.679   3.299  20.133  0.00  0.00    +0.000 A 
ATOM     16  C   UNL     1       0.962   2.648  18.937  0.00  0.00    +0.000 A 
ATOM     17  C   UNL     1       1.855   3.223  18.029  0.00  0.00    +0.000 A 
ATOM     18  C   UNL     1       2.464   4.447  18.311  0.00  0.00    +0.000 A 
ENDBRANCH  10  18
ENDBRANCH   7  10
ENDBRANCH   1   7
BRANCH   4  19
ATOM     19  O   UNL     1       8.857   8.270  18.772  0.00  0.00    +0.000 OA
BRANCH  19  20
ATOM     20  C   UNL     1       8.676   9.663  18.545  0.00  0.00    +0.000 C 
BRANCH  20  21
ATOM     21  C   UNL     1       9.421  10.538  19.555  0.00  0.00    +0.000 C 
ATOM     22  O   UNL     1       9.098  10.519  20.750  0.00  0.00    +0.000 OA
ATOM     23  N   UNL     1      10.460  11.330  19.079  0.00  0.00    +0.000 N 
ATOM     24  C   UNL     1      11.298  12.062  20.022  0.00  0.00    +0.000 C 
ATOM     25  C   UNL     1      11.261  13.561  19.741  0.00  0.00    +0.000 C 
ATOM     26  C   UNL     1      11.555  13.864  18.271  0.00  0.00    +0.000 C 
ATOM     27  C   UNL     1      10.652  13.046  17.349  0.00  0.00    +0.000 C 
ATOM     28  C   UNL     1      10.765  11.559  17.666  0.00  0.00    +0.000 C 
ENDBRANCH  20  21
ENDBRANCH  19  20
ENDBRANCH   4  19
TORSDOF 6
ENDMDL
MODEL 3
REMARK VINA RESULT:      -8.3      5.016      7.760
REMARK  Name = 
REMARK  7 active torsions:
REMARK  status: ('A' for Active; 'I' for Inactive)
REMARK    1  A    between atoms: C_1  and  C_2
REMARK    2  A    between atoms: C_7  and  N_8
REMARK    3  A    between atoms: N_8  and  S_9
REMARK    4  A    between atoms: S_9  and  C_12
REMARK    5  A    between atoms: C_15  and  O_16
REMARK    6  A    between atoms: O_16  and  C_17
REMARK    7  A    between atoms: C_17  and  C_18
REMARK                            x       y       z     vdW  Elec       q    Type
REMARK                         _______ _______ _______ _____ _____    ______ ____
ROOT
ATOM      1  C   UNL     1       1.533   7.563  20.402  0.00  0.00    +0.000 A 
ATOM      2  C   UNL     1       1.379   6.299  20.981  0.00  0.00    +0.000 A 
ATOM      3  C   UNL     1       1.839   5.173  20.306  0.00  0.00    +0.000 A 
ATOM      4  C   UNL     1       2.423   5.293  19.043  0.00  0.00    +0.000 A 
ATOM      5  C   UNL     1       2.583   6.558  18.467  0.00  0.00    +0.000 A 
ATOM      6  C   UNL     1       2.123   7.696  19.141  0.00  0.00    +0.000 A 
ENDROOT
BRANCH   1   7
ATOM      7  S   UNL     1       0.934   8.983  21.276  0.00  0.00    +0.000 S 
ATOM      8  O   UNL     1       1.883   9.299  22.322  0.00  0.00    +0.000 OA
ATOM      9  O   UNL     1      -0.466   8.745  21.586  0.00  0.00    +0.000 OA
BRANCH   7  10
ATOM     10  N   UNL     1       0.956  10.191  20.111  0.00  0.00    +0.000 N 
ATOM     11  H   UNL     1       1.828  10.703  20.001  0.00  0.00    +0.000 HD
BRANCH  10  18
ATOM     12  C   UNL     1      -0.668  12.396  21.247  0.00  0.00    +0.000 C 
ATOM     13  C   UNL     1      -1.009  11.665  19.980  0.00  0.00    +0.000 A 
ATOM     14  C   UNL     1      -2.169  12.050  19.286  0.00  0.00    +0.000 A 
ATOM     15  C   UNL     1      -2.531  11.429  18.092  0.00  0.00    +0.000 A 
ATOM     16  C   UNL     1      -1.735  10.415  17.568  0.00  0.00    +0.000 A 
ATOM     17  C   UNL     1      -0.586  10.012  18.253  0.00  0.00    +0.000 A 
ATOM     18  C   UNL     1      -0.228  10.620  19.457  0.00  0.00    +0.000 A 
ENDBRANCH  10  18
ENDBRANCH   7  10
ENDBRANCH   1   7
BRANCH   4  19
ATOM     19  O   UNL     1       2.809   4.108  18.488  0.00  0.00    +0.000 OA
BRANCH  19  20
ATOM     20  C   UNL     1       3.910   4.149  17.589  0.00  0.00    +0.000 C 
BRANCH  20  21
ATOM     21  C   UNL     1       5.263   4.228  18.299  0.00  0.00    +0.000 C 
ATOM     22  O   UNL     1       5.470   3.556  19.317  0.00  0.00    +0.000 OA
ATOM     23  N   UNL     1       6.230   5.065  17.751  0.00  0.00    +0.000 N 
ATOM     24  C   UNL     1       7.582   5.058  18.299  0.00  0.00    +0.000 C 
ATOM     25  C   UNL     1       7.984   6.446  18.787  0.00  0.00    +0.000 C 
ATOM     26  C   UNL     1       7.745   7.510  17.714  0.00  0.00    +0.000 C 
ATOM     27  C   UNL     1       6.315   7.439  17.179  0.00  0.00    +0.000 C 
ATOM     28  C   UNL     1       5.996   6.034  16.680  0.00  0.00    +0.000 C 
ENDBRANCH  20  21
ENDBRANCH  19  20
ENDBRANCH   4  19
TORSDOF 6
ENDMDL
MODEL 4
REMARK VINA RESULT:      -8.2      0.510      1.672
REMARK  Name = 
REMARK  7 active torsions:
REMARK  status: ('A' for Active; 'I' for Inactive)
REMARK    1  A    between atoms: C_1  and  C_2
REMARK    2  A    between atoms: C_7  and  N_8
REMARK    3  A    between atoms: N_8  and  S_9
REMARK    4  A    between atoms: S_9  and  C_12
REMARK    5  A    between atoms: C_15  and  O_16
REMARK    6  A    between atoms: O_16  and  C_17
REMARK    7  A    between atoms: C_17  and  C_18
REMARK                            x       y       z     vdW  Elec       q    Type
REMARK                         _______ _______ _______ _____ _____    ______ ____
ROOT
ATOM      1  C   UNL     1       6.376   5.539  17.469  0.00  0.00    +0.000 A 
ATOM      2  C   UNL     1       6.477   6.825  16.928  0.00  0.00    +0.000 A 
ATOM      3  C   UNL     1       7.404   7.720  17.452  0.00  0.00    +0.000 A 
ATOM      4  C   UNL     1       8.209   7.354  18.533  0.00  0.00    +0.000 A 
ATOM      5  C   UNL     1       8.113   6.066  19.069  0.00  0.00    +0.000 A 
ATOM      6  C   UNL     1       7.183   5.159  18.546  0.00  0.00    +0.000 A 
ENDROOT
BRANCH   1   7
ATOM      7  S   UNL     1       5.185   4.417  16.791  0.00  0.00    +0.000 S 
ATOM      8  O   UNL     1       5.839   3.635  15.763  0.00  0.00    +0.000 OA
ATOM      9  O   UNL     1       3.985   5.182  16.494  0.00  0.00    +0.000 OA
BRANCH   7  10
ATOM     10  N   UNL     1       4.800   3.429  18.091  0.00  0.00    +0.000 N 
ATOM     11  H   UNL     1       5.534   2.813  18.431  0.00  0.00    +0.000 HD
BRANCH  10  18
ATOM     12  C   UNL     1       3.635   5.505  19.860  0.00  0.00    +0.000 C 
ATOM     13  C   UNL     1       2.899   4.278  19.402  0.00  0.00    +0.000 A 
ATOM     14  C   UNL     1       1.574   4.101  19.837  0.00  0.00    +0.000 A 
ATOM     15  C   UNL     1       0.826   2.997  19.431  0.00  0.00    +0.000 A 
ATOM     16  C   UNL     1       1.390   2.053  18.579  0.00  0.00    +0.000 A 
ATOM     17  C   UNL     1       2.710   2.207  18.149  0.00  0.00    +0.000 A 
ATOM     18  C   UNL     1       3.468   3.303  18.565  0.00  0.00    +0.000 A 
ENDBRANCH  10  18
ENDBRANCH   7  10
ENDBRANCH   1   7
BRANCH   4  19
ATOM     19  O   UNL     1       9.057   8.336  18.958  0.00  0.00    +0.000 OA
BRANCH  19  20
ATOM     20  C   UNL     1       8.669   9.678  18.691  0.00  0.00    +0.000 C 
BRANCH  20  21
ATOM     21  C   UNL     1       9.336  10.693  19.622  0.00  0.00    +0.000 C 
ATOM     22  O   UNL     1       8.951  10.810  20.792  0.00  0.00    +0.000 OA
ATOM     23  N   UNL     1      10.379  11.454  19.103  0.00  0.00    +0.000 N 
ATOM     24  C   UNL     1      11.147  12.322  19.990  0.00  0.00    +0.000 C 
ATOM     25  C   UNL     1      11.087  13.773  19.524  0.00  0.00    +0.000 C 
ATOM     26  C   UNL     1      11.452  13.904  18.044  0.00  0.00    +0.000 C 
ATOM     27  C   UNL     1      10.620  12.950  17.187  0.00  0.00    +0.000 C 
ATOM     28  C   UNL     1      10.754  11.518  17.691  0.00  0.00    +0.000 C 
ENDBRANCH  20  21
ENDBRANCH  19  20
ENDBRANCH   4  19
TORSDOF 6
ENDMDL
MODEL 5
REMARK VINA RESULT:      -8.1      5.604      7.834
REMARK  Name = 
REMARK  7 active torsions:
REMARK  status: ('A' for Active; 'I' for Inactive)
REMARK    1  A    between atoms: C_1  and  C_2
REMARK    2  A    between atoms: C_7  and  N_8
REMARK    3  A    between atoms: N_8  and  S_9
REMARK    4  A    between atoms: S_9  and  C_12
REMARK    5  A    between atoms: C_15  and  O_16
REMARK    6  A    between atoms: O_16  and  C_17
REMARK    7  A    between atoms: C_17  and  C_18
REMARK                            x       y       z     vdW  Elec       q    Type
REMARK                         _______ _______ _______ _____ _____    ______ ____
ROOT
ATOM      1  C   UNL     1       4.094   5.838  18.478  0.00  0.00    +0.000 A 
ATOM      2  C   UNL     1       3.429   5.953  19.702  0.00  0.00    +0.000 A 
ATOM      3  C   UNL     1       2.526   6.994  19.899  0.00  0.00    +0.000 A 
ATOM      4  C   UNL     1       2.307   7.941  18.896  0.00  0.00    +0.000 A 
ATOM      5  C   UNL     1       2.968   7.821  17.669  0.00  0.00    +0.000 A 
ATOM      6  C   UNL     1       3.877   6.776  17.463  0.00  0.00    +0.000 A 
ENDROOT
BRANCH   1   7
ATOM      7  S   UNL     1       5.243   4.508  18.250  0.00  0.00    +0.000 S 
ATOM      8  O   UNL     1       6.163   4.514  19.368  0.00  0.00    +0.000 OA
ATOM      9  O   UNL     1       5.729   4.582  16.883  0.00  0.00    +0.000 OA
BRANCH   7  10
ATOM     10  N   UNL     1       4.271   3.142  18.328  0.00  0.00    +0.000 N 
ATOM     11  H   UNL     1       4.361   2.474  17.566  0.00  0.00    +0.000 HD
BRANCH  10  18
ATOM     12  C   UNL     1       1.452   3.644  17.559  0.00  0.00    +0.000 C 
ATOM     13  C   UNL     1       1.891   3.249  18.940  0.00  0.00    +0.000 A 
ATOM     14  C   UNL     1       0.905   3.106  19.932  0.00  0.00    +0.000 A 
ATOM     15  C   UNL     1       1.241   2.719  21.228  0.00  0.00    +0.000 A 
ATOM     16  C   UNL     1       2.569   2.464  21.553  0.00  0.00    +0.000 A 
ATOM     17  C   UNL     1       3.562   2.615  20.582  0.00  0.00    +0.000 A 
ATOM     18  C   UNL     1       3.233   3.017  19.287  0.00  0.00    +0.000 A 
ENDBRANCH  10  18
ENDBRANCH   7  10
ENDBRANCH   1   7
BRANCH   4  19
ATOM     19  O   UNL     1       1.415   8.918  19.232  0.00  0.00    +0.000 OA
BRANCH  19  20
ATOM     20  C   UNL     1       0.811   9.630  18.159  0.00  0.00    +0.000 C 
BRANCH  20  21
ATOM     21  C   UNL     1      -0.075  10.786  18.629  0.00  0.00    +0.000 C 
ATOM     22  O   UNL     1       0.299  11.520  19.552  0.00  0.00    +0.000 OA
ATOM     23  N   UNL     1      -1.289  10.973  17.976  0.00  0.00    +0.000 N 
ATOM     24  C   UNL     1      -2.096  12.150  18.280  0.00  0.00    +0.000 C 
ATOM     25  C   UNL     1      -3.482  11.751  18.777  0.00  0.00    +0.000 C 
ATOM     26  C   UNL     1      -4.153  10.755  17.830  0.00  0.00    +0.000 C 
ATOM     27  C   UNL     1      -3.238   9.565  17.546  0.00  0.00    +0.000 C 
ATOM     28  C   UNL     1      -1.886  10.037  17.024  0.00  0.00    +0.000 C 
ENDBRANCH  20  21
ENDBRANCH  19  20
ENDBRANCH   4  19
TORSDOF 6
ENDMDL
MODEL 6
REMARK VINA RESULT:      -8.1      5.289      7.777
REMARK  Name = 
REMARK  7 active torsions:
REMARK  status: ('A' for Active; 'I' for Inactive)
REMARK    1  A    between atoms: C_1  and  C_2
REMARK    2  A    between atoms: C_7  and  N_8
REMARK    3  A    between atoms: N_8  and  S_9
REMARK    4  A    between atoms: S_9  and  C_12
REMARK    5  A    between atoms: C_15  and  O_16
REMARK    6  A    between atoms: O_16  and  C_17
REMARK    7  A    between atoms: C_17  and  C_18
REMARK                            x       y       z     vdW  Elec       q    Type
REMARK                         _______ _______ _______ _____ _____    ______ ____
ROOT
ATOM      1  C   UNL     1       2.438   4.780  18.818  0.00  0.00    +0.000 A 
ATOM      2  C   UNL     1       2.108   4.780  20.177  0.00  0.00    +0.000 A 
ATOM      3  C   UNL     1       1.890   5.988  20.832  0.00  0.00    +0.000 A 
ATOM      4  C   UNL     1       2.030   7.199  20.150  0.00  0.00    +0.000 A 
ATOM      5  C   UNL     1       2.352   7.198  18.788  0.00  0.00    +0.000 A 
ATOM      6  C   UNL     1       2.572   5.986  18.123  0.00  0.00    +0.000 A 
ENDROOT
BRANCH   1   7
ATOM      7  S   UNL     1       2.717   3.231  18.005  0.00  0.00    +0.000 S 
ATOM      8  O   UNL     1       2.266   3.355  16.635  0.00  0.00    +0.000 OA
ATOM      9  O   UNL     1       2.196   2.185  18.870  0.00  0.00    +0.000 OA
BRANCH   7  10
ATOM     10  N   UNL     1       4.387   3.074  18.038  0.00  0.00    +0.000 N 
ATOM     11  H   UNL     1       4.776   2.474  18.762  0.00  0.00    +0.000 HD
BRANCH  10  18
ATOM     12  C   UNL     1       6.030   5.206  19.282  0.00  0.00    +0.000 C 
ATOM     13  C   UNL     1       6.017   4.903  17.811  0.00  0.00    +0.000 A 
ATOM     14  C   UNL     1       6.836   5.675  16.969  0.00  0.00    +0.000 A 
ATOM     15  C   UNL     1       6.889   5.431  15.597  0.00  0.00    +0.000 A 
ATOM     16  C   UNL     1       6.127   4.407  15.045  0.00  0.00    +0.000 A 
ATOM     17  C   UNL     1       5.299   3.639  15.866  0.00  0.00    +0.000 A 
ATOM     18  C   UNL     1       5.230   3.889  17.238  0.00  0.00    +0.000 A 
ENDBRANCH  10  18
ENDBRANCH   7  10
ENDBRANCH   1   7
BRANCH   4  19
ATOM     19  O   UNL     1       1.808   8.305  20.918  0.00  0.00    +0.000 OA
BRANCH  19  20
ATOM     20  C   UNL     1       0.452   8.667  21.145  0.00  0.00    +0.000 C 
BRANCH  20  21
ATOM     21  C   UNL     1       0.222  10.180  21.128  0.00  0.00    +0.000 C 
ATOM     22  O   UNL     1       0.233  10.821  22.186  0.00  0.00    +0.000 OA
ATOM     23  N   UNL     1       0.016  10.787  19.893  0.00  0.00    +0.000 N 
ATOM     24  C   UNL     1      -0.052  12.242  19.809  0.00  0.00    +0.000 C 
ATOM     25  C   UNL     1      -1.382  12.695  19.214  0.00  0.00    +0.000 C 
ATOM     26  C   UNL     1      -1.685  11.973  17.900  0.00  0.00    +0.000 C 
ATOM     27  C   UNL     1      -1.573  10.458  18.067  0.00  0.00    +0.000 C 
ATOM     28  C   UNL     1      -0.210  10.078  18.634  0.00  0.00    +0.000 C 
ENDBRANCH  20  21
ENDBRANCH  19  20
ENDBRANCH   4  19
TORSDOF 6
ENDMDL
MODEL 7
REMARK VINA RESULT:      -7.9      1.511      2.179
REMARK  Name = 
REMARK  7 active torsions:
REMARK  status: ('A' for Active; 'I' for Inactive)
REMARK    1  A    between atoms: C_1  and  C_2
REMARK    2  A    between atoms: C_7  and  N_8
REMARK    3  A    between atoms: N_8  and  S_9
REMARK    4  A    between atoms: S_9  and  C_12
REMARK    5  A    between atoms: C_15  and  O_16
REMARK    6  A    between atoms: O_16  and  C_17
REMARK    7  A    between atoms: C_17  and  C_18
REMARK                            x       y       z     vdW  Elec       q    Type
REMARK                         _______ _______ _______ _____ _____    ______ ____
ROOT
ATOM      1  C   UNL     1       6.571   6.009  17.948  0.00  0.00    +0.000 A 
ATOM      2  C   UNL     1       6.185   7.066  17.117  0.00  0.00    +0.000 A 
ATOM      3  C   UNL     1       6.912   8.253  17.133  0.00  0.00    +0.000 A 
ATOM      4  C   UNL     1       8.001   8.405  17.995  0.00  0.00    +0.000 A 
ATOM      5  C   UNL     1       8.390   7.345  18.820  0.00  0.00    +0.000 A 
ATOM      6  C   UNL     1       7.664   6.147  18.809  0.00  0.00    +0.000 A 
ENDROOT
BRANCH   1   7
ATOM      7  S   UNL     1       5.628   4.509  17.916  0.00  0.00    +0.000 S 
ATOM      8  O   UNL     1       5.740   3.881  19.215  0.00  0.00    +0.000 OA
ATOM      9  O   UNL     1       5.993   3.791  16.706  0.00  0.00    +0.000 OA
BRANCH   7  10
ATOM     10  N   UNL     1       4.056   5.047  17.683  0.00  0.00    +0.000 N 
ATOM     11  H   UNL     1       3.904   5.698  16.916  0.00  0.00    +0.000 HD
BRANCH  10  18
ATOM     12  C   UNL     1       2.486   2.538  17.509  0.00  0.00    +0.000 C 
ATOM     13  C   UNL     1       2.274   3.593  18.557  0.00  0.00    +0.000 A 
ATOM     14  C   UNL     1       1.271   3.379  19.518  0.00  0.00    +0.000 A 
ATOM     15  C   UNL     1       1.039   4.307  20.533  0.00  0.00    +0.000 A 
ATOM     16  C   UNL     1       1.809   5.463  20.605  0.00  0.00    +0.000 A 
ATOM     17  C   UNL     1       2.801   5.696  19.650  0.00  0.00    +0.000 A 
ATOM     18  C   UNL     1       3.027   4.778  18.623  0.00  0.00    +0.000 A 
ENDBRANCH  10  18
ENDBRANCH   7  10
ENDBRANCH   1   7
BRANCH   4  19
ATOM     19  O   UNL     1       8.607   9.626  17.922  0.00  0.00    +0.000 OA
BRANCH  19  20
ATOM     20  C   UNL     1       9.298  10.069  19.084  0.00  0.00    +0.000 C 
BRANCH  20  21
ATOM     21  C   UNL     1      10.075  11.368  18.863  0.00  0.00    +0.000 C 
ATOM     22  O   UNL     1      11.011  11.402  18.054  0.00  0.00    +0.000 OA
ATOM     23  N   UNL     1       9.681  12.486  19.591  0.00  0.00    +0.000 N 
ATOM     24  C   UNL     1      10.287  13.782  19.304  0.00  0.00    +0.000 C 
ATOM     25  C   UNL     1      10.961  14.359  20.545  0.00  0.00    +0.000 C 
ATOM     26  C   UNL     1      10.018  14.358  21.749  0.00  0.00    +0.000 C 
ATOM     27  C   UNL     1       9.411  12.973  21.970  0.00  0.00    +0.000 C 
ATOM     28  C   UNL     1       8.728  12.476  20.701  0.00  0.00    +0.000 C 
ENDBRANCH  20  21
ENDBRANCH  19  20
ENDBRANCH   4  19
TORSDOF 6
ENDMDL
MODEL 8
REMARK VINA RESULT:      -7.9      4.982      7.603
REMARK  Name = 
REMARK  7 active torsions:
REMARK  status: ('A' for Active; 'I' for Inactive)
REMARK    1  A    between atoms: C_1  and  C_2
REMARK    2  A    between atoms: C_7  and  N_8
REMARK    3  A    between atoms: N_8  and  S_9
REMARK    4  A    between atoms: S_9  and  C_12
REMARK    5  A    between atoms: C_15  and  O_16
REMARK    6  A    between atoms: O_16  and  C_17
REMARK    7  A    between atoms: C_17  and  C_18
REMARK                            x       y       z     vdW  Elec       q    Type
REMARK                         _______ _______ _______ _____ _____    ______ ____
ROOT
ATOM      1  C   UNL     1       2.441   4.647  18.712  0.00  0.00    +0.000 A 
ATOM      2  C   UNL     1       2.535   5.891  18.078  0.00  0.00    +0.000 A 
ATOM      3  C   UNL     1       2.363   7.055  18.821  0.00  0.00    +0.000 A 
ATOM      4  C   UNL     1       2.064   6.989  20.184  0.00  0.00    +0.000 A 
ATOM      5  C   UNL     1       1.977   5.745  20.818  0.00  0.00    +0.000 A 
ATOM      6  C   UNL     1       2.150   4.569  20.078  0.00  0.00    +0.000 A 
ENDROOT
BRANCH   1   7
ATOM      7  S   UNL     1       2.658   3.178  17.747  0.00  0.00    +0.000 S 
ATOM      8  O   UNL     1       2.247   3.468  16.389  0.00  0.00    +0.000 OA
ATOM      9  O   UNL     1       2.063   2.078  18.487  0.00  0.00    +0.000 OA
BRANCH   7  10
ATOM     10  N   UNL     1       4.317   2.928  17.793  0.00  0.00    +0.000 N 
ATOM     11  H   UNL     1       4.632   1.969  17.921  0.00  0.00    +0.000 HD
BRANCH  10  18
ATOM     12  C   UNL     1       5.284   4.223  15.307  0.00  0.00    +0.000 C 
ATOM     13  C   UNL     1       5.701   4.636  16.689  0.00  0.00    +0.000 A 
ATOM     14  C   UNL     1       6.606   5.705  16.816  0.00  0.00    +0.000 A 
ATOM     15  C   UNL     1       7.016   6.155  18.070  0.00  0.00    +0.000 A 
ATOM     16  C   UNL     1       6.525   5.545  19.220  0.00  0.00    +0.000 A 
ATOM     17  C   UNL     1       5.636   4.473  19.111  0.00  0.00    +0.000 A 
ATOM     18  C   UNL     1       5.234   4.010  17.857  0.00  0.00    +0.000 A 
ENDBRANCH  10  18
ENDBRANCH   7  10
ENDBRANCH   1   7
BRANCH   4  19
ATOM     19  O   UNL     1       1.899   8.204  20.782  0.00  0.00    +0.000 OA
BRANCH  19  20
ATOM     20  C   UNL     1       0.563   8.663  20.945  0.00  0.00    +0.000 C 
BRANCH  20  21
ATOM     21  C   UNL     1       0.436  10.186  20.867  0.00  0.00    +0.000 C 
ATOM     22  O   UNL     1       0.605  10.875  21.881  0.00  0.00    +0.000 OA
ATOM     23  N   UNL     1       0.137  10.745  19.629  0.00  0.00    +0.000 N 
ATOM     24  C   UNL     1       0.159  12.196  19.470  0.00  0.00    +0.000 C 
ATOM     25  C   UNL     1      -1.194  12.715  18.995  0.00  0.00    +0.000 C 
ATOM     26  C   UNL     1      -1.687  11.954  17.763  0.00  0.00    +0.000 C 
ATOM     27  C   UNL     1      -1.660  10.445  18.002  0.00  0.00    +0.000 C 
ATOM     28  C   UNL     1      -0.272   9.994  18.442  0.00  0.00    +0.000 C 
ENDBRANCH  20  21
ENDBRANCH  19  20
ENDBRANCH   4  19
TORSDOF 6
ENDMDL
MODEL 9
REMARK VINA RESULT:      -7.9      5.537      7.728
REMARK  Name = 
REMARK  7 active torsions:
REMARK  status: ('A' for Active; 'I' for Inactive)
REMARK    1  A    between atoms: C_1  and  C_2
REMARK    2  A    between atoms: C_7  and  N_8
REMARK    3  A    between atoms: N_8  and  S_9
REMARK    4  A    between atoms: S_9  and  C_12
REMARK    5  A    between atoms: C_15  and  O_16
REMARK    6  A    between atoms: O_16  and  C_17
REMARK    7  A    between atoms: C_17  and  C_18
REMARK                            x       y       z     vdW  Elec       q    Type
REMARK                         _______ _______ _______ _____ _____    ______ ____
ROOT
ATOM      1  C   UNL     1       4.170   5.917  18.414  0.00  0.00    +0.000 A 
ATOM      2  C   UNL     1       4.049   6.791  17.328  0.00  0.00    +0.000 A 
ATOM      3  C   UNL     1       3.160   7.859  17.401  0.00  0.00    +0.000 A 
ATOM      4  C   UNL     1       2.366   8.044  18.536  0.00  0.00    +0.000 A 
ATOM      5  C   UNL     1       2.493   7.174  19.624  0.00  0.00    +0.000 A 
ATOM      6  C   UNL     1       3.387   6.097  19.558  0.00  0.00    +0.000 A 
ENDROOT
BRANCH   1   7
ATOM      7  S   UNL     1       5.304   4.561  18.298  0.00  0.00    +0.000 S 
ATOM      8  O   UNL     1       6.131   4.564  19.486  0.00  0.00    +0.000 OA
ATOM      9  O   UNL     1       5.902   4.606  16.973  0.00  0.00    +0.000 OA
BRANCH   7  10
ATOM     10  N   UNL     1       4.301   3.217  18.312  0.00  0.00    +0.000 N 
ATOM     11  H   UNL     1       4.386   2.574  17.528  0.00  0.00    +0.000 HD
BRANCH  10  18
ATOM     12  C   UNL     1       1.489   3.663  17.482  0.00  0.00    +0.000 C 
ATOM     13  C   UNL     1       1.907   3.288  18.875  0.00  0.00    +0.000 A 
ATOM     14  C   UNL     1       0.904   3.136  19.849  0.00  0.00    +0.000 A 
ATOM     15  C   UNL     1       1.221   2.766  21.155  0.00  0.00    +0.000 A 
ATOM     16  C   UNL     1       2.546   2.537  21.509  0.00  0.00    +0.000 A 
ATOM     17  C   UNL     1       3.556   2.696  20.557  0.00  0.00    +0.000 A 
ATOM     18  C   UNL     1       3.245   3.082  19.252  0.00  0.00    +0.000 A 
ENDBRANCH  10  18
ENDBRANCH   7  10
ENDBRANCH   1   7
BRANCH   4  19
ATOM     19  O   UNL     1       1.525   9.116  18.463  0.00  0.00    +0.000 OA
BRANCH  19  20
ATOM     20  C   UNL     1       0.638   9.309  19.558  0.00  0.00    +0.000 C 
BRANCH  20  21
ATOM     21  C   UNL     1      -0.114  10.641  19.495  0.00  0.00    +0.000 C 
ATOM     22  O   UNL     1       0.095  11.512  20.350  0.00  0.00    +0.000 OA
ATOM     23  N   UNL     1      -1.013  10.825  18.450  0.00  0.00    +0.000 N 
ATOM     24  C   UNL     1      -1.636  12.130  18.258  0.00  0.00    +0.000 C 
ATOM     25  C   UNL     1      -3.156  12.027  18.321  0.00  0.00    +0.000 C 
ATOM     26  C   UNL     1      -3.684  10.934  17.389  0.00  0.00    +0.000 C 
ATOM     27  C   UNL     1      -2.969   9.607  17.639  0.00  0.00    +0.000 C 
ATOM     28  C   UNL     1      -1.458   9.780  17.529  0.00  0.00    +0.000 C 
ENDBRANCH  20  21
ENDBRANCH  19  20
ENDBRANCH   4  19
TORSDOF 6
ENDMDL
