MODEL 1
REMARK VINA RESULT:      -8.3      0.000      0.000
REMARK  Name = 
REMARK  3 active torsions:
REMARK  status: ('A' for Active; 'I' for Inactive)
REMARK    1  A    between atoms: C_1  and  N_2
REMARK    2  A    between atoms: C_14  and  C_15
REMARK    3  A    between atoms: C_15  and  C_17
REMARK                            x       y       z     vdW  Elec       q    Type
REMARK                         _______ _______ _______ _____ _____    ______ ____
ROOT
ATOM      1  C   UNL     1      -1.649  11.668  23.070  0.00  0.00    +0.000 C 
ATOM      2  N   UNL     1      -0.817  10.751  22.273  0.00  0.00    +0.000 N 
ATOM      3  C   UNL     1      -0.280   9.665  22.937  0.00  0.00    +0.000 A 
ATOM      4  C   UNL     1       0.529   8.729  22.285  0.00  0.00    +0.000 A 
ATOM      5  C   UNL     1       0.800   8.950  20.951  0.00  0.00    +0.000 A 
ATOM      6  C   UNL     1       0.283  10.030  20.269  0.00  0.00    +0.000 A 
ATOM      7  N   UNL     1       0.764  10.041  18.998  0.00  0.00    +0.000 N 
ATOM      8  C   UNL     1       1.525   8.940  18.878  0.00  0.00    +0.000 A 
ATOM      9  C   UNL     1       2.203   8.510  17.740  0.00  0.00    +0.000 A 
ATOM     10  C   UNL     1       2.953   7.326  17.832  0.00  0.00    +0.000 A 
ATOM     11  C   UNL     1       3.013   6.610  19.048  0.00  0.00    +0.000 A 
ATOM     12  C   UNL     1       2.320   7.070  20.185  0.00  0.00    +0.000 A 
ATOM     13  C   UNL     1       1.577   8.243  20.059  0.00  0.00    +0.000 A 
ATOM     14  C   UNL     1      -0.585  10.950  20.911  0.00  0.00    +0.000 A 
ATOM     15  H   UNL     1       0.620  10.733  18.236  0.00  0.00    +0.000 HD
ENDROOT
BRANCH  14  16
ATOM     16  C   UNL     1      -1.190  12.113  20.156  0.00  0.00    +0.000 C 
ATOM     17  O   UNL     1      -0.578  13.168  20.105  0.00  0.00    +0.000 OA
BRANCH  16  18
ATOM     18  C   UNL     1      -2.471  12.057  19.396  0.00  0.00    +0.000 A 
ATOM     19  C   UNL     1      -3.657  12.638  19.835  0.00  0.00    +0.000 A 
ATOM     20  N   UNL     1      -4.627  12.496  18.903  0.00  0.00    +0.000 N 
ATOM     21  C   UNL     1      -4.082  11.805  17.888  0.00  0.00    +0.000 A 
ATOM     22  C   UNL     1      -4.704  11.438  16.696  0.00  0.00    +0.000 A 
ATOM     23  C   UNL     1      -3.953  10.705  15.761  0.00  0.00    +0.000 A 
ATOM     24  C   UNL     1      -2.618  10.347  16.042  0.00  0.00    +0.000 A 
ATOM     25  C   UNL     1      -2.013  10.737  17.251  0.00  0.00    +0.000 A 
ATOM     26  C   UNL     1      -2.772  11.488  18.156  0.00  0.00    +0.000 A 
ATOM     27  H   UNL     1      -5.602  12.863  18.962  0.00  0.00    +0.000 HD
ENDBRANCH  16  18
ENDBRANCH  14  16
TORSDOF 2
ENDMDL
MODEL 2
REMARK VINA RESULT:      -7.8      4.781      9.041
REMARK  Name = 
REMARK  3 active torsions:
REMARK  status: ('A' for Active; 'I' for Inactive)
REMARK    1  A    between atoms: C_1  and  N_2
REMARK    2  A    between atoms: C_14  and  C_15
REMARK    3  A    between atoms: C_15  and  C_17
REMARK                            x       y       z     vdW  Elec       q    Type
REMARK                         _______ _______ _______ _____ _____    ______ ____
ROOT
ATOM      1  C   UNL     1       3.916   2.208  19.378  0.00  0.00    +0.000 C 
ATOM      2  N   UNL     1       3.422   3.592  19.468  0.00  0.00    +0.000 N 
ATOM      3  C   UNL     1       2.956   4.006  20.702  0.00  0.00    +0.000 A 
ATOM      4  C   UNL     1       2.459   5.296  20.907  0.00  0.00    +0.000 A 
ATOM      5  C   UNL     1       2.419   6.138  19.815  0.00  0.00    +0.000 A 
ATOM      6  C   UNL     1       2.869   5.746  18.572  0.00  0.00    +0.000 A 
ATOM      7  N   UNL     1       2.649   6.739  17.672  0.00  0.00    +0.000 N 
ATOM      8  C   UNL     1       2.122   7.762  18.367  0.00  0.00    +0.000 A 
ATOM      9  C   UNL     1       1.761   9.013  17.872  0.00  0.00    +0.000 A 
ATOM     10  C   UNL     1       1.217   9.942  18.775  0.00  0.00    +0.000 A 
ATOM     11  C   UNL     1       1.043   9.601  20.134  0.00  0.00    +0.000 A 
ATOM     12  C   UNL     1       1.415   8.328  20.607  0.00  0.00    +0.000 A 
ATOM     13  C   UNL     1       1.960   7.431  19.688  0.00  0.00    +0.000 A 
ATOM     14  C   UNL     1       3.428   4.457  18.373  0.00  0.00    +0.000 A 
ATOM     15  H   UNL     1       2.819   6.761  16.647  0.00  0.00    +0.000 HD
ENDROOT
BRANCH  14  16
ATOM     16  C   UNL     1       3.964   4.037  17.022  0.00  0.00    +0.000 C 
ATOM     17  O   UNL     1       3.344   3.211  16.371  0.00  0.00    +0.000 OA
BRANCH  16  18
ATOM     18  C   UNL     1       5.179   4.609  16.375  0.00  0.00    +0.000 A 
ATOM     19  C   UNL     1       6.086   5.437  17.028  0.00  0.00    +0.000 A 
ATOM     20  N   UNL     1       7.127   5.732  16.217  0.00  0.00    +0.000 N 
ATOM     21  C   UNL     1       6.879   5.128  15.044  0.00  0.00    +0.000 A 
ATOM     22  C   UNL     1       7.688   5.139  13.909  0.00  0.00    +0.000 A 
ATOM     23  C   UNL     1       7.237   4.444  12.773  0.00  0.00    +0.000 A 
ATOM     24  C   UNL     1       5.995   3.775  12.793  0.00  0.00    +0.000 A 
ATOM     25  C   UNL     1       5.202   3.775  13.954  0.00  0.00    +0.000 A 
ATOM     26  C   UNL     1       5.683   4.453  15.081  0.00  0.00    +0.000 A 
ATOM     27  H   UNL     1       7.962   6.308  16.463  0.00  0.00    +0.000 HD
ENDBRANCH  16  18
ENDBRANCH  14  16
TORSDOF 2
ENDMDL
MODEL 3
REMARK VINA RESULT:      -7.8      4.740      8.795
REMARK  Name = 
REMARK  3 active torsions:
REMARK  status: ('A' for Active; 'I' for Inactive)
REMARK    1  A    between atoms: C_1  and  N_2
REMARK    2  A    between atoms: C_14  and  C_15
REMARK    3  A    between atoms: C_15  and  C_17
REMARK                            x       y       z     vdW  Elec       q    Type
REMARK                         _______ _______ _______ _____ _____    ______ ____
ROOT
ATOM      1  C   UNL     1       3.292   1.782  19.180  0.00  0.00    +0.000 C 
ATOM      2  N   UNL     1       2.835   3.132  19.548  0.00  0.00    +0.000 N 
ATOM      3  C   UNL     1       2.185   3.259  20.761  0.00  0.00    +0.000 A 
ATOM      4  C   UNL     1       1.703   4.490  21.214  0.00  0.00    +0.000 A 
ATOM      5  C   UNL     1       1.874   5.578  20.384  0.00  0.00    +0.000 A 
ATOM      6  C   UNL     1       2.511   5.477  19.166  0.00  0.00    +0.000 A 
ATOM      7  N   UNL     1       2.478   6.677  18.530  0.00  0.00    +0.000 N 
ATOM      8  C   UNL     1       1.876   7.530  19.377  0.00  0.00    +0.000 A 
ATOM      9  C   UNL     1       1.644   8.888  19.173  0.00  0.00    +0.000 A 
ATOM     10  C   UNL     1       0.989   9.601  20.192  0.00  0.00    +0.000 A 
ATOM     11  C   UNL     1       0.580   8.945  21.374  0.00  0.00    +0.000 A 
ATOM     12  C   UNL     1       0.825   7.570  21.552  0.00  0.00    +0.000 A 
ATOM     13  C   UNL     1       1.486   6.893  20.527  0.00  0.00    +0.000 A 
ATOM     14  C   UNL     1       3.053   4.241  18.729  0.00  0.00    +0.000 A 
ATOM     15  H   UNL     1       2.816   6.941  17.585  0.00  0.00    +0.000 HD
ENDROOT
BRANCH  14  16
ATOM     16  C   UNL     1       3.792   4.132  17.412  0.00  0.00    +0.000 C 
ATOM     17  O   UNL     1       3.417   3.312  16.590  0.00  0.00    +0.000 OA
BRANCH  16  18
ATOM     18  C   UNL     1       4.924   5.009  17.000  0.00  0.00    +0.000 A 
ATOM     19  C   UNL     1       5.076   5.526  15.718  0.00  0.00    +0.000 A 
ATOM     20  N   UNL     1       6.147   6.349  15.663  0.00  0.00    +0.000 N 
ATOM     21  C   UNL     1       6.699   6.339  16.887  0.00  0.00    +0.000 A 
ATOM     22  C   UNL     1       7.818   7.056  17.308  0.00  0.00    +0.000 A 
ATOM     23  C   UNL     1       8.239   6.897  18.640  0.00  0.00    +0.000 A 
ATOM     24  C   UNL     1       7.550   6.022  19.505  0.00  0.00    +0.000 A 
ATOM     25  C   UNL     1       6.420   5.315  19.056  0.00  0.00    +0.000 A 
ATOM     26  C   UNL     1       6.004   5.509  17.734  0.00  0.00    +0.000 A 
ATOM     27  H   UNL     1       6.471   6.892  14.833  0.00  0.00    +0.000 HD
ENDBRANCH  16  18
ENDBRANCH  14  16
TORSDOF 2
ENDMDL
MODEL 4
REMARK VINA RESULT:      -7.6      0.993      1.984
REMARK  Name = 
REMARK  3 active torsions:
REMARK  status: ('A' for Active; 'I' for Inactive)
REMARK    1  A    between atoms: C_1  and  N_2
REMARK    2  A    between atoms: C_14  and  C_15
REMARK    3  A    between atoms: C_15  and  C_17
REMARK                            x       y       z     vdW  Elec       q    Type
REMARK                         _______ _______ _______ _____ _____    ______ ____
ROOT
ATOM      1  C   UNL     1      -1.749  11.801  23.071  0.00  0.00    +0.000 C 
ATOM      2  N   UNL     1      -0.921  10.869  22.287  0.00  0.00    +0.000 N 
ATOM      3  C   UNL     1      -0.398   9.784  22.963  0.00  0.00    +0.000 A 
ATOM      4  C   UNL     1       0.406   8.835  22.324  0.00  0.00    +0.000 A 
ATOM      5  C   UNL     1       0.686   9.042  20.990  0.00  0.00    +0.000 A 
ATOM      6  C   UNL     1       0.183  10.121  20.295  0.00  0.00    +0.000 A 
ATOM      7  N   UNL     1       0.671  10.116  19.027  0.00  0.00    +0.000 N 
ATOM      8  C   UNL     1       1.422   9.007  18.921  0.00  0.00    +0.000 A 
ATOM      9  C   UNL     1       2.102   8.560  17.790  0.00  0.00    +0.000 A 
ATOM     10  C   UNL     1       2.841   7.370  17.897  0.00  0.00    +0.000 A 
ATOM     11  C   UNL     1       2.888   6.665  19.120  0.00  0.00    +0.000 A 
ATOM     12  C   UNL     1       2.193   7.141  20.249  0.00  0.00    +0.000 A 
ATOM     13  C   UNL     1       1.461   8.320  20.108  0.00  0.00    +0.000 A 
ATOM     14  C   UNL     1      -0.680  11.054  20.925  0.00  0.00    +0.000 A 
ATOM     15  H   UNL     1       0.538  10.802  18.259  0.00  0.00    +0.000 HD
ENDROOT
BRANCH  14  16
ATOM     16  C   UNL     1      -1.270  12.216  20.156  0.00  0.00    +0.000 C 
ATOM     17  O   UNL     1      -0.734  13.310  20.235  0.00  0.00    +0.000 OA
BRANCH  16  18
ATOM     18  C   UNL     1      -2.440  12.120  19.238  0.00  0.00    +0.000 A 
ATOM     19  C   UNL     1      -2.338  11.831  17.881  0.00  0.00    +0.000 A 
ATOM     20  N   UNL     1      -3.565  11.728  17.324  0.00  0.00    +0.000 N 
ATOM     21  C   UNL     1      -4.450  11.979  18.303  0.00  0.00    +0.000 A 
ATOM     22  C   UNL     1      -5.840  11.969  18.200  0.00  0.00    +0.000 A 
ATOM     23  C   UNL     1      -6.588  12.268  19.351  0.00  0.00    +0.000 A 
ATOM     24  C   UNL     1      -5.937  12.583  20.562  0.00  0.00    +0.000 A 
ATOM     25  C   UNL     1      -4.532  12.581  20.640  0.00  0.00    +0.000 A 
ATOM     26  C   UNL     1      -3.808  12.254  19.487  0.00  0.00    +0.000 A 
ATOM     27  H   UNL     1      -3.779  11.490  16.331  0.00  0.00    +0.000 HD
ENDBRANCH  16  18
ENDBRANCH  14  16
TORSDOF 2
ENDMDL
MODEL 5
REMARK VINA RESULT:      -7.6      1.978      7.226
REMARK  Name = 
REMARK  3 active torsions:
REMARK  status: ('A' for Active; 'I' for Inactive)
REMARK    1  A    between atoms: C_1  and  N_2
REMARK    2  A    between atoms: C_14  and  C_15
REMARK    3  A    between atoms: C_15  and  C_17
REMARK                            x       y       z     vdW  Elec       q    Type
REMARK                         _______ _______ _______ _____ _____    ______ ____
ROOT
ATOM      1  C   UNL     1      -2.574  10.947  15.957  0.00  0.00    +0.000 C 
ATOM      2  N   UNL     1      -3.428  11.281  17.109  0.00  0.00    +0.000 N 
ATOM      3  C   UNL     1      -4.790  11.119  16.940  0.00  0.00    +0.000 A 
ATOM      4  C   UNL     1      -5.699  11.408  17.962  0.00  0.00    +0.000 A 
ATOM      5  C   UNL     1      -5.184  11.897  19.144  0.00  0.00    +0.000 A 
ATOM      6  C   UNL     1      -3.831  12.076  19.334  0.00  0.00    +0.000 A 
ATOM      7  N   UNL     1      -3.610  12.631  20.554  0.00  0.00    +0.000 N 
ATOM      8  C   UNL     1      -4.816  12.738  21.139  0.00  0.00    +0.000 A 
ATOM      9  C   UNL     1      -5.088  13.225  22.415  0.00  0.00    +0.000 A 
ATOM     10  C   UNL     1      -6.429  13.257  22.832  0.00  0.00    +0.000 A 
ATOM     11  C   UNL     1      -7.456  12.815  21.970  0.00  0.00    +0.000 A 
ATOM     12  C   UNL     1      -7.153  12.330  20.683  0.00  0.00    +0.000 A 
ATOM     13  C   UNL     1      -5.811  12.302  20.302  0.00  0.00    +0.000 A 
ATOM     14  C   UNL     1      -2.901  11.728  18.321  0.00  0.00    +0.000 A 
ATOM     15  H   UNL     1      -2.722  12.942  20.995  0.00  0.00    +0.000 HD
ENDROOT
BRANCH  14  16
ATOM     16  C   UNL     1      -1.411  11.882  18.540  0.00  0.00    +0.000 C 
ATOM     17  O   UNL     1      -0.878  12.942  18.255  0.00  0.00    +0.000 OA
BRANCH  16  18
ATOM     18  C   UNL     1      -0.532  10.844  19.150  0.00  0.00    +0.000 A 
ATOM     19  C   UNL     1       0.341  10.044  18.420  0.00  0.00    +0.000 A 
ATOM     20  N   UNL     1       1.065   9.256  19.247  0.00  0.00    +0.000 N 
ATOM     21  C   UNL     1       0.641   9.522  20.494  0.00  0.00    +0.000 A 
ATOM     22  C   UNL     1       1.115   8.958  21.677  0.00  0.00    +0.000 A 
ATOM     23  C   UNL     1       0.526   9.372  22.885  0.00  0.00    +0.000 A 
ATOM     24  C   UNL     1      -0.521  10.316  22.880  0.00  0.00    +0.000 A 
ATOM     25  C   UNL     1      -0.976  10.874  21.671  0.00  0.00    +0.000 A 
ATOM     26  C   UNL     1      -0.357  10.466  20.483  0.00  0.00    +0.000 A 
ATOM     27  H   UNL     1       1.811   8.583  18.968  0.00  0.00    +0.000 HD
ENDBRANCH  16  18
ENDBRANCH  14  16
TORSDOF 2
ENDMDL
MODEL 6
REMARK VINA RESULT:      -7.5      1.499      2.211
REMARK  Name = 
REMARK  3 active torsions:
REMARK  status: ('A' for Active; 'I' for Inactive)
REMARK    1  A    between atoms: C_1  and  N_2
REMARK    2  A    between atoms: C_14  and  C_15
REMARK    3  A    between atoms: C_15  and  C_17
REMARK                            x       y       z     vdW  Elec       q    Type
REMARK                         _______ _______ _______ _____ _____    ______ ____
ROOT
ATOM      1  C   UNL     1      -0.386  10.056  21.689  0.00  0.00    +0.000 C 
ATOM      2  N   UNL     1       0.491   9.157  20.922  0.00  0.00    +0.000 N 
ATOM      3  C   UNL     1       0.795   7.941  21.504  0.00  0.00    +0.000 A 
ATOM      4  C   UNL     1       1.622   7.007  20.871  0.00  0.00    +0.000 A 
ATOM      5  C   UNL     1       2.154   7.362  19.649  0.00  0.00    +0.000 A 
ATOM      6  C   UNL     1       1.873   8.572  19.052  0.00  0.00    +0.000 A 
ATOM      7  N   UNL     1       2.580   8.687  17.897  0.00  0.00    +0.000 N 
ATOM      8  C   UNL     1       3.246   7.529  17.751  0.00  0.00    +0.000 A 
ATOM      9  C   UNL     1       4.081   7.171  16.695  0.00  0.00    +0.000 A 
ATOM     10  C   UNL     1       4.690   5.905  16.742  0.00  0.00    +0.000 A 
ATOM     11  C   UNL     1       4.458   5.040  17.835  0.00  0.00    +0.000 A 
ATOM     12  C   UNL     1       3.611   5.430  18.890  0.00  0.00    +0.000 A 
ATOM     13  C   UNL     1       3.015   6.688  18.810  0.00  0.00    +0.000 A 
ATOM     14  C   UNL     1       0.989   9.498  19.663  0.00  0.00    +0.000 A 
ATOM     15  H   UNL     1       2.644   9.481  17.231  0.00  0.00    +0.000 HD
ENDROOT
BRANCH  14  16
ATOM     16  C   UNL     1       0.643  10.809  18.992  0.00  0.00    +0.000 C 
ATOM     17  O   UNL     1       1.546  11.521  18.584  0.00  0.00    +0.000 OA
BRANCH  16  18
ATOM     18  C   UNL     1      -0.744  11.285  18.723  0.00  0.00    +0.000 A 
ATOM     19  C   UNL     1      -1.336  12.356  19.383  0.00  0.00    +0.000 A 
ATOM     20  N   UNL     1      -2.563  12.607  18.874  0.00  0.00    +0.000 N 
ATOM     21  C   UNL     1      -2.774  11.688  17.917  0.00  0.00    +0.000 A 
ATOM     22  C   UNL     1      -3.900  11.567  17.105  0.00  0.00    +0.000 A 
ATOM     23  C   UNL     1      -3.924  10.523  16.164  0.00  0.00    +0.000 A 
ATOM     24  C   UNL     1      -2.840   9.626  16.067  0.00  0.00    +0.000 A 
ATOM     25  C   UNL     1      -1.712   9.776  16.895  0.00  0.00    +0.000 A 
ATOM     26  C   UNL     1      -1.700  10.837  17.808  0.00  0.00    +0.000 A 
ATOM     27  H   UNL     1      -3.212  13.371  19.163  0.00  0.00    +0.000 HD
ENDBRANCH  16  18
ENDBRANCH  14  16
TORSDOF 2
ENDMDL
MODEL 7
REMARK VINA RESULT:      -7.5      2.693      5.376
REMARK  Name = 
REMARK  3 active torsions:
REMARK  status: ('A' for Active; 'I' for Inactive)
REMARK    1  A    between atoms: C_1  and  N_2
REMARK    2  A    between atoms: C_14  and  C_15
REMARK    3  A    between atoms: C_15  and  C_17
REMARK                            x       y       z     vdW  Elec       q    Type
REMARK                         _______ _______ _______ _____ _____    ______ ____
ROOT
ATOM      1  C   UNL     1      -0.444  12.553  22.526  0.00  0.00    +0.000 C 
ATOM      2  N   UNL     1      -0.948  12.033  21.244  0.00  0.00    +0.000 N 
ATOM      3  C   UNL     1      -0.203  11.036  20.643  0.00  0.00    +0.000 A 
ATOM      4  C   UNL     1      -0.581  10.468  19.423  0.00  0.00    +0.000 A 
ATOM      5  C   UNL     1      -1.717  10.967  18.819  0.00  0.00    +0.000 A 
ATOM      6  C   UNL     1      -2.471  11.966  19.394  0.00  0.00    +0.000 A 
ATOM      7  N   UNL     1      -3.486  12.312  18.559  0.00  0.00    +0.000 N 
ATOM      8  C   UNL     1      -3.394  11.487  17.501  0.00  0.00    +0.000 A 
ATOM      9  C   UNL     1      -4.242  11.444  16.397  0.00  0.00    +0.000 A 
ATOM     10  C   UNL     1      -3.961  10.503  15.392  0.00  0.00    +0.000 A 
ATOM     11  C   UNL     1      -2.848   9.642  15.509  0.00  0.00    +0.000 A 
ATOM     12  C   UNL     1      -2.005   9.709  16.636  0.00  0.00    +0.000 A 
ATOM     13  C   UNL     1      -2.316  10.647  17.621  0.00  0.00    +0.000 A 
ATOM     14  C   UNL     1      -2.124  12.505  20.660  0.00  0.00    +0.000 A 
ATOM     15  H   UNL     1      -4.205  13.055  18.654  0.00  0.00    +0.000 HD
ENDROOT
BRANCH  14  16
ATOM     16  C   UNL     1      -2.973  13.572  21.316  0.00  0.00    +0.000 C 
ATOM     17  O   UNL     1      -2.934  14.711  20.878  0.00  0.00    +0.000 OA
BRANCH  16  18
ATOM     18  C   UNL     1      -3.925  13.329  22.437  0.00  0.00    +0.000 A 
ATOM     19  C   UNL     1      -3.594  13.481  23.779  0.00  0.00    +0.000 A 
ATOM     20  N   UNL     1      -4.678  13.272  24.561  0.00  0.00    +0.000 N 
ATOM     21  C   UNL     1      -5.689  12.959  23.734  0.00  0.00    +0.000 A 
ATOM     22  C   UNL     1      -7.007  12.679  24.091  0.00  0.00    +0.000 A 
ATOM     23  C   UNL     1      -7.914  12.365  23.065  0.00  0.00    +0.000 A 
ATOM     24  C   UNL     1      -7.485  12.323  21.722  0.00  0.00    +0.000 A 
ATOM     25  C   UNL     1      -6.150  12.617  21.389  0.00  0.00    +0.000 A 
ATOM     26  C   UNL     1      -5.270  12.951  22.425  0.00  0.00    +0.000 A 
ATOM     27  H   UNL     1      -4.718  13.351  25.600  0.00  0.00    +0.000 HD
ENDBRANCH  16  18
ENDBRANCH  14  16
TORSDOF 2
ENDMDL
MODEL 8
REMARK VINA RESULT:      -7.5      3.767      6.859
REMARK  Name = 
REMARK  3 active torsions:
REMARK  status: ('A' for Active; 'I' for Inactive)
REMARK    1  A    between atoms: C_1  and  N_2
REMARK    2  A    between atoms: C_14  and  C_15
REMARK    3  A    between atoms: C_15  and  C_17
REMARK                            x       y       z     vdW  Elec       q    Type
REMARK                         _______ _______ _______ _____ _____    ______ ____
ROOT
ATOM      1  C   UNL     1       0.589   3.530  20.001  0.00  0.00    +0.000 C 
ATOM      2  N   UNL     1       1.709   3.713  19.063  0.00  0.00    +0.000 N 
ATOM      3  C   UNL     1       1.904   2.716  18.126  0.00  0.00    +0.000 A 
ATOM      4  C   UNL     1       2.938   2.778  17.187  0.00  0.00    +0.000 A 
ATOM      5  C   UNL     1       3.783   3.866  17.251  0.00  0.00    +0.000 A 
ATOM      6  C   UNL     1       3.615   4.869  18.181  0.00  0.00    +0.000 A 
ATOM      7  N   UNL     1       4.622   5.774  18.065  0.00  0.00    +0.000 N 
ATOM      8  C   UNL     1       5.374   5.364  17.029  0.00  0.00    +0.000 A 
ATOM      9  C   UNL     1       6.504   5.993  16.513  0.00  0.00    +0.000 A 
ATOM     10  C   UNL     1       7.151   5.388  15.422  0.00  0.00    +0.000 A 
ATOM     11  C   UNL     1       6.662   4.177  14.883  0.00  0.00    +0.000 A 
ATOM     12  C   UNL     1       5.519   3.560  15.427  0.00  0.00    +0.000 A 
ATOM     13  C   UNL     1       4.894   4.191  16.504  0.00  0.00    +0.000 A 
ATOM     14  C   UNL     1       2.533   4.839  19.098  0.00  0.00    +0.000 A 
ATOM     15  H   UNL     1       4.830   6.618  18.634  0.00  0.00    +0.000 HD
ENDROOT
BRANCH  14  16
ATOM     16  C   UNL     1       2.319   5.959  20.093  0.00  0.00    +0.000 C 
ATOM     17  O   UNL     1       2.509   5.741  21.279  0.00  0.00    +0.000 OA
BRANCH  16  18
ATOM     18  C   UNL     1       1.949   7.356  19.730  0.00  0.00    +0.000 A 
ATOM     19  C   UNL     1       2.145   7.906  18.468  0.00  0.00    +0.000 A 
ATOM     20  N   UNL     1       1.639   9.159  18.412  0.00  0.00    +0.000 N 
ATOM     21  C   UNL     1       1.150   9.426  19.634  0.00  0.00    +0.000 A 
ATOM     22  C   UNL     1       0.513  10.597  20.044  0.00  0.00    +0.000 A 
ATOM     23  C   UNL     1       0.079  10.678  21.378  0.00  0.00    +0.000 A 
ATOM     24  C   UNL     1       0.302   9.604  22.266  0.00  0.00    +0.000 A 
ATOM     25  C   UNL     1       0.941   8.432  21.824  0.00  0.00    +0.000 A 
ATOM     26  C   UNL     1       1.342   8.364  20.485  0.00  0.00    +0.000 A 
ATOM     27  H   UNL     1       1.625   9.786  17.579  0.00  0.00    +0.000 HD
ENDBRANCH  16  18
ENDBRANCH  14  16
TORSDOF 2
ENDMDL
MODEL 9
REMARK VINA RESULT:      -7.5      4.564      8.858
REMARK  Name = 
REMARK  3 active torsions:
REMARK  status: ('A' for Active; 'I' for Inactive)
REMARK    1  A    between atoms: C_1  and  N_2
REMARK    2  A    between atoms: C_14  and  C_15
REMARK    3  A    between atoms: C_15  and  C_17
REMARK                            x       y       z     vdW  Elec       q    Type
REMARK                         _______ _______ _______ _____ _____    ______ ____
ROOT
ATOM      1  C   UNL     1       2.346   2.421  19.945  0.00  0.00    +0.000 C 
ATOM      2  N   UNL     1       2.166   3.881  19.895  0.00  0.00    +0.000 N 
ATOM      3  C   UNL     1       1.649   4.482  21.026  0.00  0.00    +0.000 A 
ATOM      4  C   UNL     1       1.430   5.861  21.094  0.00  0.00    +0.000 A 
ATOM      5  C   UNL     1       1.720   6.602  19.967  0.00  0.00    +0.000 A 
ATOM      6  C   UNL     1       2.228   6.025  18.823  0.00  0.00    +0.000 A 
ATOM      7  N   UNL     1       2.354   6.967  17.853  0.00  0.00    +0.000 N 
ATOM      8  C   UNL     1       1.983   8.131  18.413  0.00  0.00    +0.000 A 
ATOM      9  C   UNL     1       1.977   9.387  17.810  0.00  0.00    +0.000 A 
ATOM     10  C   UNL     1       1.543  10.480  18.579  0.00  0.00    +0.000 A 
ATOM     11  C   UNL     1       1.123  10.294  19.914  0.00  0.00    +0.000 A 
ATOM     12  C   UNL     1       1.137   9.012  20.498  0.00  0.00    +0.000 A 
ATOM     13  C   UNL     1       1.582   7.949  19.712  0.00  0.00    +0.000 A 
ATOM     14  C   UNL     1       2.507   4.635  18.771  0.00  0.00    +0.000 A 
ATOM     15  H   UNL     1       2.655   6.870  16.863  0.00  0.00    +0.000 HD
ENDROOT
BRANCH  14  16
ATOM     16  C   UNL     1       3.105   4.003  17.532  0.00  0.00    +0.000 C 
ATOM     17  O   UNL     1       2.363   3.470  16.723  0.00  0.00    +0.000 OA
BRANCH  16  18
ATOM     18  C   UNL     1       4.552   4.036  17.178  0.00  0.00    +0.000 A 
ATOM     19  C   UNL     1       5.066   3.556  15.978  0.00  0.00    +0.000 A 
ATOM     20  N   UNL     1       6.395   3.793  15.902  0.00  0.00    +0.000 N 
ATOM     21  C   UNL     1       6.741   4.391  17.054  0.00  0.00    +0.000 A 
ATOM     22  C   UNL     1       8.010   4.838  17.418  0.00  0.00    +0.000 A 
ATOM     23  C   UNL     1       8.161   5.435  18.682  0.00  0.00    +0.000 A 
ATOM     24  C   UNL     1       7.055   5.556  19.549  0.00  0.00    +0.000 A 
ATOM     25  C   UNL     1       5.783   5.103  19.153  0.00  0.00    +0.000 A 
ATOM     26  C   UNL     1       5.652   4.535  17.881  0.00  0.00    +0.000 A 
ATOM     27  H   UNL     1       7.022   3.565  15.101  0.00  0.00    +0.000 HD
ENDBRANCH  16  18
ENDBRANCH  14  16
TORSDOF 2
ENDMDL
