MODEL 1
REMARK VINA RESULT:      -8.2      0.000      0.000
REMARK  Name = 
REMARK  11 active torsions:
REMARK  status: ('A' for Active; 'I' for Inactive)
REMARK    1  A    between atoms: C_1  and  O_2
REMARK    2  A    between atoms: O_2  and  C_3
REMARK    3  A    between atoms: C_3  and  C_5
REMARK    4  A    between atoms: C_5  and  C_6
REMARK    5  A    between atoms: C_5  and  C_23
REMARK    6  A    between atoms: C_5  and  C_29
REMARK    7  A    between atoms: C_6  and  C_7
REMARK    8  A    between atoms: C_7  and  C_8
REMARK    9  A    between atoms: C_8  and  N_9
REMARK   10  A    between atoms: C_12  and  O_13
REMARK   11  A    between atoms: C_12  and  C_14
REMARK                            x       y       z     vdW  Elec       q    Type
REMARK                         _______ _______ _______ _____ _____    ______ ____
ROOT
ATOM      1  C   UNL     1       4.228   6.856  18.367  0.00  0.00    +0.000 C 
ENDROOT
BRANCH   1   2
ATOM      2  C   UNL     1       4.455   5.292  18.250  0.00  0.00    +0.000 C 
BRANCH   2   3
ATOM      3  C   UNL     1       4.940   4.968  16.791  0.00  0.00    +0.000 A 
ATOM      4  C   UNL     1       5.016   5.943  15.775  0.00  0.00    +0.000 A 
ATOM      5  C   UNL     1       5.469   5.631  14.487  0.00  0.00    +0.000 A 
ATOM      6  C   UNL     1       5.830   4.327  14.170  0.00  0.00    +0.000 A 
ATOM      7  C   UNL     1       5.732   3.334  15.142  0.00  0.00    +0.000 A 
ATOM      8  C   UNL     1       5.295   3.648  16.434  0.00  0.00    +0.000 A 
ENDBRANCH   2   3
BRANCH   2   9
ATOM      9  C   UNL     1       3.135   4.544  18.609  0.00  0.00    +0.000 A 
ATOM     10  C   UNL     1       2.632   4.524  19.926  0.00  0.00    +0.000 A 
ATOM     11  C   UNL     1       1.498   3.780  20.256  0.00  0.00    +0.000 A 
ATOM     12  C   UNL     1       0.848   3.029  19.285  0.00  0.00    +0.000 A 
ATOM     13  C   UNL     1       1.329   3.023  17.980  0.00  0.00    +0.000 A 
ATOM     14  C   UNL     1       2.462   3.766  17.645  0.00  0.00    +0.000 A 
ENDBRANCH   2   9
BRANCH   2  15
ATOM     15  C   UNL     1       5.501   4.877  19.339  0.00  0.00    +0.000 C 
ATOM     16  O   UNL     1       5.577   3.771  19.866  0.00  0.00    +0.000 OA
BRANCH  15  18
ATOM     17  C   UNL     1       7.686   5.732  19.222  0.00  0.00    +0.000 C 
ATOM     18  O   UNL     1       6.339   5.912  19.659  0.00  0.00    +0.000 OA
ENDBRANCH  15  18
ENDBRANCH   2  15
ENDBRANCH   1   2
BRANCH   1  19
ATOM     19  C   UNL     1       2.759   7.245  18.476  0.00  0.00    +0.000 C 
BRANCH  19  20
ATOM     20  C   UNL     1       2.355   8.520  17.726  0.00  0.00    +0.000 C 
BRANCH  20  21
ATOM     21  N   UNL     1       1.403   9.283  18.555  0.00  0.00    +0.000 NA
ATOM     22  C   UNL     1       1.635  10.732  18.487  0.00  0.00    +0.000 C 
ATOM     23  C   UNL     1       0.488  11.476  19.191  0.00  0.00    +0.000 C 
ATOM     24  C   UNL     1       0.251  10.967  20.629  0.00  0.00    +0.000 C 
ATOM     25  C   UNL     1       0.193   9.442  20.661  0.00  0.00    +0.000 C 
ATOM     26  C   UNL     1       1.395   8.847  19.957  0.00  0.00    +0.000 C 
BRANCH  24  27
ATOM     27  C   UNL     1      -1.033  11.517  21.253  0.00  0.00    +0.000 A 
ATOM     28  C   UNL     1      -1.260  11.399  22.640  0.00  0.00    +0.000 A 
ATOM     29  C   UNL     1      -2.403  11.936  23.234  0.00  0.00    +0.000 A 
ATOM     30  C   UNL     1      -3.340  12.600  22.449  0.00  0.00    +0.000 A 
ATOM     31 CL   UNL     1      -4.754  13.256  23.175  0.00  0.00    +0.000 Cl
ATOM     32  C   UNL     1      -3.133  12.745  21.081  0.00  0.00    +0.000 A 
ATOM     33  C   UNL     1      -1.983  12.216  20.490  0.00  0.00    +0.000 A 
ENDBRANCH  24  27
BRANCH  24  34
ATOM     34  O   UNL     1       1.387  11.354  21.421  0.00  0.00    +0.000 OA
ATOM     35  H   UNL     1       1.168  12.206  21.830  0.00  0.00    +0.000 HD
ENDBRANCH  24  34
ENDBRANCH  20  21
ENDBRANCH  19  20
ENDBRANCH   1  19
TORSDOF 10
ENDMDL
MODEL 2
REMARK VINA RESULT:      -7.9      0.259      1.189
REMARK  Name = 
REMARK  11 active torsions:
REMARK  status: ('A' for Active; 'I' for Inactive)
REMARK    1  A    between atoms: C_1  and  O_2
REMARK    2  A    between atoms: O_2  and  C_3
REMARK    3  A    between atoms: C_3  and  C_5
REMARK    4  A    between atoms: C_5  and  C_6
REMARK    5  A    between atoms: C_5  and  C_23
REMARK    6  A    between atoms: C_5  and  C_29
REMARK    7  A    between atoms: C_6  and  C_7
REMARK    8  A    between atoms: C_7  and  C_8
REMARK    9  A    between atoms: C_8  and  N_9
REMARK   10  A    between atoms: C_12  and  O_13
REMARK   11  A    between atoms: C_12  and  C_14
REMARK                            x       y       z     vdW  Elec       q    Type
REMARK                         _______ _______ _______ _____ _____    ______ ____
ROOT
ATOM      1  C   UNL     1       4.080   6.767  18.708  0.00  0.00    +0.000 C 
ENDROOT
BRANCH   1   2
ATOM      2  C   UNL     1       4.375   5.232  18.447  0.00  0.00    +0.000 C 
BRANCH   2   3
ATOM      3  C   UNL     1       4.837   5.060  16.955  0.00  0.00    +0.000 A 
ATOM      4  C   UNL     1       4.975   6.147  16.067  0.00  0.00    +0.000 A 
ATOM      5  C   UNL     1       5.406   5.969  14.746  0.00  0.00    +0.000 A 
ATOM      6  C   UNL     1       5.682   4.694  14.268  0.00  0.00    +0.000 A 
ATOM      7  C   UNL     1       5.520   3.596  15.110  0.00  0.00    +0.000 A 
ATOM      8  C   UNL     1       5.106   3.775  16.435  0.00  0.00    +0.000 A 
ENDBRANCH   2   3
BRANCH   2   9
ATOM      9  C   UNL     1       3.101   4.393  18.766  0.00  0.00    +0.000 A 
ATOM     10  C   UNL     1       2.330   3.803  17.744  0.00  0.00    +0.000 A 
ATOM     11  C   UNL     1       1.143   3.127  18.031  0.00  0.00    +0.000 A 
ATOM     12  C   UNL     1       0.690   3.035  19.341  0.00  0.00    +0.000 A 
ATOM     13  C   UNL     1       1.426   3.616  20.369  0.00  0.00    +0.000 A 
ATOM     14  C   UNL     1       2.615   4.293  20.085  0.00  0.00    +0.000 A 
ENDBRANCH   2   9
BRANCH   2  15
ATOM     15  C   UNL     1       5.466   4.773  19.472  0.00  0.00    +0.000 C 
ATOM     16  O   UNL     1       5.506   3.678  20.025  0.00  0.00    +0.000 OA
BRANCH  15  18
ATOM     17  C   UNL     1       7.646   5.543  19.054  0.00  0.00    +0.000 C 
ATOM     18  O   UNL     1       6.392   5.756  19.702  0.00  0.00    +0.000 OA
ENDBRANCH  15  18
ENDBRANCH   2  15
ENDBRANCH   1   2
BRANCH   1  19
ATOM     19  C   UNL     1       2.596   7.111  18.662  0.00  0.00    +0.000 C 
BRANCH  19  20
ATOM     20  C   UNL     1       2.231   8.355  17.844  0.00  0.00    +0.000 C 
BRANCH  20  21
ATOM     21  N   UNL     1       1.314   9.196  18.635  0.00  0.00    +0.000 NA
ATOM     22  C   UNL     1       1.694  10.616  18.617  0.00  0.00    +0.000 C 
ATOM     23  C   UNL     1       0.589  11.460  19.271  0.00  0.00    +0.000 C 
ATOM     24  C   UNL     1       0.214  10.951  20.679  0.00  0.00    +0.000 C 
ATOM     25  C   UNL     1       0.000   9.440  20.670  0.00  0.00    +0.000 C 
ATOM     26  C   UNL     1       1.176   8.738  20.022  0.00  0.00    +0.000 C 
BRANCH  24  27
ATOM     27  C   UNL     1      -1.043  11.618  21.241  0.00  0.00    +0.000 A 
ATOM     28  C   UNL     1      -2.055  12.078  20.374  0.00  0.00    +0.000 A 
ATOM     29  C   UNL     1      -3.230  12.645  20.870  0.00  0.00    +0.000 A 
ATOM     30  C   UNL     1      -3.411  12.764  22.244  0.00  0.00    +0.000 A 
ATOM     31 CL   UNL     1      -4.852  13.471  22.860  0.00  0.00    +0.000 Cl
ATOM     32  C   UNL     1      -2.435  12.303  23.122  0.00  0.00    +0.000 A 
ATOM     33  C   UNL     1      -1.265  11.724  22.624  0.00  0.00    +0.000 A 
ENDBRANCH  24  27
BRANCH  24  34
ATOM     34  O   UNL     1       1.333  11.204  21.545  0.00  0.00    +0.000 OA
ATOM     35  H   UNL     1       2.051  10.619  21.256  0.00  0.00    +0.000 HD
ENDBRANCH  24  34
ENDBRANCH  20  21
ENDBRANCH  19  20
ENDBRANCH   1  19
TORSDOF 10
ENDMDL
MODEL 3
REMARK VINA RESULT:      -7.9      1.592      3.943
REMARK  Name = 
REMARK  11 active torsions:
REMARK  status: ('A' for Active; 'I' for Inactive)
REMARK    1  A    between atoms: C_1  and  O_2
REMARK    2  A    between atoms: O_2  and  C_3
REMARK    3  A    between atoms: C_3  and  C_5
REMARK    4  A    between atoms: C_5  and  C_6
REMARK    5  A    between atoms: C_5  and  C_23
REMARK    6  A    between atoms: C_5  and  C_29
REMARK    7  A    between atoms: C_6  and  C_7
REMARK    8  A    between atoms: C_7  and  C_8
REMARK    9  A    between atoms: C_8  and  N_9
REMARK   10  A    between atoms: C_12  and  O_13
REMARK   11  A    between atoms: C_12  and  C_14
REMARK                            x       y       z     vdW  Elec       q    Type
REMARK                         _______ _______ _______ _____ _____    ______ ____
ROOT
ATOM      1  C   UNL     1       2.508   6.042  17.854  0.00  0.00    +0.000 C 
ENDROOT
BRANCH   1   2
ATOM      2  C   UNL     1       3.596   4.926  18.140  0.00  0.00    +0.000 C 
BRANCH   2   3
ATOM      3  C   UNL     1       3.195   4.166  19.456  0.00  0.00    +0.000 A 
ATOM      4  C   UNL     1       2.123   4.571  20.278  0.00  0.00    +0.000 A 
ATOM      5  C   UNL     1       1.775   3.865  21.436  0.00  0.00    +0.000 A 
ATOM      6  C   UNL     1       2.509   2.749  21.822  0.00  0.00    +0.000 A 
ATOM      7  C   UNL     1       3.597   2.345  21.050  0.00  0.00    +0.000 A 
ATOM      8  C   UNL     1       3.935   3.040  19.884  0.00  0.00    +0.000 A 
ENDBRANCH   2   3
BRANCH   2   9
ATOM      9  C   UNL     1       5.004   5.585  18.251  0.00  0.00    +0.000 A 
ATOM     10  C   UNL     1       5.456   6.524  17.301  0.00  0.00    +0.000 A 
ATOM     11  C   UNL     1       6.750   7.044  17.357  0.00  0.00    +0.000 A 
ATOM     12  C   UNL     1       7.627   6.631  18.353  0.00  0.00    +0.000 A 
ATOM     13  C   UNL     1       7.210   5.699  19.297  0.00  0.00    +0.000 A 
ATOM     14  C   UNL     1       5.916   5.177  19.245  0.00  0.00    +0.000 A 
ENDBRANCH   2   9
BRANCH   2  15
ATOM     15  C   UNL     1       3.654   3.982  16.893  0.00  0.00    +0.000 C 
ATOM     16  O   UNL     1       4.628   3.829  16.162  0.00  0.00    +0.000 OA
BRANCH  15  18
ATOM     17  C   UNL     1       2.384   2.048  17.304  0.00  0.00    +0.000 C 
ATOM     18  O   UNL     1       2.464   3.334  16.690  0.00  0.00    +0.000 OA
ENDBRANCH  15  18
ENDBRANCH   2  15
ENDBRANCH   1   2
BRANCH   1  19
ATOM     19  C   UNL     1       2.820   7.374  18.523  0.00  0.00    +0.000 C 
BRANCH  19  20
ATOM     20  C   UNL     1       2.353   8.621  17.764  0.00  0.00    +0.000 C 
BRANCH  20  21
ATOM     21  N   UNL     1       1.394   9.362  18.604  0.00  0.00    +0.000 NA
ATOM     22  C   UNL     1       1.595  10.817  18.538  0.00  0.00    +0.000 C 
ATOM     23  C   UNL     1       0.440  11.535  19.254  0.00  0.00    +0.000 C 
ATOM     24  C   UNL     1       0.226  11.017  20.693  0.00  0.00    +0.000 C 
ATOM     25  C   UNL     1       0.200   9.492  20.721  0.00  0.00    +0.000 C 
ATOM     26  C   UNL     1       1.407   8.923  20.004  0.00  0.00    +0.000 C 
BRANCH  24  27
ATOM     27  C   UNL     1      -1.063  11.539  21.330  0.00  0.00    +0.000 A 
ATOM     28  C   UNL     1      -1.299  11.365  22.709  0.00  0.00    +0.000 A 
ATOM     29  C   UNL     1      -2.447  11.876  23.317  0.00  0.00    +0.000 A 
ATOM     30  C   UNL     1      -3.380  12.569  22.554  0.00  0.00    +0.000 A 
ATOM     31 CL   UNL     1      -4.800  13.193  23.296  0.00  0.00    +0.000 Cl
ATOM     32  C   UNL     1      -3.164  12.770  21.194  0.00  0.00    +0.000 A 
ATOM     33  C   UNL     1      -2.009  12.268  20.590  0.00  0.00    +0.000 A 
ENDBRANCH  24  27
BRANCH  24  34
ATOM     34  O   UNL     1       1.361  11.425  21.476  0.00  0.00    +0.000 OA
ATOM     35  H   UNL     1       1.276  10.993  22.341  0.00  0.00    +0.000 HD
ENDBRANCH  24  34
ENDBRANCH  20  21
ENDBRANCH  19  20
ENDBRANCH   1  19
TORSDOF 10
ENDMDL
MODEL 4
REMARK VINA RESULT:      -7.9      1.441      3.874
REMARK  Name = 
REMARK  11 active torsions:
REMARK  status: ('A' for Active; 'I' for Inactive)
REMARK    1  A    between atoms: C_1  and  O_2
REMARK    2  A    between atoms: O_2  and  C_3
REMARK    3  A    between atoms: C_3  and  C_5
REMARK    4  A    between atoms: C_5  and  C_6
REMARK    5  A    between atoms: C_5  and  C_23
REMARK    6  A    between atoms: C_5  and  C_29
REMARK    7  A    between atoms: C_6  and  C_7
REMARK    8  A    between atoms: C_7  and  C_8
REMARK    9  A    between atoms: C_8  and  N_9
REMARK   10  A    between atoms: C_12  and  O_13
REMARK   11  A    between atoms: C_12  and  C_14
REMARK                            x       y       z     vdW  Elec       q    Type
REMARK                         _______ _______ _______ _____ _____    ______ ____
ROOT
ATOM      1  C   UNL     1       2.694   6.156  17.526  0.00  0.00    +0.000 C 
ENDROOT
BRANCH   1   2
ATOM      2  C   UNL     1       3.735   5.046  17.969  0.00  0.00    +0.000 C 
BRANCH   2   3
ATOM      3  C   UNL     1       3.203   4.359  19.278  0.00  0.00    +0.000 A 
ATOM      4  C   UNL     1       3.763   3.175  19.803  0.00  0.00    +0.000 A 
ATOM      5  C   UNL     1       3.281   2.592  20.982  0.00  0.00    +0.000 A 
ATOM      6  C   UNL     1       2.206   3.161  21.654  0.00  0.00    +0.000 A 
ATOM      7  C   UNL     1       1.608   4.311  21.141  0.00  0.00    +0.000 A 
ATOM      8  C   UNL     1       2.099   4.903  19.972  0.00  0.00    +0.000 A 
ENDBRANCH   2   3
BRANCH   2   9
ATOM      9  C   UNL     1       5.136   5.697  18.177  0.00  0.00    +0.000 A 
ATOM     10  C   UNL     1       5.603   6.729  17.337  0.00  0.00    +0.000 A 
ATOM     11  C   UNL     1       6.892   7.247  17.475  0.00  0.00    +0.000 A 
ATOM     12  C   UNL     1       7.749   6.739  18.444  0.00  0.00    +0.000 A 
ATOM     13  C   UNL     1       7.317   5.714  19.280  0.00  0.00    +0.000 A 
ATOM     14  C   UNL     1       6.028   5.195  19.145  0.00  0.00    +0.000 A 
ENDBRANCH   2   9
BRANCH   2  15
ATOM     15  C   UNL     1       3.896   4.038  16.782  0.00  0.00    +0.000 C 
ATOM     16  O   UNL     1       3.309   2.965  16.677  0.00  0.00    +0.000 OA
BRANCH  15  18
ATOM     17  C   UNL     1       5.786   3.529  15.483  0.00  0.00    +0.000 C 
ATOM     18  O   UNL     1       4.795   4.488  15.852  0.00  0.00    +0.000 OA
ENDBRANCH  15  18
ENDBRANCH   2  15
ENDBRANCH   1   2
BRANCH   1  19
ATOM     19  C   UNL     1       2.669   7.364  18.454  0.00  0.00    +0.000 C 
BRANCH  19  20
ATOM     20  C   UNL     1       2.354   8.706  17.784  0.00  0.00    +0.000 C 
BRANCH  20  21
ATOM     21  N   UNL     1       1.378   9.438  18.612  0.00  0.00    +0.000 NA
ATOM     22  C   UNL     1       1.570  10.894  18.554  0.00  0.00    +0.000 C 
ATOM     23  C   UNL     1       0.401  11.602  19.257  0.00  0.00    +0.000 C 
ATOM     24  C   UNL     1       0.171  11.078  20.691  0.00  0.00    +0.000 C 
ATOM     25  C   UNL     1       0.154   9.553  20.713  0.00  0.00    +0.000 C 
ATOM     26  C   UNL     1       1.375   8.994  20.011  0.00  0.00    +0.000 C 
BRANCH  24  27
ATOM     27  C   UNL     1      -1.131  11.589  21.312  0.00  0.00    +0.000 A 
ATOM     28  C   UNL     1      -1.360  11.458  22.697  0.00  0.00    +0.000 A 
ATOM     29  C   UNL     1      -2.520  11.961  23.288  0.00  0.00    +0.000 A 
ATOM     30  C   UNL     1      -3.471  12.603  22.503  0.00  0.00    +0.000 A 
ATOM     31 CL   UNL     1      -4.906  13.217  23.226  0.00  0.00    +0.000 Cl
ATOM     32  C   UNL     1      -3.262  12.761  21.137  0.00  0.00    +0.000 A 
ATOM     33  C   UNL     1      -2.095  12.267  20.548  0.00  0.00    +0.000 A 
ENDBRANCH  24  27
BRANCH  24  34
ATOM     34  O   UNL     1       1.292  11.491  21.490  0.00  0.00    +0.000 OA
ATOM     35  H   UNL     1       2.016  11.696  20.876  0.00  0.00    +0.000 HD
ENDBRANCH  24  34
ENDBRANCH  20  21
ENDBRANCH  19  20
ENDBRANCH   1  19
TORSDOF 10
ENDMDL
MODEL 5
REMARK VINA RESULT:      -7.7      2.304      3.035
REMARK  Name = 
REMARK  11 active torsions:
REMARK  status: ('A' for Active; 'I' for Inactive)
REMARK    1  A    between atoms: C_1  and  O_2
REMARK    2  A    between atoms: O_2  and  C_3
REMARK    3  A    between atoms: C_3  and  C_5
REMARK    4  A    between atoms: C_5  and  C_6
REMARK    5  A    between atoms: C_5  and  C_23
REMARK    6  A    between atoms: C_5  and  C_29
REMARK    7  A    between atoms: C_6  and  C_7
REMARK    8  A    between atoms: C_7  and  C_8
REMARK    9  A    between atoms: C_8  and  N_9
REMARK   10  A    between atoms: C_12  and  O_13
REMARK   11  A    between atoms: C_12  and  C_14
REMARK                            x       y       z     vdW  Elec       q    Type
REMARK                         _______ _______ _______ _____ _____    ______ ____
ROOT
ATOM      1  C   UNL     1       4.092   6.645  18.584  0.00  0.00    +0.000 C 
ENDROOT
BRANCH   1   2
ATOM      2  C   UNL     1       4.393   5.113  18.317  0.00  0.00    +0.000 C 
BRANCH   2   3
ATOM      3  C   UNL     1       4.934   4.959  16.850  0.00  0.00    +0.000 A 
ATOM      4  C   UNL     1       4.970   6.030  15.931  0.00  0.00    +0.000 A 
ATOM      5  C   UNL     1       5.474   5.870  14.635  0.00  0.00    +0.000 A 
ATOM      6  C   UNL     1       5.929   4.628  14.209  0.00  0.00    +0.000 A 
ATOM      7  C   UNL     1       5.873   3.542  15.082  0.00  0.00    +0.000 A 
ATOM      8  C   UNL     1       5.385   3.705  16.383  0.00  0.00    +0.000 A 
ENDBRANCH   2   3
BRANCH   2   9
ATOM      9  C   UNL     1       3.099   4.277  18.555  0.00  0.00    +0.000 A 
ATOM     10  C   UNL     1       2.516   4.166  19.834  0.00  0.00    +0.000 A 
ATOM     11  C   UNL     1       1.409   3.346  20.056  0.00  0.00    +0.000 A 
ATOM     12  C   UNL     1       0.866   2.607  19.012  0.00  0.00    +0.000 A 
ATOM     13  C   UNL     1       1.427   2.691  17.741  0.00  0.00    +0.000 A 
ATOM     14  C   UNL     1       2.534   3.511  17.516  0.00  0.00    +0.000 A 
ENDBRANCH   2   9
BRANCH   2  15
ATOM     15  C   UNL     1       5.425   4.633  19.393  0.00  0.00    +0.000 C 
ATOM     16  O   UNL     1       5.498   3.496  19.850  0.00  0.00    +0.000 OA
BRANCH  15  18
ATOM     17  C   UNL     1       7.576   5.569  19.258  0.00  0.00    +0.000 C 
ATOM     18  O   UNL     1       6.254   5.649  19.790  0.00  0.00    +0.000 OA
ENDBRANCH  15  18
ENDBRANCH   2  15
ENDBRANCH   1   2
BRANCH   1  19
ATOM     19  C   UNL     1       2.620   7.006  18.429  0.00  0.00    +0.000 C 
BRANCH  19  20
ATOM     20  C   UNL     1       1.940   7.564  19.685  0.00  0.00    +0.000 C 
BRANCH  20  21
ATOM     21  N   UNL     1       1.754   9.018  19.523  0.00  0.00    +0.000 NA
ATOM     22  C   UNL     1       0.535   9.505  20.183  0.00  0.00    +0.000 C 
ATOM     23  C   UNL     1       0.511  11.042  20.164  0.00  0.00    +0.000 C 
ATOM     24  C   UNL     1       0.704  11.617  18.745  0.00  0.00    +0.000 C 
ATOM     25  C   UNL     1       1.881  10.946  18.044  0.00  0.00    +0.000 C 
ATOM     26  C   UNL     1       1.759   9.438  18.117  0.00  0.00    +0.000 C 
BRANCH  24  27
ATOM     27  C   UNL     1       0.930  13.131  18.739  0.00  0.00    +0.000 A 
ATOM     28  C   UNL     1       2.215  13.659  18.500  0.00  0.00    +0.000 A 
ATOM     29  C   UNL     1       2.431  15.037  18.443  0.00  0.00    +0.000 A 
ATOM     30  C   UNL     1       1.364  15.910  18.626  0.00  0.00    +0.000 A 
ATOM     31 CL   UNL     1       1.627  17.608  18.566  0.00  0.00    +0.000 Cl
ATOM     32  C   UNL     1       0.083  15.414  18.847  0.00  0.00    +0.000 A 
ATOM     33  C   UNL     1      -0.134  14.035  18.891  0.00  0.00    +0.000 A 
ENDBRANCH  24  27
BRANCH  24  34
ATOM     34  O   UNL     1      -0.470  11.293  17.981  0.00  0.00    +0.000 OA
ATOM     35  H   UNL     1      -0.604  12.018  17.350  0.00  0.00    +0.000 HD
ENDBRANCH  24  34
ENDBRANCH  20  21
ENDBRANCH  19  20
ENDBRANCH   1  19
TORSDOF 10
ENDMDL
MODEL 6
REMARK VINA RESULT:      -7.7      0.973      1.368
REMARK  Name = 
REMARK  11 active torsions:
REMARK  status: ('A' for Active; 'I' for Inactive)
REMARK    1  A    between atoms: C_1  and  O_2
REMARK    2  A    between atoms: O_2  and  C_3
REMARK    3  A    between atoms: C_3  and  C_5
REMARK    4  A    between atoms: C_5  and  C_6
REMARK    5  A    between atoms: C_5  and  C_23
REMARK    6  A    between atoms: C_5  and  C_29
REMARK    7  A    between atoms: C_6  and  C_7
REMARK    8  A    between atoms: C_7  and  C_8
REMARK    9  A    between atoms: C_8  and  N_9
REMARK   10  A    between atoms: C_12  and  O_13
REMARK   11  A    between atoms: C_12  and  C_14
REMARK                            x       y       z     vdW  Elec       q    Type
REMARK                         _______ _______ _______ _____ _____    ______ ____
ROOT
ATOM      1  C   UNL     1       4.021   6.705  18.591  0.00  0.00    +0.000 C 
ENDROOT
BRANCH   1   2
ATOM      2  C   UNL     1       4.344   5.177  18.322  0.00  0.00    +0.000 C 
BRANCH   2   3
ATOM      3  C   UNL     1       4.887   5.033  16.855  0.00  0.00    +0.000 A 
ATOM      4  C   UNL     1       4.947   6.115  15.951  0.00  0.00    +0.000 A 
ATOM      5  C   UNL     1       5.453   5.964  14.655  0.00  0.00    +0.000 A 
ATOM      6  C   UNL     1       5.886   4.718  14.214  0.00  0.00    +0.000 A 
ATOM      7  C   UNL     1       5.806   3.622  15.071  0.00  0.00    +0.000 A 
ATOM      8  C   UNL     1       5.316   3.776  16.373  0.00  0.00    +0.000 A 
ENDBRANCH   2   3
BRANCH   2   9
ATOM      9  C   UNL     1       3.061   4.322  18.558  0.00  0.00    +0.000 A 
ATOM     10  C   UNL     1       2.269   4.483  19.713  0.00  0.00    +0.000 A 
ATOM     11  C   UNL     1       1.172   3.655  19.959  0.00  0.00    +0.000 A 
ATOM     12  C   UNL     1       0.848   2.640  19.068  0.00  0.00    +0.000 A 
ATOM     13  C   UNL     1       1.619   2.454  17.925  0.00  0.00    +0.000 A 
ATOM     14  C   UNL     1       2.716   3.280  17.674  0.00  0.00    +0.000 A 
ENDBRANCH   2   9
BRANCH   2  15
ATOM     15  C   UNL     1       5.381   4.710  19.398  0.00  0.00    +0.000 C 
ATOM     16  O   UNL     1       5.445   3.584  19.882  0.00  0.00    +0.000 OA
BRANCH  15  18
ATOM     17  C   UNL     1       7.549   5.602  19.234  0.00  0.00    +0.000 C 
ATOM     18  O   UNL     1       6.228   5.724  19.760  0.00  0.00    +0.000 OA
ENDBRANCH  15  18
ENDBRANCH   2  15
ENDBRANCH   1   2
BRANCH   1  19
ATOM     19  C   UNL     1       2.623   7.112  18.144  0.00  0.00    +0.000 C 
BRANCH  19  20
ATOM     20  C   UNL     1       2.496   8.533  17.582  0.00  0.00    +0.000 C 
BRANCH  20  21
ATOM     21  N   UNL     1       1.508   9.279  18.382  0.00  0.00    +0.000 NA
ATOM     22  C   UNL     1       0.180   9.307  17.753  0.00  0.00    +0.000 C 
ATOM     23  C   UNL     1      -0.846   9.906  18.729  0.00  0.00    +0.000 C 
ATOM     24  C   UNL     1      -0.406  11.280  19.276  0.00  0.00    +0.000 C 
ATOM     25  C   UNL     1       1.042  11.234  19.755  0.00  0.00    +0.000 C 
ATOM     26  C   UNL     1       1.941  10.649  18.686  0.00  0.00    +0.000 C 
BRANCH  24  27
ATOM     27  C   UNL     1      -1.285  11.775  20.427  0.00  0.00    +0.000 A 
ATOM     28  C   UNL     1      -2.485  12.465  20.162  0.00  0.00    +0.000 A 
ATOM     29  C   UNL     1      -3.323  12.881  21.198  0.00  0.00    +0.000 A 
ATOM     30  C   UNL     1      -2.973  12.616  22.517  0.00  0.00    +0.000 A 
ATOM     31 CL   UNL     1      -3.997  13.135  23.797  0.00  0.00    +0.000 Cl
ATOM     32  C   UNL     1      -1.802  11.922  22.805  0.00  0.00    +0.000 A 
ATOM     33  C   UNL     1      -0.970  11.495  21.767  0.00  0.00    +0.000 A 
ENDBRANCH  24  27
BRANCH  24  34
ATOM     34  O   UNL     1      -0.450  12.217  18.186  0.00  0.00    +0.000 OA
ATOM     35  H   UNL     1      -0.025  13.032  18.498  0.00  0.00    +0.000 HD
ENDBRANCH  24  34
ENDBRANCH  20  21
ENDBRANCH  19  20
ENDBRANCH   1  19
TORSDOF 10
ENDMDL
MODEL 7
REMARK VINA RESULT:      -7.6      2.289      3.158
REMARK  Name = 
REMARK  11 active torsions:
REMARK  status: ('A' for Active; 'I' for Inactive)
REMARK    1  A    between atoms: C_1  and  O_2
REMARK    2  A    between atoms: O_2  and  C_3
REMARK    3  A    between atoms: C_3  and  C_5
REMARK    4  A    between atoms: C_5  and  C_6
REMARK    5  A    between atoms: C_5  and  C_23
REMARK    6  A    between atoms: C_5  and  C_29
REMARK    7  A    between atoms: C_6  and  C_7
REMARK    8  A    between atoms: C_7  and  C_8
REMARK    9  A    between atoms: C_8  and  N_9
REMARK   10  A    between atoms: C_12  and  O_13
REMARK   11  A    between atoms: C_12  and  C_14
REMARK                            x       y       z     vdW  Elec       q    Type
REMARK                         _______ _______ _______ _____ _____    ______ ____
ROOT
ATOM      1  C   UNL     1       4.095   6.561  19.082  0.00  0.00    +0.000 C 
ENDROOT
BRANCH   1   2
ATOM      2  C   UNL     1       4.367   5.078  18.595  0.00  0.00    +0.000 C 
BRANCH   2   3
ATOM      3  C   UNL     1       4.808   5.121  17.087  0.00  0.00    +0.000 A 
ATOM      4  C   UNL     1       4.879   6.319  16.345  0.00  0.00    +0.000 A 
ATOM      5  C   UNL     1       5.292   6.332  15.007  0.00  0.00    +0.000 A 
ATOM      6  C   UNL     1       5.617   5.143  14.364  0.00  0.00    +0.000 A 
ATOM      7  C   UNL     1       5.522   3.940  15.060  0.00  0.00    +0.000 A 
ATOM      8  C   UNL     1       5.126   3.928  16.402  0.00  0.00    +0.000 A 
ENDBRANCH   2   3
BRANCH   2   9
ATOM      9  C   UNL     1       3.086   4.215  18.807  0.00  0.00    +0.000 A 
ATOM     10  C   UNL     1       2.345   3.714  17.717  0.00  0.00    +0.000 A 
ATOM     11  C   UNL     1       1.152   3.017  17.913  0.00  0.00    +0.000 A 
ATOM     12  C   UNL     1       0.664   2.815  19.197  0.00  0.00    +0.000 A 
ATOM     13  C   UNL     1       1.370   3.306  20.290  0.00  0.00    +0.000 A 
ATOM     14  C   UNL     1       2.564   4.004  20.098  0.00  0.00    +0.000 A 
ENDBRANCH   2   9
BRANCH   2  15
ATOM     15  C   UNL     1       5.465   4.462  19.526  0.00  0.00    +0.000 C 
ATOM     16  O   UNL     1       5.505   3.294  19.901  0.00  0.00    +0.000 OA
BRANCH  15  18
ATOM     17  C   UNL     1       7.555   5.431  19.062  0.00  0.00    +0.000 C 
ATOM     18  O   UNL     1       6.398   5.395  19.897  0.00  0.00    +0.000 OA
ENDBRANCH  15  18
ENDBRANCH   2  15
ENDBRANCH   1   2
BRANCH   1  19
ATOM     19  C   UNL     1       2.704   7.067  18.724  0.00  0.00    +0.000 C 
BRANCH  19  20
ATOM     20  C   UNL     1       1.892   7.648  19.887  0.00  0.00    +0.000 C 
BRANCH  20  21
ATOM     21  N   UNL     1       1.696   9.092  19.661  0.00  0.00    +0.000 NA
ATOM     22  C   UNL     1       0.451   9.592  20.260  0.00  0.00    +0.000 C 
ATOM     23  C   UNL     1       0.412  11.126  20.179  0.00  0.00    +0.000 C 
ATOM     24  C   UNL     1       0.646  11.646  18.744  0.00  0.00    +0.000 C 
ATOM     25  C   UNL     1       1.853  10.961  18.110  0.00  0.00    +0.000 C 
ATOM     26  C   UNL     1       1.744   9.456  18.240  0.00  0.00    +0.000 C 
BRANCH  24  27
ATOM     27  C   UNL     1       0.857  13.161  18.684  0.00  0.00    +0.000 A 
ATOM     28  C   UNL     1      -0.245  14.037  18.730  0.00  0.00    +0.000 A 
ATOM     29  C   UNL     1      -0.069  15.422  18.725  0.00  0.00    +0.000 A 
ATOM     30  C   UNL     1       1.215  15.953  18.670  0.00  0.00    +0.000 A 
ATOM     31 CL   UNL     1       1.437  17.658  18.654  0.00  0.00    +0.000 Cl
ATOM     32  C   UNL     1       2.322  15.110  18.641  0.00  0.00    +0.000 A 
ATOM     33  C   UNL     1       2.144  13.725  18.659  0.00  0.00    +0.000 A 
ENDBRANCH  24  27
BRANCH  24  34
ATOM     34  O   UNL     1      -0.499  11.278  17.956  0.00  0.00    +0.000 OA
ATOM     35  H   UNL     1      -0.393  11.705  17.090  0.00  0.00    +0.000 HD
ENDBRANCH  24  34
ENDBRANCH  20  21
ENDBRANCH  19  20
ENDBRANCH   1  19
TORSDOF 10
ENDMDL
MODEL 8
REMARK VINA RESULT:      -7.6      1.248      1.957
REMARK  Name = 
REMARK  11 active torsions:
REMARK  status: ('A' for Active; 'I' for Inactive)
REMARK    1  A    between atoms: C_1  and  O_2
REMARK    2  A    between atoms: O_2  and  C_3
REMARK    3  A    between atoms: C_3  and  C_5
REMARK    4  A    between atoms: C_5  and  C_6
REMARK    5  A    between atoms: C_5  and  C_23
REMARK    6  A    between atoms: C_5  and  C_29
REMARK    7  A    between atoms: C_6  and  C_7
REMARK    8  A    between atoms: C_7  and  C_8
REMARK    9  A    between atoms: C_8  and  N_9
REMARK   10  A    between atoms: C_12  and  O_13
REMARK   11  A    between atoms: C_12  and  C_14
REMARK                            x       y       z     vdW  Elec       q    Type
REMARK                         _______ _______ _______ _____ _____    ______ ____
ROOT
ATOM      1  C   UNL     1       4.167   6.617  18.675  0.00  0.00    +0.000 C 
ENDROOT
BRANCH   1   2
ATOM      2  C   UNL     1       4.437   5.078  18.408  0.00  0.00    +0.000 C 
BRANCH   2   3
ATOM      3  C   UNL     1       4.914   4.907  16.920  0.00  0.00    +0.000 A 
ATOM      4  C   UNL     1       5.342   3.671  16.391  0.00  0.00    +0.000 A 
ATOM      5  C   UNL     1       5.745   3.543  15.056  0.00  0.00    +0.000 A 
ATOM      6  C   UNL     1       5.761   4.653  14.220  0.00  0.00    +0.000 A 
ATOM      7  C   UNL     1       5.379   5.895  14.724  0.00  0.00    +0.000 A 
ATOM      8  C   UNL     1       4.960   6.021  16.053  0.00  0.00    +0.000 A 
ENDBRANCH   2   3
BRANCH   2   9
ATOM      9  C   UNL     1       3.143   4.261  18.706  0.00  0.00    +0.000 A 
ATOM     10  C   UNL     1       2.427   3.613  17.679  0.00  0.00    +0.000 A 
ATOM     11  C   UNL     1       1.223   2.957  17.940  0.00  0.00    +0.000 A 
ATOM     12  C   UNL     1       0.698   2.943  19.226  0.00  0.00    +0.000 A 
ATOM     13  C   UNL     1       1.380   3.583  20.257  0.00  0.00    +0.000 A 
ATOM     14  C   UNL     1       2.585   4.240  20.000  0.00  0.00    +0.000 A 
ENDBRANCH   2   9
BRANCH   2  15
ATOM     15  C   UNL     1       5.506   4.592  19.443  0.00  0.00    +0.000 C 
ATOM     16  O   UNL     1       5.583   3.458  19.906  0.00  0.00    +0.000 OA
BRANCH  15  18
ATOM     17  C   UNL     1       7.623   5.561  19.125  0.00  0.00    +0.000 C 
ATOM     18  O   UNL     1       6.365   5.599  19.797  0.00  0.00    +0.000 OA
ENDBRANCH  15  18
ENDBRANCH   2  15
ENDBRANCH   1   2
BRANCH   1  19
ATOM     19  C   UNL     1       2.718   7.024  18.441  0.00  0.00    +0.000 C 
BRANCH  19  20
ATOM     20  C   UNL     1       2.514   8.384  17.764  0.00  0.00    +0.000 C 
BRANCH  20  21
ATOM     21  N   UNL     1       1.858   9.300  18.716  0.00  0.00    +0.000 NA
ATOM     22  C   UNL     1       1.378   8.609  19.921  0.00  0.00    +0.000 C 
ATOM     23  C   UNL     1       0.904   9.640  20.958  0.00  0.00    +0.000 C 
ATOM     24  C   UNL     1      -0.127  10.630  20.376  0.00  0.00    +0.000 C 
ATOM     25  C   UNL     1       0.349  11.183  19.036  0.00  0.00    +0.000 C 
ATOM     26  C   UNL     1       0.758  10.058  18.108  0.00  0.00    +0.000 C 
BRANCH  24  27
ATOM     27  C   UNL     1      -0.422  11.805  21.311  0.00  0.00    +0.000 A 
ATOM     28  C   UNL     1      -1.411  11.692  22.309  0.00  0.00    +0.000 A 
ATOM     29  C   UNL     1      -1.661  12.736  23.201  0.00  0.00    +0.000 A 
ATOM     30  C   UNL     1      -0.926  13.912  23.108  0.00  0.00    +0.000 A 
ATOM     31 CL   UNL     1      -1.236  15.205  24.199  0.00  0.00    +0.000 Cl
ATOM     32  C   UNL     1       0.068  14.044  22.143  0.00  0.00    +0.000 A 
ATOM     33  C   UNL     1       0.324  12.994  21.258  0.00  0.00    +0.000 A 
ENDBRANCH  24  27
BRANCH  24  34
ATOM     34  O   UNL     1      -1.335   9.896  20.113  0.00  0.00    +0.000 OA
ATOM     35  H   UNL     1      -1.114   8.954  20.192  0.00  0.00    +0.000 HD
ENDBRANCH  24  34
ENDBRANCH  20  21
ENDBRANCH  19  20
ENDBRANCH   1  19
TORSDOF 10
ENDMDL
MODEL 9
REMARK VINA RESULT:      -7.5      0.927      1.338
REMARK  Name = 
REMARK  11 active torsions:
REMARK  status: ('A' for Active; 'I' for Inactive)
REMARK    1  A    between atoms: C_1  and  O_2
REMARK    2  A    between atoms: O_2  and  C_3
REMARK    3  A    between atoms: C_3  and  C_5
REMARK    4  A    between atoms: C_5  and  C_6
REMARK    5  A    between atoms: C_5  and  C_23
REMARK    6  A    between atoms: C_5  and  C_29
REMARK    7  A    between atoms: C_6  and  C_7
REMARK    8  A    between atoms: C_7  and  C_8
REMARK    9  A    between atoms: C_8  and  N_9
REMARK   10  A    between atoms: C_12  and  O_13
REMARK   11  A    between atoms: C_12  and  C_14
REMARK                            x       y       z     vdW  Elec       q    Type
REMARK                         _______ _______ _______ _____ _____    ______ ____
ROOT
ATOM      1  C   UNL     1       4.023   6.643  18.913  0.00  0.00    +0.000 C 
ENDROOT
BRANCH   1   2
ATOM      2  C   UNL     1       4.323   5.148  18.483  0.00  0.00    +0.000 C 
BRANCH   2   3
ATOM      3  C   UNL     1       4.804   5.146  16.987  0.00  0.00    +0.000 A 
ATOM      4  C   UNL     1       4.886   6.320  16.208  0.00  0.00    +0.000 A 
ATOM      5  C   UNL     1       5.336   6.294  14.883  0.00  0.00    +0.000 A 
ATOM      6  C   UNL     1       5.688   5.088  14.288  0.00  0.00    +0.000 A 
ATOM      7  C   UNL     1       5.584   3.907  15.019  0.00  0.00    +0.000 A 
ATOM      8  C   UNL     1       5.151   3.934  16.350  0.00  0.00    +0.000 A 
ENDBRANCH   2   3
BRANCH   2   9
ATOM      9  C   UNL     1       3.045   4.278  18.688  0.00  0.00    +0.000 A 
ATOM     10  C   UNL     1       2.052   4.180  17.692  0.00  0.00    +0.000 A 
ATOM     11  C   UNL     1       0.871   3.470  17.917  0.00  0.00    +0.000 A 
ATOM     12  C   UNL     1       0.647   2.855  19.142  0.00  0.00    +0.000 A 
ATOM     13  C   UNL     1       1.607   2.944  20.145  0.00  0.00    +0.000 A 
ATOM     14  C   UNL     1       2.790   3.652  19.924  0.00  0.00    +0.000 A 
ENDBRANCH   2   9
BRANCH   2  15
ATOM     15  C   UNL     1       5.401   4.575  19.463  0.00  0.00    +0.000 C 
ATOM     16  O   UNL     1       5.482   3.405  19.825  0.00  0.00    +0.000 OA
BRANCH  15  18
ATOM     17  C   UNL     1       7.524   5.554  19.229  0.00  0.00    +0.000 C 
ATOM     18  O   UNL     1       6.262   5.548  19.896  0.00  0.00    +0.000 OA
ENDBRANCH  15  18
ENDBRANCH   2  15
ENDBRANCH   1   2
BRANCH   1  19
ATOM     19  C   UNL     1       2.541   6.920  19.135  0.00  0.00    +0.000 C 
BRANCH  19  20
ATOM     20  C   UNL     1       2.087   6.953  20.599  0.00  0.00    +0.000 C 
BRANCH  20  21
ATOM     21  N   UNL     1       1.154   8.079  20.786  0.00  0.00    +0.000 NA
ATOM     22  C   UNL     1       1.203   9.042  19.677  0.00  0.00    +0.000 C 
ATOM     23  C   UNL     1       0.066  10.065  19.824  0.00  0.00    +0.000 C 
ATOM     24  C   UNL     1       0.055  10.739  21.212  0.00  0.00    +0.000 C 
ATOM     25  C   UNL     1       0.181   9.699  22.321  0.00  0.00    +0.000 C 
ATOM     26  C   UNL     1       1.356   8.779  22.060  0.00  0.00    +0.000 C 
BRANCH  24  27
ATOM     27  C   UNL     1      -1.205  11.570  21.464  0.00  0.00    +0.000 A 
ATOM     28  C   UNL     1      -1.685  11.758  22.776  0.00  0.00    +0.000 A 
ATOM     29  C   UNL     1      -2.805  12.552  23.028  0.00  0.00    +0.000 A 
ATOM     30  C   UNL     1      -3.465  13.170  21.972  0.00  0.00    +0.000 A 
ATOM     31 CL   UNL     1      -4.850  14.142  22.277  0.00  0.00    +0.000 Cl
ATOM     32  C   UNL     1      -3.001  13.015  20.669  0.00  0.00    +0.000 A 
ATOM     33  C   UNL     1      -1.873  12.230  20.419  0.00  0.00    +0.000 A 
ENDBRANCH  24  27
BRANCH  24  34
ATOM     34  O   UNL     1       1.221  11.577  21.298  0.00  0.00    +0.000 OA
ATOM     35  H   UNL     1       1.730  11.435  20.483  0.00  0.00    +0.000 HD
ENDBRANCH  24  34
ENDBRANCH  20  21
ENDBRANCH  19  20
ENDBRANCH   1  19
TORSDOF 10
ENDMDL
