MODEL 1
REMARK VINA RESULT:      -7.0      0.000      0.000
REMARK  Name = 
REMARK  10 active torsions:
REMARK  status: ('A' for Active; 'I' for Inactive)
REMARK    1  A    between atoms: C_1  and  C_2
REMARK    2  A    between atoms: C_2  and  C_3
REMARK    3  A    between atoms: C_2  and  C_4
REMARK    4  A    between atoms: C_4  and  C_5
REMARK    5  A    between atoms: C_4  and  N_6
REMARK    6  A    between atoms: N_6  and  C_7
REMARK    7  A    between atoms: C_7  and  C_8
REMARK    8  A    between atoms: C_12  and  C_14
REMARK    9  A    between atoms: C_14  and  C_15
REMARK   10  A    between atoms: N_18  and  C_19
REMARK                            x       y       z     vdW  Elec       q    Type
REMARK                         _______ _______ _______ _____ _____    ______ ____
ROOT
ATOM      1  N   UNL     1       3.656   4.597  19.562  0.00  0.00    +0.000 N 
ATOM      2  C   UNL     1       4.993   4.200  19.500  0.00  0.00    +0.000 C 
ATOM      3  O   UNL     1       5.343   3.030  19.670  0.00  0.00    +0.000 OA
ENDROOT
BRANCH   1   4
ATOM      4  C   UNL     1       2.601   3.588  19.856  0.00  0.00    +0.000 C 
ATOM      5  C   UNL     1       1.707   4.019  21.029  0.00  0.00    +0.000 C 
BRANCH   4   7
ATOM      6  C   UNL     1       0.478   2.508  18.864  0.00  0.00    +0.000 C 
ATOM      7  C   UNL     1       1.811   3.202  18.569  0.00  0.00    +0.000 C 
ATOM      8  C   UNL     1       2.648   2.288  17.661  0.00  0.00    +0.000 C 
ENDBRANCH   4   7
ENDBRANCH   1   4
BRANCH   1   9
ATOM      9  C   UNL     1       3.213   6.011  19.464  0.00  0.00    +0.000 C 
BRANCH   9  10
ATOM     10  C   UNL     1       3.053   6.588  18.052  0.00  0.00    +0.000 C 
ATOM     11  F   UNL     1       1.843   7.156  17.855  0.00  0.00    +0.000 F 
ATOM     12  F   UNL     1       3.991   7.534  17.813  0.00  0.00    +0.000 F 
ATOM     13  F   UNL     1       3.209   5.624  17.116  0.00  0.00    +0.000 F 
ENDBRANCH   9  10
ENDBRANCH   1   9
BRANCH   2  14
ATOM     14  C   UNL     1       6.068   5.256  19.259  0.00  0.00    +0.000 C 
BRANCH  14  15
ATOM     15  C   UNL     1       6.479   5.331  17.828  0.00  0.00    +0.000 A 
ATOM     16  C   UNL     1       7.280   6.313  17.194  0.00  0.00    +0.000 A 
ATOM     17  N   UNL     1       7.428   6.089  15.887  0.00  0.00    +0.000 NA
ATOM     18  N   UNL     1       6.756   4.944  15.680  0.00  0.00    +0.000 N 
ATOM     19  C   UNL     1       6.675   4.380  14.355  0.00  0.00    +0.000 C 
ATOM     20  C   UNL     1       6.180   4.444  16.813  0.00  0.00    +0.000 A 
ENDBRANCH  14  15
ENDBRANCH   2  14
TORSDOF 6
ENDMDL
MODEL 2
REMARK VINA RESULT:      -6.8      2.591      3.384
REMARK  Name = 
REMARK  10 active torsions:
REMARK  status: ('A' for Active; 'I' for Inactive)
REMARK    1  A    between atoms: C_1  and  C_2
REMARK    2  A    between atoms: C_2  and  C_3
REMARK    3  A    between atoms: C_2  and  C_4
REMARK    4  A    between atoms: C_4  and  C_5
REMARK    5  A    between atoms: C_4  and  N_6
REMARK    6  A    between atoms: N_6  and  C_7
REMARK    7  A    between atoms: C_7  and  C_8
REMARK    8  A    between atoms: C_12  and  C_14
REMARK    9  A    between atoms: C_14  and  C_15
REMARK   10  A    between atoms: N_18  and  C_19
REMARK                            x       y       z     vdW  Elec       q    Type
REMARK                         _______ _______ _______ _____ _____    ______ ____
ROOT
ATOM      1  N   UNL     1       3.655   4.267  18.147  0.00  0.00    +0.000 N 
ATOM      2  C   UNL     1       4.861   4.970  18.163  0.00  0.00    +0.000 C 
ATOM      3  O   UNL     1       4.923   6.169  18.444  0.00  0.00    +0.000 OA
ENDROOT
BRANCH   1   4
ATOM      4  C   UNL     1       2.385   4.976  18.465  0.00  0.00    +0.000 C 
ATOM      5  C   UNL     1       1.204   4.428  17.650  0.00  0.00    +0.000 C 
BRANCH   4   7
ATOM      6  C   UNL     1       0.961   4.124  20.441  0.00  0.00    +0.000 C 
ATOM      7  C   UNL     1       2.126   5.016  20.002  0.00  0.00    +0.000 C 
ATOM      8  C   UNL     1       1.851   6.451  20.478  0.00  0.00    +0.000 C 
ENDBRANCH   4   7
ENDBRANCH   1   4
BRANCH   1   9
ATOM      9  C   UNL     1       3.535   2.851  17.716  0.00  0.00    +0.000 C 
BRANCH   9  10
ATOM     10  C   UNL     1       3.466   1.794  18.826  0.00  0.00    +0.000 C 
ATOM     11  F   UNL     1       4.086   0.643  18.488  0.00  0.00    +0.000 F 
ATOM     12  F   UNL     1       4.046   2.253  19.960  0.00  0.00    +0.000 F 
ATOM     13  F   UNL     1       2.181   1.493  19.126  0.00  0.00    +0.000 F 
ENDBRANCH   9  10
ENDBRANCH   1   9
BRANCH   2  14
ATOM     14  C   UNL     1       6.147   4.244  17.776  0.00  0.00    +0.000 C 
BRANCH  14  15
ATOM     15  C   UNL     1       6.479   4.410  16.332  0.00  0.00    +0.000 A 
ATOM     16  C   UNL     1       7.327   5.373  15.731  0.00  0.00    +0.000 A 
ATOM     17  N   UNL     1       7.378   5.253  14.403  0.00  0.00    +0.000 NA
ATOM     18  N   UNL     1       6.595   4.193  14.146  0.00  0.00    +0.000 N 
ATOM     19  C   UNL     1       6.387   3.757  12.787  0.00  0.00    +0.000 C 
ATOM     20  C   UNL     1       6.042   3.646  15.269  0.00  0.00    +0.000 A 
ENDBRANCH  14  15
ENDBRANCH   2  14
TORSDOF 6
ENDMDL
MODEL 3
REMARK VINA RESULT:      -6.5      0.557      1.019
REMARK  Name = 
REMARK  10 active torsions:
REMARK  status: ('A' for Active; 'I' for Inactive)
REMARK    1  A    between atoms: C_1  and  C_2
REMARK    2  A    between atoms: C_2  and  C_3
REMARK    3  A    between atoms: C_2  and  C_4
REMARK    4  A    between atoms: C_4  and  C_5
REMARK    5  A    between atoms: C_4  and  N_6
REMARK    6  A    between atoms: N_6  and  C_7
REMARK    7  A    between atoms: C_7  and  C_8
REMARK    8  A    between atoms: C_12  and  C_14
REMARK    9  A    between atoms: C_14  and  C_15
REMARK   10  A    between atoms: N_18  and  C_19
REMARK                            x       y       z     vdW  Elec       q    Type
REMARK                         _______ _______ _______ _____ _____    ______ ____
ROOT
ATOM      1  N   UNL     1       3.598   4.513  19.635  0.00  0.00    +0.000 N 
ATOM      2  C   UNL     1       4.937   4.149  19.484  0.00  0.00    +0.000 C 
ATOM      3  O   UNL     1       5.331   2.993  19.654  0.00  0.00    +0.000 OA
ENDROOT
BRANCH   1   4
ATOM      4  C   UNL     1       2.596   3.485  20.028  0.00  0.00    +0.000 C 
ATOM      5  C   UNL     1       1.368   4.111  20.707  0.00  0.00    +0.000 C 
BRANCH   4   7
ATOM      6  C   UNL     1       2.788   3.050  17.492  0.00  0.00    +0.000 C 
ATOM      7  C   UNL     1       2.246   2.546  18.833  0.00  0.00    +0.000 C 
ATOM      8  C   UNL     1       0.726   2.358  18.707  0.00  0.00    +0.000 C 
ENDBRANCH   4   7
ENDBRANCH   1   4
BRANCH   1   9
ATOM      9  C   UNL     1       3.110   5.912  19.537  0.00  0.00    +0.000 C 
BRANCH   9  10
ATOM     10  C   UNL     1       2.583   6.366  18.170  0.00  0.00    +0.000 C 
ATOM     11  F   UNL     1       1.542   5.621  17.740  0.00  0.00    +0.000 F 
ATOM     12  F   UNL     1       2.170   7.654  18.221  0.00  0.00    +0.000 F 
ATOM     13  F   UNL     1       3.554   6.293  17.230  0.00  0.00    +0.000 F 
ENDBRANCH   9  10
ENDBRANCH   1   9
BRANCH   2  14
ATOM     14  C   UNL     1       5.963   5.227  19.140  0.00  0.00    +0.000 C 
BRANCH  14  15
ATOM     15  C   UNL     1       6.352   5.202  17.701  0.00  0.00    +0.000 A 
ATOM     16  C   UNL     1       7.177   6.114  16.999  0.00  0.00    +0.000 A 
ATOM     17  N   UNL     1       7.295   5.807  15.705  0.00  0.00    +0.000 NA
ATOM     18  N   UNL     1       6.577   4.679  15.576  0.00  0.00    +0.000 N 
ATOM     19  C   UNL     1       6.453   4.042  14.289  0.00  0.00    +0.000 C 
ATOM     20  C   UNL     1       6.002   4.269  16.745  0.00  0.00    +0.000 A 
ENDBRANCH  14  15
ENDBRANCH   2  14
TORSDOF 6
ENDMDL
MODEL 4
REMARK VINA RESULT:      -6.5      0.634      1.094
REMARK  Name = 
REMARK  10 active torsions:
REMARK  status: ('A' for Active; 'I' for Inactive)
REMARK    1  A    between atoms: C_1  and  C_2
REMARK    2  A    between atoms: C_2  and  C_3
REMARK    3  A    between atoms: C_2  and  C_4
REMARK    4  A    between atoms: C_4  and  C_5
REMARK    5  A    between atoms: C_4  and  N_6
REMARK    6  A    between atoms: N_6  and  C_7
REMARK    7  A    between atoms: C_7  and  C_8
REMARK    8  A    between atoms: C_12  and  C_14
REMARK    9  A    between atoms: C_14  and  C_15
REMARK   10  A    between atoms: N_18  and  C_19
REMARK                            x       y       z     vdW  Elec       q    Type
REMARK                         _______ _______ _______ _____ _____    ______ ____
ROOT
ATOM      1  N   UNL     1       3.471   4.387  19.593  0.00  0.00    +0.000 N 
ATOM      2  C   UNL     1       4.757   3.860  19.460  0.00  0.00    +0.000 C 
ATOM      3  O   UNL     1       5.002   2.664  19.635  0.00  0.00    +0.000 OA
ENDROOT
BRANCH   1   4
ATOM      4  C   UNL     1       2.344   3.491  19.972  0.00  0.00    +0.000 C 
ATOM      5  C   UNL     1       1.484   4.094  21.093  0.00  0.00    +0.000 C 
BRANCH   4   7
ATOM      6  C   UNL     1       0.317   2.174  19.068  0.00  0.00    +0.000 C 
ATOM      7  C   UNL     1       1.527   3.046  18.720  0.00  0.00    +0.000 C 
ATOM      8  C   UNL     1       2.413   2.281  17.727  0.00  0.00    +0.000 C 
ENDBRANCH   4   7
ENDBRANCH   1   4
BRANCH   1   9
ATOM      9  C   UNL     1       3.161   5.835  19.490  0.00  0.00    +0.000 C 
BRANCH   9  10
ATOM     10  C   UNL     1       2.996   6.408  18.076  0.00  0.00    +0.000 C 
ATOM     11  F   UNL     1       4.071   7.117  17.672  0.00  0.00    +0.000 F 
ATOM     12  F   UNL     1       2.801   5.414  17.178  0.00  0.00    +0.000 F 
ATOM     13  F   UNL     1       1.919   7.224  18.010  0.00  0.00    +0.000 F 
ENDBRANCH   9  10
ENDBRANCH   1   9
BRANCH   2  14
ATOM     14  C   UNL     1       5.912   4.802  19.131  0.00  0.00    +0.000 C 
BRANCH  14  15
ATOM     15  C   UNL     1       6.387   4.649  17.726  0.00  0.00    +0.000 A 
ATOM     16  C   UNL     1       7.694   4.843  17.215  0.00  0.00    +0.000 A 
ATOM     17  N   UNL     1       7.763   4.648  15.897  0.00  0.00    +0.000 NA
ATOM     18  N   UNL     1       6.513   4.293  15.559  0.00  0.00    +0.000 N 
ATOM     19  C   UNL     1       6.185   4.011  14.183  0.00  0.00    +0.000 C 
ATOM     20  C   UNL     1       5.654   4.268  16.621  0.00  0.00    +0.000 A 
ENDBRANCH  14  15
ENDBRANCH   2  14
TORSDOF 6
ENDMDL
MODEL 5
REMARK VINA RESULT:      -6.3      2.641      3.592
REMARK  Name = 
REMARK  10 active torsions:
REMARK  status: ('A' for Active; 'I' for Inactive)
REMARK    1  A    between atoms: C_1  and  C_2
REMARK    2  A    between atoms: C_2  and  C_3
REMARK    3  A    between atoms: C_2  and  C_4
REMARK    4  A    between atoms: C_4  and  C_5
REMARK    5  A    between atoms: C_4  and  N_6
REMARK    6  A    between atoms: N_6  and  C_7
REMARK    7  A    between atoms: C_7  and  C_8
REMARK    8  A    between atoms: C_12  and  C_14
REMARK    9  A    between atoms: C_14  and  C_15
REMARK   10  A    between atoms: N_18  and  C_19
REMARK                            x       y       z     vdW  Elec       q    Type
REMARK                         _______ _______ _______ _____ _____    ______ ____
ROOT
ATOM      1  N   UNL     1       3.721   4.324  17.917  0.00  0.00    +0.000 N 
ATOM      2  C   UNL     1       4.917   5.028  17.762  0.00  0.00    +0.000 C 
ATOM      3  O   UNL     1       4.988   6.250  17.904  0.00  0.00    +0.000 OA
ENDROOT
BRANCH   1   4
ATOM      4  C   UNL     1       2.472   5.061  18.255  0.00  0.00    +0.000 C 
ATOM      5  C   UNL     1       1.233   4.409  17.623  0.00  0.00    +0.000 C 
BRANCH   4   7
ATOM      6  C   UNL     1       1.212   4.493  20.433  0.00  0.00    +0.000 C 
ATOM      7  C   UNL     1       2.348   5.294  19.792  0.00  0.00    +0.000 C 
ATOM      8  C   UNL     1       2.137   6.783  20.108  0.00  0.00    +0.000 C 
ENDBRANCH   4   7
ENDBRANCH   1   4
BRANCH   1   9
ATOM      9  C   UNL     1       3.583   2.870  17.653  0.00  0.00    +0.000 C 
BRANCH   9  10
ATOM     10  C   UNL     1       3.569   1.943  18.875  0.00  0.00    +0.000 C 
ATOM     11  F   UNL     1       4.242   2.459  19.927  0.00  0.00    +0.000 F 
ATOM     12  F   UNL     1       2.300   1.705  19.280  0.00  0.00    +0.000 F 
ATOM     13  F   UNL     1       4.127   0.747  18.580  0.00  0.00    +0.000 F 
ENDBRANCH   9  10
ENDBRANCH   1   9
BRANCH   2  14
ATOM     14  C   UNL     1       6.176   4.266  17.356  0.00  0.00    +0.000 C 
BRANCH  14  15
ATOM     15  C   UNL     1       6.446   4.355  15.892  0.00  0.00    +0.000 A 
ATOM     16  C   UNL     1       5.859   3.604  14.844  0.00  0.00    +0.000 A 
ATOM     17  N   UNL     1       6.356   3.921  13.646  0.00  0.00    +0.000 NA
ATOM     18  N   UNL     1       7.236   4.899  13.913  0.00  0.00    +0.000 N 
ATOM     19  C   UNL     1       8.000   5.498  12.846  0.00  0.00    +0.000 C 
ATOM     20  C   UNL     1       7.319   5.204  15.241  0.00  0.00    +0.000 A 
ENDBRANCH  14  15
ENDBRANCH   2  14
TORSDOF 6
ENDMDL
MODEL 6
REMARK VINA RESULT:      -6.2      1.663      2.150
REMARK  Name = 
REMARK  10 active torsions:
REMARK  status: ('A' for Active; 'I' for Inactive)
REMARK    1  A    between atoms: C_1  and  C_2
REMARK    2  A    between atoms: C_2  and  C_3
REMARK    3  A    between atoms: C_2  and  C_4
REMARK    4  A    between atoms: C_4  and  C_5
REMARK    5  A    between atoms: C_4  and  N_6
REMARK    6  A    between atoms: N_6  and  C_7
REMARK    7  A    between atoms: C_7  and  C_8
REMARK    8  A    between atoms: C_12  and  C_14
REMARK    9  A    between atoms: C_14  and  C_15
REMARK   10  A    between atoms: N_18  and  C_19
REMARK                            x       y       z     vdW  Elec       q    Type
REMARK                         _______ _______ _______ _____ _____    ______ ____
ROOT
ATOM      1  N   UNL     1       3.653   4.177  18.795  0.00  0.00    +0.000 N 
ATOM      2  C   UNL     1       4.187   4.051  17.511  0.00  0.00    +0.000 C 
ATOM      3  O   UNL     1       4.268   2.965  16.934  0.00  0.00    +0.000 OA
ENDROOT
BRANCH   1   4
ATOM      4  C   UNL     1       3.171   2.966  19.514  0.00  0.00    +0.000 C 
ATOM      5  C   UNL     1       4.230   2.415  20.481  0.00  0.00    +0.000 C 
BRANCH   4   7
ATOM      6  C   UNL     1       1.662   2.605  21.576  0.00  0.00    +0.000 C 
ATOM      7  C   UNL     1       1.781   3.214  20.175  0.00  0.00    +0.000 C 
ATOM      8  C   UNL     1       0.647   2.655  19.301  0.00  0.00    +0.000 C 
ENDBRANCH   4   7
ENDBRANCH   1   4
BRANCH   1   9
ATOM      9  C   UNL     1       3.634   5.452  19.556  0.00  0.00    +0.000 C 
BRANCH   9  10
ATOM     10  C   UNL     1       2.465   6.406  19.277  0.00  0.00    +0.000 C 
ATOM     11  F   UNL     1       1.657   6.565  20.347  0.00  0.00    +0.000 F 
ATOM     12  F   UNL     1       2.921   7.631  18.925  0.00  0.00    +0.000 F 
ATOM     13  F   UNL     1       1.705   5.952  18.255  0.00  0.00    +0.000 F 
ENDBRANCH   9  10
ENDBRANCH   1   9
BRANCH   2  14
ATOM     14  C   UNL     1       4.732   5.293  16.811  0.00  0.00    +0.000 C 
BRANCH  14  15
ATOM     15  C   UNL     1       5.663   4.954  15.697  0.00  0.00    +0.000 A 
ATOM     16  C   UNL     1       7.070   5.108  15.649  0.00  0.00    +0.000 A 
ATOM     17  N   UNL     1       7.589   4.728  14.480  0.00  0.00    +0.000 NA
ATOM     18  N   UNL     1       6.525   4.295  13.784  0.00  0.00    +0.000 N 
ATOM     19  C   UNL     1       6.690   3.810  12.435  0.00  0.00    +0.000 C 
ATOM     20  C   UNL     1       5.350   4.399  14.472  0.00  0.00    +0.000 A 
ENDBRANCH  14  15
ENDBRANCH   2  14
TORSDOF 6
ENDMDL
MODEL 7
REMARK VINA RESULT:      -6.0      2.246      5.721
REMARK  Name = 
REMARK  10 active torsions:
REMARK  status: ('A' for Active; 'I' for Inactive)
REMARK    1  A    between atoms: C_1  and  C_2
REMARK    2  A    between atoms: C_2  and  C_3
REMARK    3  A    between atoms: C_2  and  C_4
REMARK    4  A    between atoms: C_4  and  C_5
REMARK    5  A    between atoms: C_4  and  N_6
REMARK    6  A    between atoms: N_6  and  C_7
REMARK    7  A    between atoms: C_7  and  C_8
REMARK    8  A    between atoms: C_12  and  C_14
REMARK    9  A    between atoms: C_14  and  C_15
REMARK   10  A    between atoms: N_18  and  C_19
REMARK                            x       y       z     vdW  Elec       q    Type
REMARK                         _______ _______ _______ _____ _____    ______ ____
ROOT
ATOM      1  N   UNL     1       5.798   4.445  16.591  0.00  0.00    +0.000 N 
ATOM      2  C   UNL     1       4.779   3.925  17.392  0.00  0.00    +0.000 C 
ATOM      3  O   UNL     1       3.633   3.751  16.972  0.00  0.00    +0.000 OA
ENDROOT
BRANCH   1   4
ATOM      4  C   UNL     1       5.506   4.821  15.180  0.00  0.00    +0.000 C 
ATOM      5  C   UNL     1       5.298   6.335  15.022  0.00  0.00    +0.000 C 
BRANCH   4   7
ATOM      6  C   UNL     1       7.550   5.269  13.670  0.00  0.00    +0.000 C 
ATOM      7  C   UNL     1       6.565   4.224  14.204  0.00  0.00    +0.000 C 
ATOM      8  C   UNL     1       5.887   3.536  13.009  0.00  0.00    +0.000 C 
ENDBRANCH   4   7
ENDBRANCH   1   4
BRANCH   1   9
ATOM      9  C   UNL     1       7.158   4.762  17.095  0.00  0.00    +0.000 C 
BRANCH   9  10
ATOM     10  C   UNL     1       7.347   6.130  17.763  0.00  0.00    +0.000 C 
ATOM     11  F   UNL     1       7.898   7.043  16.934  0.00  0.00    +0.000 F 
ATOM     12  F   UNL     1       6.159   6.625  18.183  0.00  0.00    +0.000 F 
ATOM     13  F   UNL     1       8.147   6.030  18.849  0.00  0.00    +0.000 F 
ENDBRANCH   9  10
ENDBRANCH   1   9
BRANCH   2  14
ATOM     14  C   UNL     1       5.078   3.602  18.854  0.00  0.00    +0.000 C 
BRANCH  14  15
ATOM     15  C   UNL     1       3.870   3.717  19.719  0.00  0.00    +0.000 A 
ATOM     16  C   UNL     1       3.142   4.884  20.061  0.00  0.00    +0.000 A 
ATOM     17  N   UNL     1       2.124   4.630  20.885  0.00  0.00    +0.000 NA
ATOM     18  N   UNL     1       2.168   3.297  21.048  0.00  0.00    +0.000 N 
ATOM     19  C   UNL     1       1.213   2.639  21.905  0.00  0.00    +0.000 C 
ATOM     20  C   UNL     1       3.189   2.703  20.362  0.00  0.00    +0.000 A 
ENDBRANCH  14  15
ENDBRANCH   2  14
TORSDOF 6
ENDMDL
MODEL 8
REMARK VINA RESULT:      -6.0      1.752      2.265
REMARK  Name = 
REMARK  10 active torsions:
REMARK  status: ('A' for Active; 'I' for Inactive)
REMARK    1  A    between atoms: C_1  and  C_2
REMARK    2  A    between atoms: C_2  and  C_3
REMARK    3  A    between atoms: C_2  and  C_4
REMARK    4  A    between atoms: C_4  and  C_5
REMARK    5  A    between atoms: C_4  and  N_6
REMARK    6  A    between atoms: N_6  and  C_7
REMARK    7  A    between atoms: C_7  and  C_8
REMARK    8  A    between atoms: C_12  and  C_14
REMARK    9  A    between atoms: C_14  and  C_15
REMARK   10  A    between atoms: N_18  and  C_19
REMARK                            x       y       z     vdW  Elec       q    Type
REMARK                         _______ _______ _______ _____ _____    ______ ____
ROOT
ATOM      1  N   UNL     1       3.146   4.207  18.187  0.00  0.00    +0.000 N 
ATOM      2  C   UNL     1       4.275   4.169  17.368  0.00  0.00    +0.000 C 
ATOM      3  O   UNL     1       5.022   3.189  17.316  0.00  0.00    +0.000 OA
ENDROOT
BRANCH   1   4
ATOM      4  C   UNL     1       2.821   3.036  19.047  0.00  0.00    +0.000 C 
ATOM      5  C   UNL     1       3.883   2.810  20.134  0.00  0.00    +0.000 C 
BRANCH   4   7
ATOM      6  C   UNL     1       1.270   2.845  21.100  0.00  0.00    +0.000 C 
ATOM      7  C   UNL     1       1.364   3.122  19.597  0.00  0.00    +0.000 C 
ATOM      8  C   UNL     1       0.438   2.143  18.860  0.00  0.00    +0.000 C 
ENDBRANCH   4   7
ENDBRANCH   1   4
BRANCH   1   9
ATOM      9  C   UNL     1       2.287   5.407  18.348  0.00  0.00    +0.000 C 
BRANCH   9  10
ATOM     10  C   UNL     1       2.691   6.405  19.440  0.00  0.00    +0.000 C 
ATOM     11  F   UNL     1       2.737   7.678  18.991  0.00  0.00    +0.000 F 
ATOM     12  F   UNL     1       1.814   6.368  20.471  0.00  0.00    +0.000 F 
ATOM     13  F   UNL     1       3.911   6.104  19.941  0.00  0.00    +0.000 F 
ENDBRANCH   9  10
ENDBRANCH   1   9
BRANCH   2  14
ATOM     14  C   UNL     1       4.629   5.401  16.538  0.00  0.00    +0.000 C 
BRANCH  14  15
ATOM     15  C   UNL     1       5.619   5.097  15.465  0.00  0.00    +0.000 A 
ATOM     16  C   UNL     1       6.988   5.456  15.406  0.00  0.00    +0.000 A 
ATOM     17  N   UNL     1       7.577   5.045  14.281  0.00  0.00    +0.000 NA
ATOM     18  N   UNL     1       6.602   4.391  13.629  0.00  0.00    +0.000 N 
ATOM     19  C   UNL     1       6.861   3.805  12.336  0.00  0.00    +0.000 C 
ATOM     20  C   UNL     1       5.414   4.384  14.301  0.00  0.00    +0.000 A 
ENDBRANCH  14  15
ENDBRANCH   2  14
TORSDOF 6
ENDMDL
MODEL 9
REMARK VINA RESULT:      -6.0      1.737      2.515
REMARK  Name = 
REMARK  10 active torsions:
REMARK  status: ('A' for Active; 'I' for Inactive)
REMARK    1  A    between atoms: C_1  and  C_2
REMARK    2  A    between atoms: C_2  and  C_3
REMARK    3  A    between atoms: C_2  and  C_4
REMARK    4  A    between atoms: C_4  and  C_5
REMARK    5  A    between atoms: C_4  and  N_6
REMARK    6  A    between atoms: N_6  and  C_7
REMARK    7  A    between atoms: C_7  and  C_8
REMARK    8  A    between atoms: C_12  and  C_14
REMARK    9  A    between atoms: C_14  and  C_15
REMARK   10  A    between atoms: N_18  and  C_19
REMARK                            x       y       z     vdW  Elec       q    Type
REMARK                         _______ _______ _______ _____ _____    ______ ____
ROOT
ATOM      1  N   UNL     1       3.692   4.192  18.693  0.00  0.00    +0.000 N 
ATOM      2  C   UNL     1       4.218   3.980  17.418  0.00  0.00    +0.000 C 
ATOM      3  O   UNL     1       4.331   2.855  16.928  0.00  0.00    +0.000 OA
ENDROOT
BRANCH   1   4
ATOM      4  C   UNL     1       3.258   3.027  19.512  0.00  0.00    +0.000 C 
ATOM      5  C   UNL     1       4.421   2.427  20.318  0.00  0.00    +0.000 C 
BRANCH   4   7
ATOM      6  C   UNL     1       2.019   2.707  21.753  0.00  0.00    +0.000 C 
ATOM      7  C   UNL     1       2.006   3.375  20.375  0.00  0.00    +0.000 C 
ATOM      8  C   UNL     1       0.710   2.981  19.651  0.00  0.00    +0.000 C 
ENDBRANCH   4   7
ENDBRANCH   1   4
BRANCH   1   9
ATOM      9  C   UNL     1       3.638   5.522  19.350  0.00  0.00    +0.000 C 
BRANCH   9  10
ATOM     10  C   UNL     1       2.534   6.480  18.882  0.00  0.00    +0.000 C 
ATOM     11  F   UNL     1       1.752   6.908  19.896  0.00  0.00    +0.000 F 
ATOM     12  F   UNL     1       3.069   7.574  18.290  0.00  0.00    +0.000 F 
ATOM     13  F   UNL     1       1.732   5.883  17.970  0.00  0.00    +0.000 F 
ENDBRANCH   9  10
ENDBRANCH   1   9
BRANCH   2  14
ATOM     14  C   UNL     1       4.716   5.179  16.614  0.00  0.00    +0.000 C 
BRANCH  14  15
ATOM     15  C   UNL     1       5.930   5.801  17.215  0.00  0.00    +0.000 A 
ATOM     16  C   UNL     1       6.954   5.177  17.969  0.00  0.00    +0.000 A 
ATOM     17  N   UNL     1       7.885   6.039  18.381  0.00  0.00    +0.000 NA
ATOM     18  N   UNL     1       7.486   7.213  17.866  0.00  0.00    +0.000 N 
ATOM     19  C   UNL     1       8.248   8.412  18.115  0.00  0.00    +0.000 C 
ATOM     20  C   UNL     1       6.327   7.121  17.149  0.00  0.00    +0.000 A 
ENDBRANCH  14  15
ENDBRANCH   2  14
TORSDOF 6
ENDMDL
