MODEL 1
REMARK VINA RESULT:      -8.9      0.000      0.000
REMARK  Name = 
REMARK  4 active torsions:
REMARK  status: ('A' for Active; 'I' for Inactive)
REMARK    1  A    between atoms: C_2  and  C_3
REMARK    2  A    between atoms: N_8  and  C_9
REMARK    3  A    between atoms: C_14  and  C_15
REMARK    4  A    between atoms: C_15  and  C_16
REMARK                            x       y       z     vdW  Elec       q    Type
REMARK                         _______ _______ _______ _____ _____    ______ ____
ROOT
ATOM      1  C   UNL     1       2.142   7.488  19.623  0.00  0.00    +0.000 A 
ATOM      2  C   UNL     1       2.877   7.777  18.474  0.00  0.00    +0.000 A 
ATOM      3  C   UNL     1       3.293   6.745  17.632  0.00  0.00    +0.000 A 
ATOM      4  C   UNL     1       2.985   5.419  17.939  0.00  0.00    +0.000 A 
ATOM      5  F   UNL     1       3.379   4.468  17.080  0.00  0.00    +0.000 F 
ATOM      6  C   UNL     1       2.279   5.075  19.097  0.00  0.00    +0.000 A 
ATOM      7  C   UNL     1       1.914   6.138  19.946  0.00  0.00    +0.000 A 
ENDROOT
BRANCH   1  13
ATOM      8  C   UNL     1      -1.788  11.598  22.573  0.00  0.00    +0.000 A 
ATOM      9  C   UNL     1      -0.906  10.633  23.027  0.00  0.00    +0.000 A 
ATOM     10  N   UNL     1      -0.061   9.938  22.224  0.00  0.00    +0.000 NA
ATOM     11  C   UNL     1      -0.043  10.232  20.893  0.00  0.00    +0.000 A 
ATOM     12  C   UNL     1       0.794   9.577  19.972  0.00  0.00    +0.000 A 
ATOM     13  N   UNL     1       1.662   8.543  20.435  0.00  0.00    +0.000 N 
ATOM     14  N   UNL     1       0.852   9.911  18.653  0.00  0.00    +0.000 NA
ATOM     15  C   UNL     1       0.010  10.841  18.185  0.00  0.00    +0.000 A 
ATOM     16  C   UNL     1      -0.894  11.502  18.985  0.00  0.00    +0.000 A 
ATOM     17  C   UNL     1      -0.911  11.209  20.352  0.00  0.00    +0.000 A 
ATOM     18  C   UNL     1      -1.794  11.881  21.211  0.00  0.00    +0.000 A 
ATOM     19  H   UNL     1       1.336   8.213  21.343  0.00  0.00    +0.000 HD
BRANCH   8  21
ATOM     20  N   UNL     1      -3.369  12.842  24.202  0.00  0.00    +0.000 NA
ATOM     21  C   UNL     1      -2.656  12.286  23.474  0.00  0.00    +0.000 C 
ENDBRANCH   8  21
ENDBRANCH   1  13
BRANCH   6  22
ATOM     22  C   UNL     1       1.875   3.618  19.423  0.00  0.00    +0.000 C 
ATOM     23  N   UNL     1       3.008   2.687  19.189  0.00  0.00    +0.000 NA
ATOM     24  C   UNL     1       3.830   2.440  20.143  0.00  0.00    +0.000 C 
ATOM     25  N   UNL     1       4.947   1.694  19.970  0.00  0.00    +0.000 N 
ATOM     26  O   UNL     1       3.697   2.826  21.434  0.00  0.00    +0.000 OA
ATOM     27  C   UNL     1       2.407   3.241  21.899  0.00  0.00    +0.000 C 
ATOM     28  C   UNL     1       1.286   2.264  21.653  0.00  0.00    +0.000 C 
ATOM     29  C   UNL     1       1.387   3.547  20.855  0.00  0.00    +0.000 C 
ATOM     30  H   UNL     1       4.883   1.091  19.161  0.00  0.00    +0.000 HD
ATOM     31  H   UNL     1       5.250   1.232  20.817  0.00  0.00    +0.000 HD
BRANCH  22  32
ATOM     32  C   UNL     1       0.738   3.181  18.462  0.00  0.00    +0.000 C 
ATOM     33  F   UNL     1       0.574   1.825  18.496  0.00  0.00    +0.000 F 
ENDBRANCH  22  32
ENDBRANCH   6  22
TORSDOF 4
ENDMDL
MODEL 2
REMARK VINA RESULT:      -8.8      2.733      3.936
REMARK  Name = 
REMARK  4 active torsions:
REMARK  status: ('A' for Active; 'I' for Inactive)
REMARK    1  A    between atoms: C_2  and  C_3
REMARK    2  A    between atoms: N_8  and  C_9
REMARK    3  A    between atoms: C_14  and  C_15
REMARK    4  A    between atoms: C_15  and  C_16
REMARK                            x       y       z     vdW  Elec       q    Type
REMARK                         _______ _______ _______ _____ _____    ______ ____
ROOT
ATOM      1  C   UNL     1       2.619   6.114  19.556  0.00  0.00    +0.000 A 
ATOM      2  C   UNL     1       1.944   4.911  19.763  0.00  0.00    +0.000 A 
ATOM      3  C   UNL     1       2.332   3.763  19.070  0.00  0.00    +0.000 A 
ATOM      4  C   UNL     1       3.388   3.815  18.159  0.00  0.00    +0.000 A 
ATOM      5  F   UNL     1       3.740   2.677  17.545  0.00  0.00    +0.000 F 
ATOM      6  C   UNL     1       4.074   5.004  17.892  0.00  0.00    +0.000 A 
ATOM      7  C   UNL     1       3.628   6.151  18.576  0.00  0.00    +0.000 A 
ENDROOT
BRANCH   1  13
ATOM      8  C   UNL     1      -0.762  10.892  22.157  0.00  0.00    +0.000 A 
ATOM      9  C   UNL     1      -0.078   9.813  22.688  0.00  0.00    +0.000 A 
ATOM     10  N   UNL     1       0.690   8.966  21.956  0.00  0.00    +0.000 NA
ATOM     11  C   UNL     1       0.836   9.211  20.624  0.00  0.00    +0.000 A 
ATOM     12  C   UNL     1       1.610   8.402  19.773  0.00  0.00    +0.000 A 
ATOM     13  N   UNL     1       2.269   7.256  20.313  0.00  0.00    +0.000 N 
ATOM     14  N   UNL     1       1.801   8.680  18.454  0.00  0.00    +0.000 NA
ATOM     15  C   UNL     1       1.152   9.719  17.912  0.00  0.00    +0.000 A 
ATOM     16  C   UNL     1       0.320  10.541  18.638  0.00  0.00    +0.000 A 
ATOM     17  C   UNL     1       0.173  10.298  20.007  0.00  0.00    +0.000 A 
ATOM     18  C   UNL     1      -0.639  11.130  20.792  0.00  0.00    +0.000 A 
ATOM     19  H   UNL     1       1.839   7.013  21.205  0.00  0.00    +0.000 HD
BRANCH   8  21
ATOM     20  N   UNL     1      -2.206  12.434  23.654  0.00  0.00    +0.000 NA
ATOM     21  C   UNL     1      -1.561  11.739  22.985  0.00  0.00    +0.000 C 
ENDBRANCH   8  21
ENDBRANCH   1  13
BRANCH   6  22
ATOM     22  C   UNL     1       5.286   5.067  16.933  0.00  0.00    +0.000 C 
ATOM     23  N   UNL     1       5.683   6.474  16.670  0.00  0.00    +0.000 NA
ATOM     24  C   UNL     1       6.540   7.042  17.437  0.00  0.00    +0.000 C 
ATOM     25  N   UNL     1       6.862   8.353  17.329  0.00  0.00    +0.000 N 
ATOM     26  O   UNL     1       7.267   6.441  18.408  0.00  0.00    +0.000 OA
ATOM     27  C   UNL     1       7.387   5.013  18.394  0.00  0.00    +0.000 C 
ATOM     28  C   UNL     1       7.875   4.418  17.099  0.00  0.00    +0.000 C 
ATOM     29  C   UNL     1       6.430   4.271  17.525  0.00  0.00    +0.000 C 
ATOM     30  H   UNL     1       6.647   8.725  16.413  0.00  0.00    +0.000 HD
ATOM     31  H   UNL     1       7.795   8.561  17.659  0.00  0.00    +0.000 HD
BRANCH  22  32
ATOM     32  C   UNL     1       4.881   4.459  15.564  0.00  0.00    +0.000 C 
ATOM     33  F   UNL     1       5.595   5.035  14.551  0.00  0.00    +0.000 F 
ENDBRANCH  22  32
ENDBRANCH   6  22
TORSDOF 4
ENDMDL
MODEL 3
REMARK VINA RESULT:      -8.7      2.618      3.940
REMARK  Name = 
REMARK  4 active torsions:
REMARK  status: ('A' for Active; 'I' for Inactive)
REMARK    1  A    between atoms: C_2  and  C_3
REMARK    2  A    between atoms: N_8  and  C_9
REMARK    3  A    between atoms: C_14  and  C_15
REMARK    4  A    between atoms: C_15  and  C_16
REMARK                            x       y       z     vdW  Elec       q    Type
REMARK                         _______ _______ _______ _____ _____    ______ ____
ROOT
ATOM      1  C   UNL     1       2.423   6.272  19.935  0.00  0.00    +0.000 A 
ATOM      2  C   UNL     1       1.585   5.166  19.800  0.00  0.00    +0.000 A 
ATOM      3  C   UNL     1       2.029   4.032  19.117  0.00  0.00    +0.000 A 
ATOM      4  C   UNL     1       3.307   4.004  18.556  0.00  0.00    +0.000 A 
ATOM      5  F   UNL     1       3.695   2.879  17.939  0.00  0.00    +0.000 F 
ATOM      6  C   UNL     1       4.171   5.101  18.635  0.00  0.00    +0.000 A 
ATOM      7  C   UNL     1       3.674   6.243  19.294  0.00  0.00    +0.000 A 
ENDROOT
BRANCH   1  13
ATOM      8  C   UNL     1      -1.218  10.964  22.336  0.00  0.00    +0.000 A 
ATOM      9  C   UNL     1      -0.586   9.869  22.898  0.00  0.00    +0.000 A 
ATOM     10  N   UNL     1       0.254   9.046  22.220  0.00  0.00    +0.000 NA
ATOM     11  C   UNL     1       0.531   9.333  20.917  0.00  0.00    +0.000 A 
ATOM     12  C   UNL     1       1.388   8.552  20.122  0.00  0.00    +0.000 A 
ATOM     13  N   UNL     1       1.995   7.390  20.689  0.00  0.00    +0.000 N 
ATOM     14  N   UNL     1       1.708   8.872  18.838  0.00  0.00    +0.000 NA
ATOM     15  C   UNL     1       1.112   9.926  18.267  0.00  0.00    +0.000 A 
ATOM     16  C   UNL     1       0.209  10.725  18.933  0.00  0.00    +0.000 A 
ATOM     17  C   UNL     1      -0.072  10.439  20.272  0.00  0.00    +0.000 A 
ATOM     18  C   UNL     1      -0.961  11.245  20.998  0.00  0.00    +0.000 A 
ATOM     19  H   UNL     1       1.479   7.118  21.525  0.00  0.00    +0.000 HD
BRANCH   8  21
ATOM     20  N   UNL     1      -2.818  12.449  23.727  0.00  0.00    +0.000 NA
ATOM     21  C   UNL     1      -2.098  11.783  23.107  0.00  0.00    +0.000 C 
ENDBRANCH   8  21
ENDBRANCH   1  13
BRANCH   6  22
ATOM     22  C   UNL     1       5.612   5.066  18.074  0.00  0.00    +0.000 C 
ATOM     23  N   UNL     1       5.671   4.294  16.807  0.00  0.00    +0.000 NA
ATOM     24  C   UNL     1       5.486   4.898  15.690  0.00  0.00    +0.000 C 
ATOM     25  N   UNL     1       5.411   4.242  14.508  0.00  0.00    +0.000 N 
ATOM     26  O   UNL     1       5.388   6.237  15.511  0.00  0.00    +0.000 OA
ATOM     27  C   UNL     1       5.859   7.107  16.548  0.00  0.00    +0.000 C 
ATOM     28  C   UNL     1       7.276   6.864  17.001  0.00  0.00    +0.000 C 
ATOM     29  C   UNL     1       6.104   6.485  17.881  0.00  0.00    +0.000 C 
ATOM     30  H   UNL     1       5.850   3.332  14.548  0.00  0.00    +0.000 HD
ATOM     31  H   UNL     1       5.693   4.811  13.720  0.00  0.00    +0.000 HD
BRANCH  22  32
ATOM     32  C   UNL     1       6.531   4.329  19.084  0.00  0.00    +0.000 C 
ATOM     33  F   UNL     1       7.121   5.220  19.936  0.00  0.00    +0.000 F 
ENDBRANCH  22  32
ENDBRANCH   6  22
TORSDOF 4
ENDMDL
MODEL 4
REMARK VINA RESULT:      -8.6      2.288      3.333
REMARK  Name = 
REMARK  4 active torsions:
REMARK  status: ('A' for Active; 'I' for Inactive)
REMARK    1  A    between atoms: C_2  and  C_3
REMARK    2  A    between atoms: N_8  and  C_9
REMARK    3  A    between atoms: C_14  and  C_15
REMARK    4  A    between atoms: C_15  and  C_16
REMARK                            x       y       z     vdW  Elec       q    Type
REMARK                         _______ _______ _______ _____ _____    ______ ____
ROOT
ATOM      1  C   UNL     1       1.810   5.768  20.440  0.00  0.00    +0.000 A 
ATOM      2  C   UNL     1       0.739   4.880  20.340  0.00  0.00    +0.000 A 
ATOM      3  C   UNL     1       0.922   3.626  19.756  0.00  0.00    +0.000 A 
ATOM      4  C   UNL     1       2.173   3.257  19.259  0.00  0.00    +0.000 A 
ATOM      5  F   UNL     1       2.302   2.029  18.737  0.00  0.00    +0.000 F 
ATOM      6  C   UNL     1       3.270   4.125  19.304  0.00  0.00    +0.000 A 
ATOM      7  C   UNL     1       3.038   5.397  19.861  0.00  0.00    +0.000 A 
ENDROOT
BRANCH   1  13
ATOM      8  C   UNL     1      -0.673  11.363  22.326  0.00  0.00    +0.000 A 
ATOM      9  C   UNL     1      -0.352  10.193  22.991  0.00  0.00    +0.000 A 
ATOM     10  N   UNL     1       0.290   9.144  22.416  0.00  0.00    +0.000 NA
ATOM     11  C   UNL     1       0.683   9.259  21.117  0.00  0.00    +0.000 A 
ATOM     12  C   UNL     1       1.357   8.237  20.424  0.00  0.00    +0.000 A 
ATOM     13  N   UNL     1       1.637   7.009  21.096  0.00  0.00    +0.000 N 
ATOM     14  N   UNL     1       1.799   8.374  19.144  0.00  0.00    +0.000 NA
ATOM     15  C   UNL     1       1.504   9.495  18.474  0.00  0.00    +0.000 A 
ATOM     16  C   UNL     1       0.796  10.535  19.034  0.00  0.00    +0.000 A 
ATOM     17  C   UNL     1       0.397  10.425  20.370  0.00  0.00    +0.000 A 
ATOM     18  C   UNL     1      -0.299  11.473  20.991  0.00  0.00    +0.000 A 
ATOM     19  H   UNL     1       1.036   6.932  21.916  0.00  0.00    +0.000 HD
BRANCH   8  21
ATOM     20  N   UNL     1      -1.917  13.291  23.524  0.00  0.00    +0.000 NA
ATOM     21  C   UNL     1      -1.358  12.425  22.991  0.00  0.00    +0.000 C 
ENDBRANCH   8  21
ENDBRANCH   1  13
BRANCH   6  22
ATOM     22  C   UNL     1       4.677   3.712  18.815  0.00  0.00    +0.000 C 
ATOM     23  N   UNL     1       4.683   3.476  17.349  0.00  0.00    +0.000 NA
ATOM     24  C   UNL     1       4.934   4.451  16.554  0.00  0.00    +0.000 C 
ATOM     25  N   UNL     1       4.843   4.338  15.207  0.00  0.00    +0.000 N 
ATOM     26  O   UNL     1       5.358   5.686  16.911  0.00  0.00    +0.000 OA
ATOM     27  C   UNL     1       5.915   5.872  18.218  0.00  0.00    +0.000 C 
ATOM     28  C   UNL     1       7.042   4.939  18.579  0.00  0.00    +0.000 C 
ATOM     29  C   UNL     1       5.673   4.783  19.207  0.00  0.00    +0.000 C 
ATOM     30  H   UNL     1       4.910   3.377  14.899  0.00  0.00    +0.000 HD
ATOM     31  H   UNL     1       5.448   4.981  14.714  0.00  0.00    +0.000 HD
BRANCH  22  32
ATOM     32  C   UNL     1       5.070   2.366  19.481  0.00  0.00    +0.000 C 
ATOM     33  F   UNL     1       4.696   2.352  20.795  0.00  0.00    +0.000 F 
ENDBRANCH  22  32
ENDBRANCH   6  22
TORSDOF 4
ENDMDL
MODEL 5
REMARK VINA RESULT:      -8.4      1.900      2.547
REMARK  Name = 
REMARK  4 active torsions:
REMARK  status: ('A' for Active; 'I' for Inactive)
REMARK    1  A    between atoms: C_2  and  C_3
REMARK    2  A    between atoms: N_8  and  C_9
REMARK    3  A    between atoms: C_14  and  C_15
REMARK    4  A    between atoms: C_15  and  C_16
REMARK                            x       y       z     vdW  Elec       q    Type
REMARK                         _______ _______ _______ _____ _____    ______ ____
ROOT
ATOM      1  C   UNL     1       2.700   7.377  18.115  0.00  0.00    +0.000 A 
ATOM      2  C   UNL     1       3.960   7.513  17.534  0.00  0.00    +0.000 A 
ATOM      3  C   UNL     1       4.760   6.388  17.328  0.00  0.00    +0.000 A 
ATOM      4  C   UNL     1       4.309   5.124  17.711  0.00  0.00    +0.000 A 
ATOM      5  F   UNL     1       5.103   4.073  17.461  0.00  0.00    +0.000 F 
ATOM      6  C   UNL     1       3.068   4.940  18.329  0.00  0.00    +0.000 A 
ATOM      7  C   UNL     1       2.306   6.102  18.561  0.00  0.00    +0.000 A 
ENDROOT
BRANCH   1  13
ATOM      8  C   UNL     1       0.424  13.070  19.972  0.00  0.00    +0.000 A 
ATOM      9  C   UNL     1       0.788  12.546  18.744  0.00  0.00    +0.000 A 
ATOM     10  N   UNL     1       1.141  11.250  18.546  0.00  0.00    +0.000 NA
ATOM     11  C   UNL     1       1.095  10.396  19.606  0.00  0.00    +0.000 A 
ATOM     12  C   UNL     1       1.435   9.034  19.513  0.00  0.00    +0.000 A 
ATOM     13  N   UNL     1       1.864   8.510  18.257  0.00  0.00    +0.000 N 
ATOM     14  N   UNL     1       1.334   8.170  20.560  0.00  0.00    +0.000 NA
ATOM     15  C   UNL     1       0.984   8.648  21.761  0.00  0.00    +0.000 A 
ATOM     16  C   UNL     1       0.689   9.975  21.980  0.00  0.00    +0.000 A 
ATOM     17  C   UNL     1       0.728  10.853  20.894  0.00  0.00    +0.000 A 
ATOM     18  C   UNL     1       0.403  12.208  21.064  0.00  0.00    +0.000 A 
ATOM     19  H   UNL     1       2.152   9.280  17.654  0.00  0.00    +0.000 HD
BRANCH   8  21
ATOM     20  N   UNL     1      -0.222  15.563  20.227  0.00  0.00    +0.000 NA
ATOM     21  C   UNL     1       0.072  14.447  20.112  0.00  0.00    +0.000 C 
ENDBRANCH   8  21
ENDBRANCH   1  13
BRANCH   6  22
ATOM     22  C   UNL     1       2.525   3.542  18.705  0.00  0.00    +0.000 C 
ATOM     23  N   UNL     1       3.636   2.602  19.003  0.00  0.00    +0.000 NA
ATOM     24  C   UNL     1       4.080   2.509  20.202  0.00  0.00    +0.000 C 
ATOM     25  N   UNL     1       5.163   1.763  20.525  0.00  0.00    +0.000 N 
ATOM     26  O   UNL     1       3.537   3.079  21.304  0.00  0.00    +0.000 OA
ATOM     27  C   UNL     1       2.181   3.541  21.242  0.00  0.00    +0.000 C 
ATOM     28  C   UNL     1       1.172   2.523  20.776  0.00  0.00    +0.000 C 
ATOM     29  C   UNL     1       1.583   3.675  19.883  0.00  0.00    +0.000 C 
ATOM     30  H   UNL     1       5.352   1.046  19.837  0.00  0.00    +0.000 HD
ATOM     31  H   UNL     1       5.147   1.434  21.481  0.00  0.00    +0.000 HD
BRANCH  22  32
ATOM     32  C   UNL     1       1.760   2.952  17.490  0.00  0.00    +0.000 C 
ATOM     33  F   UNL     1       2.286   1.743  17.132  0.00  0.00    +0.000 F 
ENDBRANCH  22  32
ENDBRANCH   6  22
TORSDOF 4
ENDMDL
MODEL 6
REMARK VINA RESULT:      -8.4      3.165      4.334
REMARK  Name = 
REMARK  4 active torsions:
REMARK  status: ('A' for Active; 'I' for Inactive)
REMARK    1  A    between atoms: C_2  and  C_3
REMARK    2  A    between atoms: N_8  and  C_9
REMARK    3  A    between atoms: C_14  and  C_15
REMARK    4  A    between atoms: C_15  and  C_16
REMARK                            x       y       z     vdW  Elec       q    Type
REMARK                         _______ _______ _______ _____ _____    ______ ____
ROOT
ATOM      1  C   UNL     1       1.805   8.818  19.200  0.00  0.00    +0.000 A 
ATOM      2  C   UNL     1       1.234   8.617  20.455  0.00  0.00    +0.000 A 
ATOM      3  C   UNL     1       1.272   7.354  21.048  0.00  0.00    +0.000 A 
ATOM      4  C   UNL     1       1.871   6.284  20.383  0.00  0.00    +0.000 A 
ATOM      5  F   UNL     1       1.909   5.099  21.011  0.00  0.00    +0.000 F 
ATOM      6  C   UNL     1       2.427   6.425  19.108  0.00  0.00    +0.000 A 
ATOM      7  C   UNL     1       2.332   7.703  18.523  0.00  0.00    +0.000 A 
ENDROOT
BRANCH   1  13
ATOM      8  C   UNL     1       1.551  15.187  18.565  0.00  0.00    +0.000 A 
ATOM      9  C   UNL     1       2.543  14.248  18.344  0.00  0.00    +0.000 A 
ATOM     10  N   UNL     1       2.352  12.907  18.427  0.00  0.00    +0.000 NA
ATOM     11  C   UNL     1       1.099  12.447  18.702  0.00  0.00    +0.000 A 
ATOM     12  C   UNL     1       0.788  11.079  18.807  0.00  0.00    +0.000 A 
ATOM     13  N   UNL     1       1.827  10.115  18.635  0.00  0.00    +0.000 N 
ATOM     14  N   UNL     1      -0.474  10.619  19.026  0.00  0.00    +0.000 NA
ATOM     15  C   UNL     1      -1.456  11.504  19.242  0.00  0.00    +0.000 A 
ATOM     16  C   UNL     1      -1.252  12.865  19.224  0.00  0.00    +0.000 A 
ATOM     17  C   UNL     1       0.030  13.342  18.935  0.00  0.00    +0.000 A 
ATOM     18  C   UNL     1       0.276  14.722  18.874  0.00  0.00    +0.000 A 
ATOM     19  H   UNL     1       2.730  10.572  18.752  0.00  0.00    +0.000 HD
BRANCH   8  21
ATOM     20  N   UNL     1       2.053  17.720  18.387  0.00  0.00    +0.000 NA
ATOM     21  C   UNL     1       1.824  16.585  18.469  0.00  0.00    +0.000 C 
ENDBRANCH   8  21
ENDBRANCH   1  13
BRANCH   6  22
ATOM     22  C   UNL     1       3.150   5.266  18.382  0.00  0.00    +0.000 C 
ATOM     23  N   UNL     1       3.749   5.730  17.104  0.00  0.00    +0.000 NA
ATOM     24  C   UNL     1       4.947   6.188  17.098  0.00  0.00    +0.000 C 
ATOM     25  N   UNL     1       5.515   6.734  15.997  0.00  0.00    +0.000 N 
ATOM     26  O   UNL     1       5.820   6.160  18.133  0.00  0.00    +0.000 OA
ATOM     27  C   UNL     1       5.568   5.263  19.222  0.00  0.00    +0.000 C 
ATOM     28  C   UNL     1       5.354   3.822  18.836  0.00  0.00    +0.000 C 
ATOM     29  C   UNL     1       4.198   4.680  19.304  0.00  0.00    +0.000 C 
ATOM     30  H   UNL     1       5.062   6.433  15.144  0.00  0.00    +0.000 HD
ATOM     31  H   UNL     1       6.523   6.653  15.989  0.00  0.00    +0.000 HD
BRANCH  22  32
ATOM     32  C   UNL     1       2.111   4.174  18.013  0.00  0.00    +0.000 C 
ATOM     33  F   UNL     1       1.076   4.715  17.302  0.00  0.00    +0.000 F 
ENDBRANCH  22  32
ENDBRANCH   6  22
TORSDOF 4
ENDMDL
MODEL 7
REMARK VINA RESULT:      -8.3      2.044      2.932
REMARK  Name = 
REMARK  4 active torsions:
REMARK  status: ('A' for Active; 'I' for Inactive)
REMARK    1  A    between atoms: C_2  and  C_3
REMARK    2  A    between atoms: N_8  and  C_9
REMARK    3  A    between atoms: C_14  and  C_15
REMARK    4  A    between atoms: C_15  and  C_16
REMARK                            x       y       z     vdW  Elec       q    Type
REMARK                         _______ _______ _______ _____ _____    ______ ____
ROOT
ATOM      1  C   UNL     1       2.824   7.186  18.163  0.00  0.00    +0.000 A 
ATOM      2  C   UNL     1       4.105   7.445  17.678  0.00  0.00    +0.000 A 
ATOM      3  C   UNL     1       5.008   6.397  17.489  0.00  0.00    +0.000 A 
ATOM      4  C   UNL     1       4.637   5.087  17.795  0.00  0.00    +0.000 A 
ATOM      5  F   UNL     1       5.531   4.114  17.565  0.00  0.00    +0.000 F 
ATOM      6  C   UNL     1       3.376   4.779  18.316  0.00  0.00    +0.000 A 
ATOM      7  C   UNL     1       2.507   5.866  18.534  0.00  0.00    +0.000 A 
ENDROOT
BRANCH   1  13
ATOM      8  C   UNL     1       0.091  12.735  19.828  0.00  0.00    +0.000 A 
ATOM      9  C   UNL     1       0.452  12.180  18.613  0.00  0.00    +0.000 A 
ATOM     10  N   UNL     1       0.919  10.914  18.465  0.00  0.00    +0.000 NA
ATOM     11  C   UNL     1       1.000  10.120  19.570  0.00  0.00    +0.000 A 
ATOM     12  C   UNL     1       1.465   8.793  19.531  0.00  0.00    +0.000 A 
ATOM     13  N   UNL     1       1.890   8.241  18.285  0.00  0.00    +0.000 N 
ATOM     14  N   UNL     1       1.492   7.983  20.625  0.00  0.00    +0.000 NA
ATOM     15  C   UNL     1       1.148   8.492  21.814  0.00  0.00    +0.000 A 
ATOM     16  C   UNL     1       0.736   9.796  21.979  0.00  0.00    +0.000 A 
ATOM     17  C   UNL     1       0.645  10.612  20.847  0.00  0.00    +0.000 A 
ATOM     18  C   UNL     1       0.199  11.937  20.963  0.00  0.00    +0.000 A 
ATOM     19  H   UNL     1       2.077   9.000  17.630  0.00  0.00    +0.000 HD
BRANCH   8  21
ATOM     20  N   UNL     1      -0.766  15.173  19.975  0.00  0.00    +0.000 NA
ATOM     21  C   UNL     1      -0.385  14.078  19.912  0.00  0.00    +0.000 C 
ENDBRANCH   8  21
ENDBRANCH   1  13
BRANCH   6  22
ATOM     22  C   UNL     1       2.927   3.328  18.603  0.00  0.00    +0.000 C 
ATOM     23  N   UNL     1       3.156   2.971  20.026  0.00  0.00    +0.000 NA
ATOM     24  C   UNL     1       2.234   3.194  20.890  0.00  0.00    +0.000 C 
ATOM     25  N   UNL     1       2.416   3.002  22.218  0.00  0.00    +0.000 N 
ATOM     26  O   UNL     1       0.969   3.594  20.624  0.00  0.00    +0.000 OA
ATOM     27  C   UNL     1       0.464   3.441  19.292  0.00  0.00    +0.000 C 
ATOM     28  C   UNL     1       0.577   2.054  18.713  0.00  0.00    +0.000 C 
ATOM     29  C   UNL     1       1.469   3.176  18.223  0.00  0.00    +0.000 C 
ATOM     30  H   UNL     1       3.175   2.363  22.412  0.00  0.00    +0.000 HD
ATOM     31  H   UNL     1       1.556   2.796  22.710  0.00  0.00    +0.000 HD
BRANCH  22  32
ATOM     32  C   UNL     1       3.790   2.354  17.758  0.00  0.00    +0.000 C 
ATOM     33  F   UNL     1       3.710   1.084  18.257  0.00  0.00    +0.000 F 
ENDBRANCH  22  32
ENDBRANCH   6  22
TORSDOF 4
ENDMDL
MODEL 8
REMARK VINA RESULT:      -8.1      3.257      4.636
REMARK  Name = 
REMARK  4 active torsions:
REMARK  status: ('A' for Active; 'I' for Inactive)
REMARK    1  A    between atoms: C_2  and  C_3
REMARK    2  A    between atoms: N_8  and  C_9
REMARK    3  A    between atoms: C_14  and  C_15
REMARK    4  A    between atoms: C_15  and  C_16
REMARK                            x       y       z     vdW  Elec       q    Type
REMARK                         _______ _______ _______ _____ _____    ______ ____
ROOT
ATOM      1  C   UNL     1       2.502   7.516  18.769  0.00  0.00    +0.000 A 
ATOM      2  C   UNL     1       2.126   6.644  19.790  0.00  0.00    +0.000 A 
ATOM      3  C   UNL     1       2.827   5.453  19.985  0.00  0.00    +0.000 A 
ATOM      4  C   UNL     1       3.898   5.123  19.155  0.00  0.00    +0.000 A 
ATOM      5  F   UNL     1       4.558   3.983  19.406  0.00  0.00    +0.000 F 
ATOM      6  C   UNL     1       4.292   5.948  18.096  0.00  0.00    +0.000 A 
ATOM      7  C   UNL     1       3.535   7.120  17.901  0.00  0.00    +0.000 A 
ENDROOT
BRANCH   1  13
ATOM      8  C   UNL     1       0.703  13.605  19.622  0.00  0.00    +0.000 A 
ATOM      9  C   UNL     1       1.277  12.923  18.564  0.00  0.00    +0.000 A 
ATOM     10  N   UNL     1       1.473  11.579  18.543  0.00  0.00    +0.000 NA
ATOM     11  C   UNL     1       1.041  10.845  19.607  0.00  0.00    +0.000 A 
ATOM     12  C   UNL     1       1.189   9.449  19.688  0.00  0.00    +0.000 A 
ATOM     13  N   UNL     1       1.834   8.754  18.620  0.00  0.00    +0.000 N 
ATOM     14  N   UNL     1       0.707   8.710  20.725  0.00  0.00    +0.000 NA
ATOM     15  C   UNL     1       0.145   9.342  21.763  0.00  0.00    +0.000 A 
ATOM     16  C   UNL     1       0.004  10.711  21.817  0.00  0.00    +0.000 A 
ATOM     17  C   UNL     1       0.439  11.468  20.725  0.00  0.00    +0.000 A 
ATOM     18  C   UNL     1       0.286  12.863  20.722  0.00  0.00    +0.000 A 
ATOM     19  H   UNL     1       2.372   9.420  18.065  0.00  0.00    +0.000 HD
BRANCH   8  21
ATOM     20  N   UNL     1       0.400  16.174  19.539  0.00  0.00    +0.000 NA
ATOM     21  C   UNL     1       0.535  15.022  19.581  0.00  0.00    +0.000 C 
ENDBRANCH   8  21
ENDBRANCH   1  13
BRANCH   6  22
ATOM     22  C   UNL     1       5.515   5.630  17.204  0.00  0.00    +0.000 C 
ATOM     23  N   UNL     1       6.215   6.875  16.797  0.00  0.00    +0.000 NA
ATOM     24  C   UNL     1       7.153   7.342  17.537  0.00  0.00    +0.000 C 
ATOM     25  N   UNL     1       7.755   8.530  17.291  0.00  0.00    +0.000 N 
ATOM     26  O   UNL     1       7.706   6.730  18.611  0.00  0.00    +0.000 OA
ATOM     27  C   UNL     1       7.513   5.319  18.773  0.00  0.00    +0.000 C 
ATOM     28  C   UNL     1       7.896   4.473  17.586  0.00  0.00    +0.000 C 
ATOM     29  C   UNL     1       6.442   4.692  17.948  0.00  0.00    +0.000 C 
ATOM     30  H   UNL     1       7.652   8.819  16.327  0.00  0.00    +0.000 HD
ATOM     31  H   UNL     1       8.701   8.576  17.645  0.00  0.00    +0.000 HD
BRANCH  22  32
ATOM     32  C   UNL     1       5.025   4.951  15.897  0.00  0.00    +0.000 C 
ATOM     33  F   UNL     1       5.213   5.779  14.826  0.00  0.00    +0.000 F 
ENDBRANCH  22  32
ENDBRANCH   6  22
TORSDOF 4
ENDMDL
MODEL 9
REMARK VINA RESULT:      -8.1      2.887      4.059
REMARK  Name = 
REMARK  4 active torsions:
REMARK  status: ('A' for Active; 'I' for Inactive)
REMARK    1  A    between atoms: C_2  and  C_3
REMARK    2  A    between atoms: N_8  and  C_9
REMARK    3  A    between atoms: C_14  and  C_15
REMARK    4  A    between atoms: C_15  and  C_16
REMARK                            x       y       z     vdW  Elec       q    Type
REMARK                         _______ _______ _______ _____ _____    ______ ____
ROOT
ATOM      1  C   UNL     1       2.560   7.101  18.577  0.00  0.00    +0.000 A 
ATOM      2  C   UNL     1       1.694   6.012  18.667  0.00  0.00    +0.000 A 
ATOM      3  C   UNL     1       2.043   4.791  18.089  0.00  0.00    +0.000 A 
ATOM      4  C   UNL     1       3.254   4.656  17.408  0.00  0.00    +0.000 A 
ATOM      5  F   UNL     1       3.556   3.453  16.899  0.00  0.00    +0.000 F 
ATOM      6  C   UNL     1       4.141   5.727  17.261  0.00  0.00    +0.000 A 
ATOM      7  C   UNL     1       3.737   6.955  17.820  0.00  0.00    +0.000 A 
ENDROOT
BRANCH   1  13
ATOM      8  C   UNL     1      -0.671  11.633  21.747  0.00  0.00    +0.000 A 
ATOM      9  C   UNL     1       0.472  10.907  22.030  0.00  0.00    +0.000 A 
ATOM     10  N   UNL     1       1.071  10.062  21.153  0.00  0.00    +0.000 NA
ATOM     11  C   UNL     1       0.546   9.948  19.901  0.00  0.00    +0.000 A 
ATOM     12  C   UNL     1       1.087   9.106  18.913  0.00  0.00    +0.000 A 
ATOM     13  N   UNL     1       2.234   8.315  19.226  0.00  0.00    +0.000 N 
ATOM     14  N   UNL     1       0.595   9.036  17.646  0.00  0.00    +0.000 NA
ATOM     15  C   UNL     1      -0.510   9.727  17.342  0.00  0.00    +0.000 A 
ATOM     16  C   UNL     1      -1.159  10.535  18.249  0.00  0.00    +0.000 A 
ATOM     17  C   UNL     1      -0.619  10.661  19.533  0.00  0.00    +0.000 A 
ATOM     18  C   UNL     1      -1.228  11.498  20.479  0.00  0.00    +0.000 A 
ATOM     19  H   UNL     1       2.329   8.250  20.239  0.00  0.00    +0.000 HD
BRANCH   8  21
ATOM     20  N   UNL     1      -1.732  13.196  23.518  0.00  0.00    +0.000 NA
ATOM     21  C   UNL     1      -1.255  12.499  22.722  0.00  0.00    +0.000 C 
ENDBRANCH   8  21
ENDBRANCH   1  13
BRANCH   6  22
ATOM     22  C   UNL     1       5.514   5.581  16.565  0.00  0.00    +0.000 C 
ATOM     23  N   UNL     1       6.209   6.891  16.478  0.00  0.00    +0.000 NA
ATOM     24  C   UNL     1       6.980   7.261  17.433  0.00  0.00    +0.000 C 
ATOM     25  N   UNL     1       7.553   8.487  17.477  0.00  0.00    +0.000 N 
ATOM     26  O   UNL     1       7.370   6.504  18.486  0.00  0.00    +0.000 OA
ATOM     27  C   UNL     1       7.225   5.081  18.402  0.00  0.00    +0.000 C 
ATOM     28  C   UNL     1       7.850   4.438  17.191  0.00  0.00    +0.000 C 
ATOM     29  C   UNL     1       6.346   4.562  17.315  0.00  0.00    +0.000 C 
ATOM     30  H   UNL     1       7.603   8.918  16.563  0.00  0.00    +0.000 HD
ATOM     31  H   UNL     1       8.421   8.501  17.997  0.00  0.00    +0.000 HD
BRANCH  22  32
ATOM     32  C   UNL     1       5.293   5.100  15.106  0.00  0.00    +0.000 C 
ATOM     33  F   UNL     1       6.438   5.246  14.373  0.00  0.00    +0.000 F 
ENDBRANCH  22  32
ENDBRANCH   6  22
TORSDOF 4
ENDMDL
