MODEL 1
REMARK VINA RESULT:      -6.6      0.000      0.000
REMARK  Name = 
REMARK  4 active torsions:
REMARK  status: ('A' for Active; 'I' for Inactive)
REMARK    1  A    between atoms: C_1  and  O_2
REMARK    2  A    between atoms: O_2  and  C_3
REMARK    3  A    between atoms: N_12  and  C_13
REMARK    4  A    between atoms: N_20  and  C_21
REMARK                            x       y       z     vdW  Elec       q    Type
REMARK                         _______ _______ _______ _____ _____    ______ ____
ROOT
ATOM      1  C   UNL     1       9.449  10.949  18.641  0.00  0.00    +0.000 A 
ATOM      2  C   UNL     1      10.667  10.910  17.956  0.00  0.00    +0.000 A 
ATOM      3  C   UNL     1      11.457  12.046  17.913  0.00  0.00    +0.000 A 
ATOM      4  C   UNL     1      10.930  13.196  18.492  0.00  0.00    +0.000 A 
ATOM      5  C   UNL     1       9.571  13.358  18.742  0.00  0.00    +0.000 A 
ATOM      6  C   UNL     1       8.845  12.185  18.939  0.00  0.00    +0.000 A 
ATOM      7  C   UNL     1       9.318  14.815  19.200  0.00  0.00    +0.000 C 
ATOM      8  C   UNL     1       9.396  15.903  18.087  0.00  0.00    +0.000 C 
ATOM      9  C   UNL     1       9.660  17.281  18.723  0.00  0.00    +0.000 C 
ATOM     10  N   UNL     1      11.027  17.271  19.236  0.00  0.00    +0.000 NA
ATOM     11  C   UNL     1      11.487  18.628  19.527  0.00  0.00    +0.000 C 
ATOM     12  C   UNL     1      11.110  16.380  20.408  0.00  0.00    +0.000 C 
ATOM     13  C   UNL     1      10.574  14.939  20.137  0.00  0.00    +0.000 C 
ATOM     14  C   UNL     1      11.699  14.264  19.218  0.00  0.00    +0.000 C 
ATOM     15  C   UNL     1      10.297  14.170  21.534  0.00  0.00    +0.000 C 
ATOM     16  C   UNL     1       8.807  14.046  21.934  0.00  0.00    +0.000 A 
ATOM     17  C   UNL     1       7.785  14.452  21.110  0.00  0.00    +0.000 A 
ATOM     18  N   UNL     1       6.569  14.182  21.649  0.00  0.00    +0.000 N 
ATOM     19  C   UNL     1       5.280  14.460  21.047  0.00  0.00    +0.000 C 
ATOM     20  C   UNL     1       6.743  13.510  22.827  0.00  0.00    +0.000 A 
ATOM     21  C   UNL     1       5.768  12.982  23.693  0.00  0.00    +0.000 A 
ATOM     22  C   UNL     1       6.200  12.301  24.818  0.00  0.00    +0.000 A 
ATOM     23  C   UNL     1       7.563  12.166  25.074  0.00  0.00    +0.000 A 
ATOM     24  C   UNL     1       8.526  12.729  24.219  0.00  0.00    +0.000 A 
ATOM     25  C   UNL     1       8.134  13.416  23.050  0.00  0.00    +0.000 A 
ATOM     26  C   UNL     1       7.915  15.020  19.776  0.00  0.00    +0.000 C 
ENDROOT
BRANCH   1  28
ATOM     27  C   UNL     1       8.316   8.975  18.078  0.00  0.00    +0.000 C 
ATOM     28  O   UNL     1       8.854   9.805  19.124  0.00  0.00    +0.000 OA
ENDBRANCH   1  28
TORSDOF 1
ENDMDL
MODEL 2
REMARK VINA RESULT:      -6.6      8.292     11.098
REMARK  Name = 
REMARK  4 active torsions:
REMARK  status: ('A' for Active; 'I' for Inactive)
REMARK    1  A    between atoms: C_1  and  O_2
REMARK    2  A    between atoms: O_2  and  C_3
REMARK    3  A    between atoms: N_12  and  C_13
REMARK    4  A    between atoms: N_20  and  C_21
REMARK                            x       y       z     vdW  Elec       q    Type
REMARK                         _______ _______ _______ _____ _____    ______ ____
ROOT
ATOM      1  C   UNL     1      -3.185  10.813  18.035  0.00  0.00    +0.000 A 
ATOM      2  C   UNL     1      -2.295   9.907  17.451  0.00  0.00    +0.000 A 
ATOM      3  C   UNL     1      -0.939  10.026  17.711  0.00  0.00    +0.000 A 
ATOM      4  C   UNL     1      -0.544  11.116  18.479  0.00  0.00    +0.000 A 
ATOM      5  C   UNL     1      -1.341  12.243  18.655  0.00  0.00    +0.000 A 
ATOM      6  C   UNL     1      -2.715  12.038  18.543  0.00  0.00    +0.000 A 
ATOM      7  C   UNL     1      -0.518  13.326  19.392  0.00  0.00    +0.000 C 
ATOM      8  C   UNL     1       0.573  14.047  18.546  0.00  0.00    +0.000 C 
ATOM      9  C   UNL     1       1.630  14.669  19.479  0.00  0.00    +0.000 C 
ATOM     10  N   UNL     1       2.384  13.573  20.079  0.00  0.00    +0.000 NA
ATOM     11  C   UNL     1       3.622  14.059  20.685  0.00  0.00    +0.000 C 
ATOM     12  C   UNL     1       1.528  12.848  21.038  0.00  0.00    +0.000 C 
ATOM     13  C   UNL     1       0.175  12.366  20.426  0.00  0.00    +0.000 C 
ATOM     14  C   UNL     1       0.584  11.147  19.472  0.00  0.00    +0.000 C 
ATOM     15  C   UNL     1      -0.867  11.978  21.602  0.00  0.00    +0.000 C 
ATOM     16  C   UNL     1      -1.991  13.012  21.854  0.00  0.00    +0.000 A 
ATOM     17  C   UNL     1      -2.167  14.120  21.061  0.00  0.00    +0.000 A 
ATOM     18  N   UNL     1      -3.254  14.839  21.437  0.00  0.00    +0.000 N 
ATOM     19  C   UNL     1      -3.741  16.054  20.813  0.00  0.00    +0.000 C 
ATOM     20  C   UNL     1      -3.891  14.184  22.454  0.00  0.00    +0.000 A 
ATOM     21  C   UNL     1      -5.086  14.528  23.113  0.00  0.00    +0.000 A 
ATOM     22  C   UNL     1      -5.554  13.674  24.096  0.00  0.00    +0.000 A 
ATOM     23  C   UNL     1      -4.841  12.521  24.419  0.00  0.00    +0.000 A 
ATOM     24  C   UNL     1      -3.630  12.208  23.779  0.00  0.00    +0.000 A 
ATOM     25  C   UNL     1      -3.122  13.039  22.757  0.00  0.00    +0.000 A 
ATOM     26  C   UNL     1      -1.380  14.488  19.892  0.00  0.00    +0.000 C 
ENDROOT
BRANCH   1  28
ATOM     27  C   UNL     1      -5.397  11.463  17.606  0.00  0.00    +0.000 C 
ATOM     28  O   UNL     1      -4.515  10.504  18.217  0.00  0.00    +0.000 OA
ENDBRANCH   1  28
TORSDOF 1
ENDMDL
MODEL 3
REMARK VINA RESULT:      -6.5      8.569     12.577
REMARK  Name = 
REMARK  4 active torsions:
REMARK  status: ('A' for Active; 'I' for Inactive)
REMARK    1  A    between atoms: C_1  and  O_2
REMARK    2  A    between atoms: O_2  and  C_3
REMARK    3  A    between atoms: N_12  and  C_13
REMARK    4  A    between atoms: N_20  and  C_21
REMARK                            x       y       z     vdW  Elec       q    Type
REMARK                         _______ _______ _______ _____ _____    ______ ____
ROOT
ATOM      1  C   UNL     1       0.080  15.800  22.998  0.00  0.00    +0.000 A 
ATOM      2  C   UNL     1      -0.325  16.601  24.072  0.00  0.00    +0.000 A 
ATOM      3  C   UNL     1      -1.581  16.409  24.623  0.00  0.00    +0.000 A 
ATOM      4  C   UNL     1      -2.402  15.476  23.999  0.00  0.00    +0.000 A 
ATOM      5  C   UNL     1      -2.192  15.040  22.694  0.00  0.00    +0.000 A 
ATOM      6  C   UNL     1      -0.876  15.101  22.238  0.00  0.00    +0.000 A 
ATOM      7  C   UNL     1      -3.392  14.166  22.261  0.00  0.00    +0.000 C 
ATOM      8  C   UNL     1      -4.715  14.929  21.952  0.00  0.00    +0.000 C 
ATOM      9  C   UNL     1      -5.911  13.965  22.063  0.00  0.00    +0.000 C 
ATOM     10  N   UNL     1      -6.075  13.631  23.475  0.00  0.00    +0.000 NA
ATOM     11  C   UNL     1      -7.381  13.024  23.722  0.00  0.00    +0.000 C 
ATOM     12  C   UNL     1      -4.957  12.774  23.914  0.00  0.00    +0.000 C 
ATOM     13  C   UNL     1      -3.550  13.378  23.611  0.00  0.00    +0.000 C 
ATOM     14  C   UNL     1      -3.394  14.569  24.671  0.00  0.00    +0.000 C 
ATOM     15  C   UNL     1      -2.412  12.232  23.717  0.00  0.00    +0.000 C 
ATOM     16  C   UNL     1      -1.866  11.719  22.362  0.00  0.00    +0.000 A 
ATOM     17  C   UNL     1      -2.230  12.276  21.160  0.00  0.00    +0.000 A 
ATOM     18  N   UNL     1      -1.572  11.703  20.121  0.00  0.00    +0.000 N 
ATOM     19  C   UNL     1      -1.701  12.055  18.721  0.00  0.00    +0.000 C 
ATOM     20  C   UNL     1      -0.680  10.789  20.609  0.00  0.00    +0.000 A 
ATOM     21  C   UNL     1       0.251  10.003  19.906  0.00  0.00    +0.000 A 
ATOM     22  C   UNL     1       1.081   9.171  20.636  0.00  0.00    +0.000 A 
ATOM     23  C   UNL     1       0.973   9.116  22.024  0.00  0.00    +0.000 A 
ATOM     24  C   UNL     1       0.014   9.880  22.712  0.00  0.00    +0.000 A 
ATOM     25  C   UNL     1      -0.843  10.758  22.012  0.00  0.00    +0.000 A 
ATOM     26  C   UNL     1      -3.131  13.403  20.960  0.00  0.00    +0.000 C 
ENDROOT
BRANCH   1  28
ATOM     27  C   UNL     1       1.608  14.735  21.575  0.00  0.00    +0.000 C 
ATOM     28  O   UNL     1       1.411  15.596  22.711  0.00  0.00    +0.000 OA
ENDBRANCH   1  28
TORSDOF 1
ENDMDL
MODEL 4
REMARK VINA RESULT:      -6.5      1.439      1.936
REMARK  Name = 
REMARK  4 active torsions:
REMARK  status: ('A' for Active; 'I' for Inactive)
REMARK    1  A    between atoms: C_1  and  O_2
REMARK    2  A    between atoms: O_2  and  C_3
REMARK    3  A    between atoms: N_12  and  C_13
REMARK    4  A    between atoms: N_20  and  C_21
REMARK                            x       y       z     vdW  Elec       q    Type
REMARK                         _______ _______ _______ _____ _____    ______ ____
ROOT
ATOM      1  C   UNL     1       9.133  11.294  18.017  0.00  0.00    +0.000 A 
ATOM      2  C   UNL     1      10.473  10.938  17.829  0.00  0.00    +0.000 A 
ATOM      3  C   UNL     1      11.453  11.911  17.928  0.00  0.00    +0.000 A 
ATOM      4  C   UNL     1      11.019  13.218  18.123  0.00  0.00    +0.000 A 
ATOM      5  C   UNL     1       9.720  13.630  17.842  0.00  0.00    +0.000 A 
ATOM      6  C   UNL     1       8.740  12.642  17.914  0.00  0.00    +0.000 A 
ATOM      7  C   UNL     1       9.643  15.169  17.985  0.00  0.00    +0.000 C 
ATOM      8  C   UNL     1      10.311  15.995  16.845  0.00  0.00    +0.000 C 
ATOM      9  C   UNL     1      10.634  17.413  17.350  0.00  0.00    +0.000 C 
ATOM     10  N   UNL     1      11.721  17.297  18.318  0.00  0.00    +0.000 NA
ATOM     11  C   UNL     1      12.333  18.598  18.577  0.00  0.00    +0.000 C 
ATOM     12  C   UNL     1      11.222  16.649  19.546  0.00  0.00    +0.000 C 
ATOM     13  C   UNL     1      10.515  15.282  19.288  0.00  0.00    +0.000 C 
ATOM     14  C   UNL     1      11.711  14.278  18.933  0.00  0.00    +0.000 C 
ATOM     15  C   UNL     1       9.637  14.851  20.578  0.00  0.00    +0.000 C 
ATOM     16  C   UNL     1       8.107  15.036  20.425  0.00  0.00    +0.000 A 
ATOM     17  C   UNL     1       7.525  15.423  19.243  0.00  0.00    +0.000 A 
ATOM     18  N   UNL     1       6.171  15.451  19.336  0.00  0.00    +0.000 N 
ATOM     19  C   UNL     1       5.242  15.799  18.279  0.00  0.00    +0.000 C 
ATOM     20  C   UNL     1       5.801  15.003  20.574  0.00  0.00    +0.000 A 
ATOM     21  C   UNL     1       4.506  14.809  21.090  0.00  0.00    +0.000 A 
ATOM     22  C   UNL     1       4.389  14.303  22.372  0.00  0.00    +0.000 A 
ATOM     23  C   UNL     1       5.529  14.015  23.119  0.00  0.00    +0.000 A 
ATOM     24  C   UNL     1       6.816  14.248  22.604  0.00  0.00    +0.000 A 
ATOM     25  C   UNL     1       6.987  14.745  21.294  0.00  0.00    +0.000 A 
ATOM     26  C   UNL     1       8.205  15.693  17.984  0.00  0.00    +0.000 C 
ENDROOT
BRANCH   1  28
ATOM     27  C   UNL     1       8.460   9.053  17.886  0.00  0.00    +0.000 C 
ATOM     28  O   UNL     1       8.186  10.370  18.396  0.00  0.00    +0.000 OA
ENDBRANCH   1  28
TORSDOF 1
ENDMDL
MODEL 5
REMARK VINA RESULT:      -6.5      8.295     11.649
REMARK  Name = 
REMARK  4 active torsions:
REMARK  status: ('A' for Active; 'I' for Inactive)
REMARK    1  A    between atoms: C_1  and  O_2
REMARK    2  A    between atoms: O_2  and  C_3
REMARK    3  A    between atoms: N_12  and  C_13
REMARK    4  A    between atoms: N_20  and  C_21
REMARK                            x       y       z     vdW  Elec       q    Type
REMARK                         _______ _______ _______ _____ _____    ______ ____
ROOT
ATOM      1  C   UNL     1       0.836  15.519  20.464  0.00  0.00    +0.000 A 
ATOM      2  C   UNL     1       0.935  16.322  21.605  0.00  0.00    +0.000 A 
ATOM      3  C   UNL     1       0.117  16.060  22.691  0.00  0.00    +0.000 A 
ATOM      4  C   UNL     1      -0.828  15.051  22.532  0.00  0.00    +0.000 A 
ATOM      5  C   UNL     1      -1.237  14.591  21.285  0.00  0.00    +0.000 A 
ATOM      6  C   UNL     1      -0.311  14.731  20.252  0.00  0.00    +0.000 A 
ATOM      7  C   UNL     1      -2.427  13.621  21.476  0.00  0.00    +0.000 C 
ATOM      8  C   UNL     1      -3.790  14.279  21.847  0.00  0.00    +0.000 C 
ATOM      9  C   UNL     1      -4.708  13.236  22.513  0.00  0.00    +0.000 C 
ATOM     10  N   UNL     1      -4.147  12.936  23.827  0.00  0.00    +0.000 NA
ATOM     11  C   UNL     1      -5.123  12.246  24.668  0.00  0.00    +0.000 C 
ATOM     12  C   UNL     1      -2.894  12.174  23.669  0.00  0.00    +0.000 C 
ATOM     13  C   UNL     1      -1.856  12.866  22.731  0.00  0.00    +0.000 C 
ATOM     14  C   UNL     1      -1.303  14.098  23.593  0.00  0.00    +0.000 C 
ATOM     15  C   UNL     1      -0.723  11.808  22.269  0.00  0.00    +0.000 C 
ATOM     16  C   UNL     1      -0.856  11.292  20.815  0.00  0.00    +0.000 A 
ATOM     17  C   UNL     1      -1.794  11.785  19.940  0.00  0.00    +0.000 A 
ATOM     18  N   UNL     1      -1.673  11.228  18.709  0.00  0.00    +0.000 N 
ATOM     19  C   UNL     1      -2.486  11.525  17.545  0.00  0.00    +0.000 C 
ATOM     20  C   UNL     1      -0.589  10.395  18.701  0.00  0.00    +0.000 A 
ATOM     21  C   UNL     1      -0.052   9.655  17.631  0.00  0.00    +0.000 A 
ATOM     22  C   UNL     1       1.087   8.907  17.867  0.00  0.00    +0.000 A 
ATOM     23  C   UNL     1       1.663   8.888  19.136  0.00  0.00    +0.000 A 
ATOM     24  C   UNL     1       1.096   9.603  20.205  0.00  0.00    +0.000 A 
ATOM     25  C   UNL     1      -0.056  10.395  20.009  0.00  0.00    +0.000 A 
ATOM     26  C   UNL     1      -2.764  12.838  20.205  0.00  0.00    +0.000 C 
ENDROOT
BRANCH   1  28
ATOM     27  C   UNL     1       2.035  14.058  19.077  0.00  0.00    +0.000 C 
ATOM     28  O   UNL     1       1.876  15.401  19.570  0.00  0.00    +0.000 OA
ENDBRANCH   1  28
TORSDOF 1
ENDMDL
MODEL 6
REMARK VINA RESULT:      -6.4      7.002     10.527
REMARK  Name = 
REMARK  4 active torsions:
REMARK  status: ('A' for Active; 'I' for Inactive)
REMARK    1  A    between atoms: C_1  and  O_2
REMARK    2  A    between atoms: O_2  and  C_3
REMARK    3  A    between atoms: N_12  and  C_13
REMARK    4  A    between atoms: N_20  and  C_21
REMARK                            x       y       z     vdW  Elec       q    Type
REMARK                         _______ _______ _______ _____ _____    ______ ____
ROOT
ATOM      1  C   UNL     1      -1.428  12.867  23.142  0.00  0.00    +0.000 A 
ATOM      2  C   UNL     1      -1.396  14.088  23.823  0.00  0.00    +0.000 A 
ATOM      3  C   UNL     1      -0.678  15.144  23.287  0.00  0.00    +0.000 A 
ATOM      4  C   UNL     1       0.047  14.882  22.129  0.00  0.00    +0.000 A 
ATOM      5  C   UNL     1       0.390  13.595  21.729  0.00  0.00    +0.000 A 
ATOM      6  C   UNL     1      -0.459  12.578  22.162  0.00  0.00    +0.000 A 
ATOM      7  C   UNL     1       1.353  13.687  20.522  0.00  0.00    +0.000 C 
ATOM      8  C   UNL     1       2.810  14.135  20.844  0.00  0.00    +0.000 C 
ATOM      9  C   UNL     1       3.479  14.690  19.572  0.00  0.00    +0.000 C 
ATOM     10  N   UNL     1       2.832  15.960  19.257  0.00  0.00    +0.000 NA
ATOM     11  C   UNL     1       3.624  16.727  18.297  0.00  0.00    +0.000 C 
ATOM     12  C   UNL     1       1.456  15.712  18.787  0.00  0.00    +0.000 C 
ATOM     13  C   UNL     1       0.606  14.849  19.772  0.00  0.00    +0.000 C 
ATOM     14  C   UNL     1       0.290  15.836  20.993  0.00  0.00    +0.000 C 
ATOM     15  C   UNL     1      -0.704  14.267  19.021  0.00  0.00    +0.000 C 
ATOM     16  C   UNL     1      -0.638  12.767  18.646  0.00  0.00    +0.000 A 
ATOM     17  C   UNL     1       0.405  11.956  19.025  0.00  0.00    +0.000 A 
ATOM     18  N   UNL     1       0.209  10.671  18.637  0.00  0.00    +0.000 N 
ATOM     19  C   UNL     1       1.097   9.552  18.883  0.00  0.00    +0.000 C 
ATOM     20  C   UNL     1      -1.021  10.567  18.048  0.00  0.00    +0.000 A 
ATOM     21  C   UNL     1      -1.666   9.419  17.550  0.00  0.00    +0.000 A 
ATOM     22  C   UNL     1      -2.939   9.565  17.030  0.00  0.00    +0.000 A 
ATOM     23  C   UNL     1      -3.542  10.821  16.996  0.00  0.00    +0.000 A 
ATOM     24  C   UNL     1      -2.873  11.965  17.464  0.00  0.00    +0.000 A 
ATOM     25  C   UNL     1      -1.580  11.863  18.021  0.00  0.00    +0.000 A 
ATOM     26  C   UNL     1       1.561  12.340  19.825  0.00  0.00    +0.000 C 
ENDROOT
BRANCH   1  28
ATOM     27  C   UNL     1      -3.652  12.573  23.823  0.00  0.00    +0.000 C 
ATOM     28  O   UNL     1      -2.446  11.959  23.333  0.00  0.00    +0.000 OA
ENDBRANCH   1  28
TORSDOF 1
ENDMDL
MODEL 7
REMARK VINA RESULT:      -6.4      8.357     11.864
REMARK  Name = 
REMARK  4 active torsions:
REMARK  status: ('A' for Active; 'I' for Inactive)
REMARK    1  A    between atoms: C_1  and  O_2
REMARK    2  A    between atoms: O_2  and  C_3
REMARK    3  A    between atoms: N_12  and  C_13
REMARK    4  A    between atoms: N_20  and  C_21
REMARK                            x       y       z     vdW  Elec       q    Type
REMARK                         _______ _______ _______ _____ _____    ______ ____
ROOT
ATOM      1  C   UNL     1      -0.011  15.525  18.876  0.00  0.00    +0.000 A 
ATOM      2  C   UNL     1       1.286  15.711  19.365  0.00  0.00    +0.000 A 
ATOM      3  C   UNL     1       1.828  14.767  20.222  0.00  0.00    +0.000 A 
ATOM      4  C   UNL     1       0.992  13.726  20.614  0.00  0.00    +0.000 A 
ATOM      5  C   UNL     1      -0.394  13.794  20.515  0.00  0.00    +0.000 A 
ATOM      6  C   UNL     1      -0.891  14.639  19.524  0.00  0.00    +0.000 A 
ATOM      7  C   UNL     1      -1.005  12.558  21.216  0.00  0.00    +0.000 C 
ATOM      8  C   UNL     1      -0.967  12.569  22.774  0.00  0.00    +0.000 C 
ATOM      9  C   UNL     1      -1.092  11.130  23.309  0.00  0.00    +0.000 C 
ATOM     10  N   UNL     1       0.146  10.430  22.979  0.00  0.00    +0.000 NA
ATOM     11  C   UNL     1       0.270   9.193  23.747  0.00  0.00    +0.000 C 
ATOM     12  C   UNL     1       0.213  10.204  21.522  0.00  0.00    +0.000 C 
ATOM     13  C   UNL     1       0.029  11.504  20.678  0.00  0.00    +0.000 C 
ATOM     14  C   UNL     1       1.401  12.304  20.880  0.00  0.00    +0.000 C 
ATOM     15  C   UNL     1      -0.313  11.132  19.141  0.00  0.00    +0.000 C 
ATOM     16  C   UNL     1      -1.793  11.324  18.729  0.00  0.00    +0.000 A 
ATOM     17  C   UNL     1      -2.727  11.881  19.570  0.00  0.00    +0.000 A 
ATOM     18  N   UNL     1      -3.935  12.005  18.965  0.00  0.00    +0.000 N 
ATOM     19  C   UNL     1      -5.137  12.564  19.551  0.00  0.00    +0.000 C 
ATOM     20  C   UNL     1      -3.825  11.603  17.663  0.00  0.00    +0.000 A 
ATOM     21  C   UNL     1      -4.802  11.614  16.650  0.00  0.00    +0.000 A 
ATOM     22  C   UNL     1      -4.433  11.188  15.388  0.00  0.00    +0.000 A 
ATOM     23  C   UNL     1      -3.131  10.751  15.148  0.00  0.00    +0.000 A 
ATOM     24  C   UNL     1      -2.174  10.712  16.177  0.00  0.00    +0.000 A 
ATOM     25  C   UNL     1      -2.499  11.154  17.477  0.00  0.00    +0.000 A 
ATOM     26  C   UNL     1      -2.496  12.383  20.917  0.00  0.00    +0.000 C 
ENDROOT
BRANCH   1  28
ATOM     27  C   UNL     1      -0.649  17.536  17.852  0.00  0.00    +0.000 C 
ATOM     28  O   UNL     1      -0.435  16.120  17.709  0.00  0.00    +0.000 OA
ENDBRANCH   1  28
TORSDOF 1
ENDMDL
MODEL 8
REMARK VINA RESULT:      -6.3      9.320     12.513
REMARK  Name = 
REMARK  4 active torsions:
REMARK  status: ('A' for Active; 'I' for Inactive)
REMARK    1  A    between atoms: C_1  and  O_2
REMARK    2  A    between atoms: O_2  and  C_3
REMARK    3  A    between atoms: N_12  and  C_13
REMARK    4  A    between atoms: N_20  and  C_21
REMARK                            x       y       z     vdW  Elec       q    Type
REMARK                         _______ _______ _______ _____ _____    ______ ____
ROOT
ATOM      1  C   UNL     1      -1.930  16.664  19.910  0.00  0.00    +0.000 A 
ATOM      2  C   UNL     1      -0.965  16.900  18.925  0.00  0.00    +0.000 A 
ATOM      3  C   UNL     1      -0.206  15.842  18.453  0.00  0.00    +0.000 A 
ATOM      4  C   UNL     1      -0.400  14.611  19.069  0.00  0.00    +0.000 A 
ATOM      5  C   UNL     1      -0.990  14.479  20.323  0.00  0.00    +0.000 A 
ATOM      6  C   UNL     1      -1.875  15.492  20.687  0.00  0.00    +0.000 A 
ATOM      7  C   UNL     1      -0.866  13.006  20.780  0.00  0.00    +0.000 C 
ATOM      8  C   UNL     1       0.553  12.550  21.235  0.00  0.00    +0.000 C 
ATOM      9  C   UNL     1       0.661  11.016  21.144  0.00  0.00    +0.000 C 
ATOM     10  N   UNL     1       0.666  10.661  19.728  0.00  0.00    +0.000 NA
ATOM     11  C   UNL     1       1.123   9.286  19.534  0.00  0.00    +0.000 C 
ATOM     12  C   UNL     1      -0.672  10.901  19.152  0.00  0.00    +0.000 C 
ATOM     13  C   UNL     1      -1.205  12.348  19.394  0.00  0.00    +0.000 C 
ATOM     14  C   UNL     1      -0.331  13.261  18.410  0.00  0.00    +0.000 C 
ATOM     15  C   UNL     1      -2.800  12.411  19.129  0.00  0.00    +0.000 C 
ATOM     16  C   UNL     1      -3.678  12.475  20.403  0.00  0.00    +0.000 A 
ATOM     17  C   UNL     1      -3.143  12.591  21.663  0.00  0.00    +0.000 A 
ATOM     18  N   UNL     1      -4.109  12.696  22.610  0.00  0.00    +0.000 N 
ATOM     19  C   UNL     1      -3.902  12.847  24.037  0.00  0.00    +0.000 C 
ATOM     20  C   UNL     1      -5.331  12.731  21.999  0.00  0.00    +0.000 A 
ATOM     21  C   UNL     1      -6.603  12.890  22.578  0.00  0.00    +0.000 A 
ATOM     22  C   UNL     1      -7.699  12.934  21.735  0.00  0.00    +0.000 A 
ATOM     23  C   UNL     1      -7.529  12.808  20.358  0.00  0.00    +0.000 A 
ATOM     24  C   UNL     1      -6.256  12.614  19.795  0.00  0.00    +0.000 A 
ATOM     25  C   UNL     1      -5.106  12.581  20.613  0.00  0.00    +0.000 A 
ATOM     26  C   UNL     1      -1.730  12.691  22.004  0.00  0.00    +0.000 C 
ENDROOT
BRANCH   1  28
ATOM     27  C   UNL     1      -3.048  18.563  19.107  0.00  0.00    +0.000 C 
ATOM     28  O   UNL     1      -3.003  17.508  20.086  0.00  0.00    +0.000 OA
ENDBRANCH   1  28
TORSDOF 1
ENDMDL
MODEL 9
REMARK VINA RESULT:      -6.3     10.665     13.208
REMARK  Name = 
REMARK  4 active torsions:
REMARK  status: ('A' for Active; 'I' for Inactive)
REMARK    1  A    between atoms: C_1  and  O_2
REMARK    2  A    between atoms: O_2  and  C_3
REMARK    3  A    between atoms: N_12  and  C_13
REMARK    4  A    between atoms: N_20  and  C_21
REMARK                            x       y       z     vdW  Elec       q    Type
REMARK                         _______ _______ _______ _____ _____    ______ ____
ROOT
ATOM      1  C   UNL     1      -6.216  12.641  21.721  0.00  0.00    +0.000 A 
ATOM      2  C   UNL     1      -7.078  13.736  21.847  0.00  0.00    +0.000 A 
ATOM      3  C   UNL     1      -6.569  14.953  22.271  0.00  0.00    +0.000 A 
ATOM      4  C   UNL     1      -5.227  14.977  22.634  0.00  0.00    +0.000 A 
ATOM      5  C   UNL     1      -4.512  13.827  22.954  0.00  0.00    +0.000 A 
ATOM      6  C   UNL     1      -4.968  12.646  22.371  0.00  0.00    +0.000 A 
ATOM      7  C   UNL     1      -3.123  14.238  23.496  0.00  0.00    +0.000 C 
ATOM      8  C   UNL     1      -3.100  14.833  24.936  0.00  0.00    +0.000 C 
ATOM      9  C   UNL     1      -1.820  15.665  25.137  0.00  0.00    +0.000 C 
ATOM     10  N   UNL     1      -1.943  16.864  24.314  0.00  0.00    +0.000 NA
ATOM     11  C   UNL     1      -0.961  17.872  24.707  0.00  0.00    +0.000 C 
ATOM     12  C   UNL     1      -1.841  16.498  22.888  0.00  0.00    +0.000 C 
ATOM     13  C   UNL     1      -2.845  15.383  22.456  0.00  0.00    +0.000 C 
ATOM     14  C   UNL     1      -4.268  16.117  22.435  0.00  0.00    +0.000 C 
ATOM     15  C   UNL     1      -2.398  14.743  21.039  0.00  0.00    +0.000 C 
ATOM     16  C   UNL     1      -1.744  13.342  21.124  0.00  0.00    +0.000 A 
ATOM     17  C   UNL     1      -1.656  12.640  22.302  0.00  0.00    +0.000 A 
ATOM     18  N   UNL     1      -1.104  11.414  22.114  0.00  0.00    +0.000 N 
ATOM     19  C   UNL     1      -0.876  10.408  23.132  0.00  0.00    +0.000 C 
ATOM     20  C   UNL     1      -0.877  11.228  20.779  0.00  0.00    +0.000 A 
ATOM     21  C   UNL     1      -0.374  10.090  20.120  0.00  0.00    +0.000 A 
ATOM     22  C   UNL     1      -0.270  10.132  18.742  0.00  0.00    +0.000 A 
ATOM     23  C   UNL     1      -0.643  11.280  18.046  0.00  0.00    +0.000 A 
ATOM     24  C   UNL     1      -1.110  12.422  18.719  0.00  0.00    +0.000 A 
ATOM     25  C   UNL     1      -1.251  12.421  20.123  0.00  0.00    +0.000 A 
ATOM     26  C   UNL     1      -2.155  13.056  23.605  0.00  0.00    +0.000 C 
ENDROOT
BRANCH   1  28
ATOM     27  C   UNL     1      -7.824  11.040  21.132  0.00  0.00    +0.000 C 
ATOM     28  O   UNL     1      -6.512  11.581  20.894  0.00  0.00    +0.000 OA
ENDBRANCH   1  28
TORSDOF 1
ENDMDL
