MODEL 1
REMARK VINA RESULT:      -7.9      0.000      0.000
REMARK  Name = 
REMARK  7 active torsions:
REMARK  status: ('A' for Active; 'I' for Inactive)
REMARK    1  A    between atoms: C_1  and  C_2
REMARK    2  A    between atoms: C_6  and  C_7
REMARK    3  A    between atoms: C_7  and  C_9
REMARK    4  A    between atoms: C_9  and  C_10
REMARK    5  A    between atoms: C_9  and  C_12
REMARK    6  A    between atoms: C_12  and  C_14
REMARK    7  A    between atoms: C_14  and  C_15
REMARK                            x       y       z     vdW  Elec       q    Type
REMARK                         _______ _______ _______ _____ _____    ______ ____
ROOT
ATOM      1  C   UNL     1       6.942   5.943  18.231  0.00  0.00    +0.000 C 
ENDROOT
BRANCH   1   2
ATOM      2  C   UNL     1       7.504   4.799  17.404  0.00  0.00    +0.000 C 
ATOM      3  O   UNL     1       8.351   4.028  17.856  0.00  0.00    +0.000 OA
BRANCH   2   9
ATOM      4  C   UNL     1       4.838   3.227  16.248  0.00  0.00    +0.000 C 
ATOM      5  C   UNL     1       5.891   3.987  15.524  0.00  0.00    +0.000 A 
ATOM      6  C   UNL     1       5.947   4.174  14.112  0.00  0.00    +0.000 A 
ATOM      7  C   UNL     1       7.046   4.957  13.864  0.00  0.00    +0.000 A 
ATOM      8  O   UNL     1       7.694   5.242  15.018  0.00  0.00    +0.000 OA
ATOM      9  C   UNL     1       7.002   4.650  16.041  0.00  0.00    +0.000 A 
ENDBRANCH   2   9
ENDBRANCH   1   2
BRANCH   1  10
ATOM     10  C   UNL     1       7.296   7.235  17.627  0.00  0.00    +0.000 C 
ATOM     11  N   UNL     1       7.638   8.254  17.202  0.00  0.00    +0.000 NA
ENDBRANCH   1  10
BRANCH   1  12
ATOM     12  C   UNL     1       5.433   5.894  18.355  0.00  0.00    +0.000 C 
ATOM     13  O   UNL     1       4.675   6.527  17.616  0.00  0.00    +0.000 OA
BRANCH  12  14
ATOM     14  C   UNL     1       4.848   5.016  19.433  0.00  0.00    +0.000 C 
BRANCH  14  15
ATOM     15  C   UNL     1       3.353   4.856  19.231  0.00  0.00    +0.000 C 
ATOM     16  C   UNL     1       2.395   5.499  20.260  0.00  0.00    +0.000 C 
ATOM     17  C   UNL     1       1.252   4.449  20.348  0.00  0.00    +0.000 C 
ATOM     18  C   UNL     1       1.677   3.353  21.331  0.00  0.00    +0.000 C 
ATOM     19  C   UNL     1       2.920   2.775  20.638  0.00  0.00    +0.000 C 
ATOM     20  C   UNL     1       2.862   3.399  19.219  0.00  0.00    +0.000 C 
ATOM     21  C   UNL     1       1.368   3.674  19.031  0.00  0.00    +0.000 C 
ENDBRANCH  14  15
ENDBRANCH  12  14
ENDBRANCH   1  12
TORSDOF 6
ENDMDL
MODEL 2
REMARK VINA RESULT:      -7.4      0.829      1.266
REMARK  Name = 
REMARK  7 active torsions:
REMARK  status: ('A' for Active; 'I' for Inactive)
REMARK    1  A    between atoms: C_1  and  C_2
REMARK    2  A    between atoms: C_6  and  C_7
REMARK    3  A    between atoms: C_7  and  C_9
REMARK    4  A    between atoms: C_9  and  C_10
REMARK    5  A    between atoms: C_9  and  C_12
REMARK    6  A    between atoms: C_12  and  C_14
REMARK    7  A    between atoms: C_14  and  C_15
REMARK                            x       y       z     vdW  Elec       q    Type
REMARK                         _______ _______ _______ _____ _____    ______ ____
ROOT
ATOM      1  C   UNL     1       6.406   6.389  17.896  0.00  0.00    +0.000 C 
ENDROOT
BRANCH   1   2
ATOM      2  C   UNL     1       7.064   5.115  17.392  0.00  0.00    +0.000 C 
ATOM      3  O   UNL     1       7.757   4.410  18.127  0.00  0.00    +0.000 OA
BRANCH   2   9
ATOM      4  C   UNL     1       4.912   3.028  16.005  0.00  0.00    +0.000 C 
ATOM      5  C   UNL     1       5.959   3.879  15.381  0.00  0.00    +0.000 A 
ATOM      6  C   UNL     1       6.247   3.940  13.986  0.00  0.00    +0.000 A 
ATOM      7  C   UNL     1       7.248   4.866  13.833  0.00  0.00    +0.000 A 
ATOM      8  O   UNL     1       7.624   5.359  15.036  0.00  0.00    +0.000 OA
ATOM      9  C   UNL     1       6.848   4.760  15.992  0.00  0.00    +0.000 A 
ENDBRANCH   2   9
ENDBRANCH   1   2
BRANCH   1  10
ATOM     10  C   UNL     1       7.228   7.559  17.563  0.00  0.00    +0.000 C 
ATOM     11  N   UNL     1       7.867   8.505  17.378  0.00  0.00    +0.000 NA
ENDBRANCH   1  10
BRANCH   1  12
ATOM     12  C   UNL     1       5.029   6.613  17.302  0.00  0.00    +0.000 C 
ATOM     13  O   UNL     1       4.846   6.916  16.121  0.00  0.00    +0.000 OA
BRANCH  12  14
ATOM     14  C   UNL     1       3.839   6.445  18.212  0.00  0.00    +0.000 C 
BRANCH  14  15
ATOM     15  C   UNL     1       3.396   4.995  18.243  0.00  0.00    +0.000 C 
ATOM     16  C   UNL     1       1.948   4.655  17.820  0.00  0.00    +0.000 C 
ATOM     17  C   UNL     1       1.579   3.507  18.799  0.00  0.00    +0.000 C 
ATOM     18  C   UNL     1       1.116   4.128  20.121  0.00  0.00    +0.000 C 
ATOM     19  C   UNL     1       2.380   4.873  20.577  0.00  0.00    +0.000 C 
ATOM     20  C   UNL     1       3.479   4.329  19.626  0.00  0.00    +0.000 C 
ATOM     21  C   UNL     1       2.939   2.951  19.237  0.00  0.00    +0.000 C 
ENDBRANCH  14  15
ENDBRANCH  12  14
ENDBRANCH   1  12
TORSDOF 6
ENDMDL
MODEL 3
REMARK VINA RESULT:      -7.2      1.262      1.472
REMARK  Name = 
REMARK  7 active torsions:
REMARK  status: ('A' for Active; 'I' for Inactive)
REMARK    1  A    between atoms: C_1  and  C_2
REMARK    2  A    between atoms: C_6  and  C_7
REMARK    3  A    between atoms: C_7  and  C_9
REMARK    4  A    between atoms: C_9  and  C_10
REMARK    5  A    between atoms: C_9  and  C_12
REMARK    6  A    between atoms: C_12  and  C_14
REMARK    7  A    between atoms: C_14  and  C_15
REMARK                            x       y       z     vdW  Elec       q    Type
REMARK                         _______ _______ _______ _____ _____    ______ ____
ROOT
ATOM      1  C   UNL     1       6.546   5.927  18.043  0.00  0.00    +0.000 C 
ENDROOT
BRANCH   1   2
ATOM      2  C   UNL     1       7.323   4.885  17.254  0.00  0.00    +0.000 C 
ATOM      3  O   UNL     1       8.259   4.260  17.753  0.00  0.00    +0.000 OA
BRANCH   2   9
ATOM      4  C   UNL     1       4.756   3.221  16.007  0.00  0.00    +0.000 C 
ATOM      5  C   UNL     1       5.850   3.952  15.316  0.00  0.00    +0.000 A 
ATOM      6  C   UNL     1       6.003   4.062  13.903  0.00  0.00    +0.000 A 
ATOM      7  C   UNL     1       7.110   4.843  13.688  0.00  0.00    +0.000 A 
ATOM      8  O   UNL     1       7.674   5.199  14.866  0.00  0.00    +0.000 OA
ATOM      9  C   UNL     1       6.917   4.656  15.870  0.00  0.00    +0.000 A 
ENDBRANCH   2   9
ENDBRANCH   1   2
BRANCH   1  10
ATOM     10  C   UNL     1       5.590   6.623  17.172  0.00  0.00    +0.000 C 
ATOM     11  N   UNL     1       4.780   7.118  16.511  0.00  0.00    +0.000 NA
ENDBRANCH   1  10
BRANCH   1  12
ATOM     12  C   UNL     1       5.765   5.329  19.195  0.00  0.00    +0.000 C 
ATOM     13  O   UNL     1       6.287   4.654  20.086  0.00  0.00    +0.000 OA
BRANCH  12  14
ATOM     14  C   UNL     1       4.280   5.590  19.244  0.00  0.00    +0.000 C 
BRANCH  14  15
ATOM     15  C   UNL     1       3.510   4.332  18.892  0.00  0.00    +0.000 C 
ATOM     16  C   UNL     1       2.115   4.478  18.240  0.00  0.00    +0.000 C 
ATOM     17  C   UNL     1       1.327   3.303  18.882  0.00  0.00    +0.000 C 
ATOM     18  C   UNL     1       0.807   3.760  20.249  0.00  0.00    +0.000 C 
ATOM     19  C   UNL     1       2.115   4.040  21.005  0.00  0.00    +0.000 C 
ATOM     20  C   UNL     1       3.199   3.416  20.086  0.00  0.00    +0.000 C 
ATOM     21  C   UNL     1       2.423   2.333  19.334  0.00  0.00    +0.000 C 
ENDBRANCH  14  15
ENDBRANCH  12  14
ENDBRANCH   1  12
TORSDOF 6
ENDMDL
MODEL 4
REMARK VINA RESULT:      -7.2      1.649      2.732
REMARK  Name = 
REMARK  7 active torsions:
REMARK  status: ('A' for Active; 'I' for Inactive)
REMARK    1  A    between atoms: C_1  and  C_2
REMARK    2  A    between atoms: C_6  and  C_7
REMARK    3  A    between atoms: C_7  and  C_9
REMARK    4  A    between atoms: C_9  and  C_10
REMARK    5  A    between atoms: C_9  and  C_12
REMARK    6  A    between atoms: C_12  and  C_14
REMARK    7  A    between atoms: C_14  and  C_15
REMARK                            x       y       z     vdW  Elec       q    Type
REMARK                         _______ _______ _______ _____ _____    ______ ____
ROOT
ATOM      1  C   UNL     1       6.101   4.500  16.731  0.00  0.00    +0.000 C 
ENDROOT
BRANCH   1   2
ATOM      2  C   UNL     1       6.874   5.191  15.621  0.00  0.00    +0.000 C 
ATOM      3  O   UNL     1       7.570   6.184  15.837  0.00  0.00    +0.000 OA
BRANCH   2   9
ATOM      4  C   UNL     1       8.547   5.864  12.852  0.00  0.00    +0.000 C 
ATOM      5  C   UNL     1       7.437   4.904  13.091  0.00  0.00    +0.000 A 
ATOM      6  C   UNL     1       6.852   4.059  12.104  0.00  0.00    +0.000 A 
ATOM      7  C   UNL     1       5.896   3.312  12.744  0.00  0.00    +0.000 A 
ATOM      8  O   UNL     1       5.823   3.656  14.050  0.00  0.00    +0.000 OA
ATOM      9  C   UNL     1       6.756   4.633  14.276  0.00  0.00    +0.000 A 
ENDBRANCH   2   9
ENDBRANCH   1   2
BRANCH   1  10
ATOM     10  C   UNL     1       6.757   4.717  18.027  0.00  0.00    +0.000 C 
ATOM     11  N   UNL     1       7.226   4.829  19.078  0.00  0.00    +0.000 NA
ENDBRANCH   1  10
BRANCH   1  12
ATOM     12  C   UNL     1       4.674   4.997  16.851  0.00  0.00    +0.000 C 
ATOM     13  O   UNL     1       4.386   6.186  17.005  0.00  0.00    +0.000 OA
BRANCH  12  14
ATOM     14  C   UNL     1       3.568   3.976  16.768  0.00  0.00    +0.000 C 
BRANCH  14  15
ATOM     15  C   UNL     1       3.483   3.182  18.057  0.00  0.00    +0.000 C 
ATOM     16  C   UNL     1       2.361   2.127  18.204  0.00  0.00    +0.000 C 
ATOM     17  C   UNL     1       1.975   2.262  19.703  0.00  0.00    +0.000 C 
ATOM     18  C   UNL     1       0.989   3.425  19.846  0.00  0.00    +0.000 C 
ATOM     19  C   UNL     1       1.838   4.616  19.374  0.00  0.00    +0.000 C 
ATOM     20  C   UNL     1       3.274   4.032  19.321  0.00  0.00    +0.000 C 
ATOM     21  C   UNL     1       3.216   2.895  20.343  0.00  0.00    +0.000 C 
ENDBRANCH  14  15
ENDBRANCH  12  14
ENDBRANCH   1  12
TORSDOF 6
ENDMDL
MODEL 5
REMARK VINA RESULT:      -7.1      1.597      2.376
REMARK  Name = 
REMARK  7 active torsions:
REMARK  status: ('A' for Active; 'I' for Inactive)
REMARK    1  A    between atoms: C_1  and  C_2
REMARK    2  A    between atoms: C_6  and  C_7
REMARK    3  A    between atoms: C_7  and  C_9
REMARK    4  A    between atoms: C_9  and  C_10
REMARK    5  A    between atoms: C_9  and  C_12
REMARK    6  A    between atoms: C_12  and  C_14
REMARK    7  A    between atoms: C_14  and  C_15
REMARK                            x       y       z     vdW  Elec       q    Type
REMARK                         _______ _______ _______ _____ _____    ______ ____
ROOT
ATOM      1  C   UNL     1       5.999   4.627  16.864  0.00  0.00    +0.000 C 
ENDROOT
BRANCH   1   2
ATOM      2  C   UNL     1       6.777   5.278  15.732  0.00  0.00    +0.000 C 
ATOM      3  O   UNL     1       7.496   6.259  15.921  0.00  0.00    +0.000 OA
BRANCH   2   9
ATOM      4  C   UNL     1       8.519   5.760  12.967  0.00  0.00    +0.000 C 
ATOM      5  C   UNL     1       7.344   4.885  13.218  0.00  0.00    +0.000 A 
ATOM      6  C   UNL     1       6.712   4.055  12.246  0.00  0.00    +0.000 A 
ATOM      7  C   UNL     1       5.700   3.393  12.894  0.00  0.00    +0.000 A 
ATOM      8  O   UNL     1       5.638   3.777  14.190  0.00  0.00    +0.000 OA
ATOM      9  C   UNL     1       6.634   4.693  14.401  0.00  0.00    +0.000 A 
ENDBRANCH   2   9
ENDBRANCH   1   2
BRANCH   1  10
ATOM     10  C   UNL     1       6.672   4.859  18.149  0.00  0.00    +0.000 C 
ATOM     11  N   UNL     1       7.177   4.967  19.184  0.00  0.00    +0.000 NA
ENDBRANCH   1  10
BRANCH   1  12
ATOM     12  C   UNL     1       4.584   5.158  16.986  0.00  0.00    +0.000 C 
ATOM     13  O   UNL     1       4.299   6.351  16.858  0.00  0.00    +0.000 OA
BRANCH  12  14
ATOM     14  C   UNL     1       3.487   4.164  17.268  0.00  0.00    +0.000 C 
BRANCH  14  15
ATOM     15  C   UNL     1       2.660   4.612  18.458  0.00  0.00    +0.000 C 
ATOM     16  C   UNL     1       3.384   4.915  19.790  0.00  0.00    +0.000 C 
ATOM     17  C   UNL     1       2.369   4.392  20.844  0.00  0.00    +0.000 C 
ATOM     18  C   UNL     1       2.571   2.882  21.002  0.00  0.00    +0.000 C 
ATOM     19  C   UNL     1       2.232   2.371  19.593  0.00  0.00    +0.000 C 
ATOM     20  C   UNL     1       1.589   3.606  18.910  0.00  0.00    +0.000 C 
ATOM     21  C   UNL     1       1.032   4.397  20.095  0.00  0.00    +0.000 C 
ENDBRANCH  14  15
ENDBRANCH  12  14
ENDBRANCH   1  12
TORSDOF 6
ENDMDL
MODEL 6
REMARK VINA RESULT:      -7.1      1.771      3.481
REMARK  Name = 
REMARK  7 active torsions:
REMARK  status: ('A' for Active; 'I' for Inactive)
REMARK    1  A    between atoms: C_1  and  C_2
REMARK    2  A    between atoms: C_6  and  C_7
REMARK    3  A    between atoms: C_7  and  C_9
REMARK    4  A    between atoms: C_9  and  C_10
REMARK    5  A    between atoms: C_9  and  C_12
REMARK    6  A    between atoms: C_12  and  C_14
REMARK    7  A    between atoms: C_14  and  C_15
REMARK                            x       y       z     vdW  Elec       q    Type
REMARK                         _______ _______ _______ _____ _____    ______ ____
ROOT
ATOM      1  C   UNL     1       5.050   5.442  15.818  0.00  0.00    +0.000 C 
ENDROOT
BRANCH   1   2
ATOM      2  C   UNL     1       5.035   6.579  16.826  0.00  0.00    +0.000 C 
ATOM      3  O   UNL     1       3.996   7.171  17.119  0.00  0.00    +0.000 OA
BRANCH   2   9
ATOM      4  C   UNL     1       6.773   5.130  19.233  0.00  0.00    +0.000 C 
ATOM      5  C   UNL     1       7.059   6.365  18.455  0.00  0.00    +0.000 A 
ATOM      6  C   UNL     1       8.198   7.203  18.629  0.00  0.00    +0.000 A 
ATOM      7  C   UNL     1       8.095   8.203  17.697  0.00  0.00    +0.000 A 
ATOM      8  O   UNL     1       6.957   8.065  16.979  0.00  0.00    +0.000 OA
ATOM      9  C   UNL     1       6.309   6.948  17.436  0.00  0.00    +0.000 A 
ENDBRANCH   2   9
ENDBRANCH   1   2
BRANCH   1  10
ATOM     10  C   UNL     1       6.387   5.297  15.227  0.00  0.00    +0.000 C 
ATOM     11  N   UNL     1       7.469   5.181  14.837  0.00  0.00    +0.000 NA
ENDBRANCH   1  10
BRANCH   1  12
ATOM     12  C   UNL     1       4.673   4.108  16.429  0.00  0.00    +0.000 C 
ATOM     13  O   UNL     1       5.474   3.180  16.568  0.00  0.00    +0.000 OA
BRANCH  12  14
ATOM     14  C   UNL     1       3.249   3.928  16.892  0.00  0.00    +0.000 C 
BRANCH  14  15
ATOM     15  C   UNL     1       3.210   3.141  18.188  0.00  0.00    +0.000 C 
ATOM     16  C   UNL     1       1.985   2.239  18.469  0.00  0.00    +0.000 C 
ATOM     17  C   UNL     1       1.793   2.411  20.001  0.00  0.00    +0.000 C 
ATOM     18  C   UNL     1       0.989   3.691  20.248  0.00  0.00    +0.000 C 
ATOM     19  C   UNL     1       1.925   4.765  19.674  0.00  0.00    +0.000 C 
ATOM     20  C   UNL     1       3.258   4.001  19.462  0.00  0.00    +0.000 C 
ATOM     21  C   UNL     1       3.170   2.872  20.491  0.00  0.00    +0.000 C 
ENDBRANCH  14  15
ENDBRANCH  12  14
ENDBRANCH   1  12
TORSDOF 6
ENDMDL
MODEL 7
REMARK VINA RESULT:      -7.0      1.768      2.395
REMARK  Name = 
REMARK  7 active torsions:
REMARK  status: ('A' for Active; 'I' for Inactive)
REMARK    1  A    between atoms: C_1  and  C_2
REMARK    2  A    between atoms: C_6  and  C_7
REMARK    3  A    between atoms: C_7  and  C_9
REMARK    4  A    between atoms: C_9  and  C_10
REMARK    5  A    between atoms: C_9  and  C_12
REMARK    6  A    between atoms: C_12  and  C_14
REMARK    7  A    between atoms: C_14  and  C_15
REMARK                            x       y       z     vdW  Elec       q    Type
REMARK                         _______ _______ _______ _____ _____    ______ ____
ROOT
ATOM      1  C   UNL     1       5.706   4.734  16.689  0.00  0.00    +0.000 C 
ENDROOT
BRANCH   1   2
ATOM      2  C   UNL     1       5.722   5.621  15.456  0.00  0.00    +0.000 C 
ATOM      3  O   UNL     1       5.132   6.702  15.429  0.00  0.00    +0.000 OA
BRANCH   2   9
ATOM      4  C   UNL     1       4.865   3.480  13.091  0.00  0.00    +0.000 C 
ATOM      5  C   UNL     1       6.133   4.231  13.290  0.00  0.00    +0.000 A 
ATOM      6  C   UNL     1       7.281   4.144  12.450  0.00  0.00    +0.000 A 
ATOM      7  C   UNL     1       8.208   5.017  12.963  0.00  0.00    +0.000 A 
ATOM      8  O   UNL     1       7.729   5.613  14.079  0.00  0.00    +0.000 OA
ATOM      9  C   UNL     1       6.463   5.138  14.295  0.00  0.00    +0.000 A 
ENDBRANCH   2   9
ENDBRANCH   1   2
BRANCH   1  10
ATOM     10  C   UNL     1       7.076   4.468  17.149  0.00  0.00    +0.000 C 
ATOM     11  N   UNL     1       8.163   4.210  17.447  0.00  0.00    +0.000 NA
ENDBRANCH   1  10
BRANCH   1  12
ATOM     12  C   UNL     1       4.946   5.349  17.847  0.00  0.00    +0.000 C 
ATOM     13  O   UNL     1       5.500   5.809  18.849  0.00  0.00    +0.000 OA
BRANCH  12  14
ATOM     14  C   UNL     1       3.442   5.401  17.749  0.00  0.00    +0.000 C 
BRANCH  14  15
ATOM     15  C   UNL     1       2.853   4.014  17.918  0.00  0.00    +0.000 C 
ATOM     16  C   UNL     1       1.316   3.851  17.857  0.00  0.00    +0.000 C 
ATOM     17  C   UNL     1       1.059   2.751  18.924  0.00  0.00    +0.000 C 
ATOM     18  C   UNL     1       0.999   3.417  20.302  0.00  0.00    +0.000 C 
ATOM     19  C   UNL     1       2.413   4.003  20.428  0.00  0.00    +0.000 C 
ATOM     20  C   UNL     1       3.183   3.337  19.258  0.00  0.00    +0.000 C 
ATOM     21  C   UNL     1       2.409   2.035  19.041  0.00  0.00    +0.000 C 
ENDBRANCH  14  15
ENDBRANCH  12  14
ENDBRANCH   1  12
TORSDOF 6
ENDMDL
MODEL 8
REMARK VINA RESULT:      -7.0      1.565      2.863
REMARK  Name = 
REMARK  7 active torsions:
REMARK  status: ('A' for Active; 'I' for Inactive)
REMARK    1  A    between atoms: C_1  and  C_2
REMARK    2  A    between atoms: C_6  and  C_7
REMARK    3  A    between atoms: C_7  and  C_9
REMARK    4  A    between atoms: C_9  and  C_10
REMARK    5  A    between atoms: C_9  and  C_12
REMARK    6  A    between atoms: C_12  and  C_14
REMARK    7  A    between atoms: C_14  and  C_15
REMARK                            x       y       z     vdW  Elec       q    Type
REMARK                         _______ _______ _______ _____ _____    ______ ____
ROOT
ATOM      1  C   UNL     1       6.849   5.309  16.403  0.00  0.00    +0.000 C 
ENDROOT
BRANCH   1   2
ATOM      2  C   UNL     1       5.991   5.607  15.185  0.00  0.00    +0.000 C 
ATOM      3  O   UNL     1       5.120   6.477  15.203  0.00  0.00    +0.000 OA
BRANCH   2   9
ATOM      4  C   UNL     1       8.442   5.739  12.975  0.00  0.00    +0.000 C 
ATOM      5  C   UNL     1       7.251   4.852  13.031  0.00  0.00    +0.000 A 
ATOM      6  C   UNL     1       6.927   3.846  12.075  0.00  0.00    +0.000 A 
ATOM      7  C   UNL     1       5.778   3.240  12.517  0.00  0.00    +0.000 A 
ATOM      8  O   UNL     1       5.348   3.821  13.661  0.00  0.00    +0.000 OA
ATOM      9  C   UNL     1       6.236   4.812  13.985  0.00  0.00    +0.000 A 
ENDBRANCH   2   9
ENDBRANCH   1   2
BRANCH   1  10
ATOM     10  C   UNL     1       7.337   6.557  17.005  0.00  0.00    +0.000 C 
ATOM     11  N   UNL     1       7.674   7.579  17.427  0.00  0.00    +0.000 NA
ENDBRANCH   1  10
BRANCH   1  12
ATOM     12  C   UNL     1       6.100   4.546  17.477  0.00  0.00    +0.000 C 
ATOM     13  O   UNL     1       6.528   4.405  18.626  0.00  0.00    +0.000 OA
BRANCH  12  14
ATOM     14  C   UNL     1       4.769   3.943  17.108  0.00  0.00    +0.000 C 
BRANCH  14  15
ATOM     15  C   UNL     1       4.136   3.277  18.315  0.00  0.00    +0.000 C 
ATOM     16  C   UNL     1       3.384   1.941  18.113  0.00  0.00    +0.000 C 
ATOM     17  C   UNL     1       2.197   2.078  19.106  0.00  0.00    +0.000 C 
ATOM     18  C   UNL     1       1.085   2.881  18.424  0.00  0.00    +0.000 C 
ATOM     19  C   UNL     1       1.777   4.232  18.184  0.00  0.00    +0.000 C 
ATOM     20  C   UNL     1       3.072   4.126  19.031  0.00  0.00    +0.000 C 
ATOM     21  C   UNL     1       2.686   3.120  20.117  0.00  0.00    +0.000 C 
ENDBRANCH  14  15
ENDBRANCH  12  14
ENDBRANCH   1  12
TORSDOF 6
ENDMDL
MODEL 9
REMARK VINA RESULT:      -6.9      2.030      3.288
REMARK  Name = 
REMARK  7 active torsions:
REMARK  status: ('A' for Active; 'I' for Inactive)
REMARK    1  A    between atoms: C_1  and  C_2
REMARK    2  A    between atoms: C_6  and  C_7
REMARK    3  A    between atoms: C_7  and  C_9
REMARK    4  A    between atoms: C_9  and  C_10
REMARK    5  A    between atoms: C_9  and  C_12
REMARK    6  A    between atoms: C_12  and  C_14
REMARK    7  A    between atoms: C_14  and  C_15
REMARK                            x       y       z     vdW  Elec       q    Type
REMARK                         _______ _______ _______ _____ _____    ______ ____
ROOT
ATOM      1  C   UNL     1       4.740   4.839  18.115  0.00  0.00    +0.000 C 
ENDROOT
BRANCH   1   2
ATOM      2  C   UNL     1       6.014   5.013  17.305  0.00  0.00    +0.000 C 
ATOM      3  O   UNL     1       6.324   4.228  16.408  0.00  0.00    +0.000 OA
BRANCH   2   9
ATOM      4  C   UNL     1       8.114   5.473  19.813  0.00  0.00    +0.000 C 
ATOM      5  C   UNL     1       7.751   6.377  18.690  0.00  0.00    +0.000 A 
ATOM      6  C   UNL     1       8.267   7.690  18.490  0.00  0.00    +0.000 A 
ATOM      7  C   UNL     1       7.706   8.159  17.330  0.00  0.00    +0.000 A 
ATOM      8  O   UNL     1       6.854   7.244  16.813  0.00  0.00    +0.000 OA
ATOM      9  C   UNL     1       6.866   6.151  17.638  0.00  0.00    +0.000 A 
ENDBRANCH   2   9
ENDBRANCH   1   2
BRANCH   1  10
ATOM     10  C   UNL     1       3.866   6.009  17.956  0.00  0.00    +0.000 C 
ATOM     11  N   UNL     1       3.221   6.949  17.764  0.00  0.00    +0.000 NA
ENDBRANCH   1  10
BRANCH   1  12
ATOM     12  C   UNL     1       3.944   3.616  17.704  0.00  0.00    +0.000 C 
ATOM     13  O   UNL     1       3.338   3.535  16.633  0.00  0.00    +0.000 OA
BRANCH  12  14
ATOM     14  C   UNL     1       3.912   2.449  18.659  0.00  0.00    +0.000 C 
BRANCH  14  15
ATOM     15  C   UNL     1       2.590   2.410  19.401  0.00  0.00    +0.000 C 
ATOM     16  C   UNL     1       1.418   3.267  18.870  0.00  0.00    +0.000 C 
ATOM     17  C   UNL     1       0.735   3.743  20.182  0.00  0.00    +0.000 C 
ATOM     18  C   UNL     1       1.485   4.975  20.698  0.00  0.00    +0.000 C 
ATOM     19  C   UNL     1       2.884   4.399  20.969  0.00  0.00    +0.000 C 
ATOM     20  C   UNL     1       2.666   2.867  20.868  0.00  0.00    +0.000 C 
ATOM     21  C   UNL     1       1.185   2.711  21.221  0.00  0.00    +0.000 C 
ENDBRANCH  14  15
ENDBRANCH  12  14
ENDBRANCH   1  12
TORSDOF 6
ENDMDL
