MODEL 1
REMARK VINA RESULT:      -8.2      0.000      0.000
REMARK  Name = 
REMARK  9 active torsions:
REMARK  status: ('A' for Active; 'I' for Inactive)
REMARK    1  A    between atoms: C_1  and  O_2
REMARK    2  A    between atoms: O_2  and  C_3
REMARK    3  A    between atoms: C_5  and  N_6
REMARK    4  A    between atoms: C_7  and  C_9
REMARK    5  A    between atoms: C_13  and  N_14
REMARK    6  A    between atoms: C_21  and  C_22
REMARK    7  A    between atoms: C_22  and  C_23
REMARK    8  A    between atoms: C_23  and  C_24
REMARK    9  A    between atoms: C_24  and  O_26
REMARK                            x       y       z     vdW  Elec       q    Type
REMARK                         _______ _______ _______ _____ _____    ______ ____
ROOT
ATOM      1  N   UNL     1       1.707   7.611  18.773  0.00  0.00    +0.000 N 
ATOM      2  C   UNL     1       1.620   8.905  18.280  0.00  0.00    +0.000 C 
ATOM      3  O   UNL     1       2.145   9.338  17.261  0.00  0.00    +0.000 OA
ATOM      4  H   UNL     1       1.077   7.354  19.521  0.00  0.00    +0.000 HD
ENDROOT
BRANCH   1   7
ATOM      5  C   UNL     1       2.932   4.297  17.468  0.00  0.00    +0.000 A 
ATOM      6  C   UNL     1       2.121   5.270  18.089  0.00  0.00    +0.000 A 
ATOM      7  C   UNL     1       2.550   6.580  18.281  0.00  0.00    +0.000 A 
ATOM      8  C   UNL     1       3.849   6.914  17.911  0.00  0.00    +0.000 A 
ATOM      9  C   UNL     1       4.679   5.949  17.324  0.00  0.00    +0.000 A 
ATOM     10  C   UNL     1       4.232   4.635  17.061  0.00  0.00    +0.000 A 
BRANCH   5  12
ATOM     11  C   UNL     1       2.337   2.067  18.141  0.00  0.00    +0.000 C 
ATOM     12  O   UNL     1       2.242   3.143  17.226  0.00  0.00    +0.000 OA
ENDBRANCH   5  12
BRANCH  10  13
ATOM     13  C   UNL     1       5.149   3.778  16.211  0.00  0.00    +0.000 C 
BRANCH  13  14
ATOM     14  C   UNL     1       5.738   4.619  15.081  0.00  0.00    +0.000 C 
BRANCH  14  15
ATOM     15  C   UNL     1       7.224   4.812  15.204  0.00  0.00    +0.000 C 
ATOM     16  O   UNL     1       7.906   4.504  16.159  0.00  0.00    +0.000 OA
BRANCH  15  17
ATOM     17  O   UNL     1       7.742   5.395  14.090  0.00  0.00    +0.000 OA
ATOM     18  H   UNL     1       8.711   5.521  14.135  0.00  0.00    +0.000 HD
ENDBRANCH  15  17
ENDBRANCH  14  15
ENDBRANCH  13  14
ENDBRANCH  10  13
ENDBRANCH   1   7
BRANCH   2  19
ATOM     19  C   UNL     1       0.729   9.819  19.041  0.00  0.00    +0.000 A 
ATOM     20  C   UNL     1       0.999  10.160  20.369  0.00  0.00    +0.000 A 
ATOM     21  C   UNL     1       0.094  10.956  21.065  0.00  0.00    +0.000 A 
ATOM     22  C   UNL     1      -1.081  11.385  20.438  0.00  0.00    +0.000 A 
ATOM     23  C   UNL     1      -1.364  11.066  19.097  0.00  0.00    +0.000 A 
ATOM     24  C   UNL     1      -0.417  10.318  18.394  0.00  0.00    +0.000 A 
BRANCH  23  25
ATOM     25  N   UNL     1      -2.576  11.518  18.549  0.00  0.00    +0.000 N 
ATOM     26  C   UNL     1      -3.011  11.612  17.270  0.00  0.00    +0.000 C 
ATOM     27  N   UNL     1      -2.386  11.513  16.153  0.00  0.00    +0.000 NA
ATOM     28  N   UNL     1      -4.329  11.918  17.204  0.00  0.00    +0.000 N 
ATOM     29  H   UNL     1      -3.215  11.915  19.224  0.00  0.00    +0.000 HD
ATOM     30  H   UNL     1      -1.395  11.348  16.322  0.00  0.00    +0.000 HD
ATOM     31  H   UNL     1      -4.919  11.240  17.673  0.00  0.00    +0.000 HD
ATOM     32  H   UNL     1      -4.590  11.959  16.222  0.00  0.00    +0.000 HD
ENDBRANCH  23  25
ENDBRANCH   2  19
TORSDOF 8
ENDMDL
MODEL 2
REMARK VINA RESULT:      -8.1      1.823      2.669
REMARK  Name = 
REMARK  9 active torsions:
REMARK  status: ('A' for Active; 'I' for Inactive)
REMARK    1  A    between atoms: C_1  and  O_2
REMARK    2  A    between atoms: O_2  and  C_3
REMARK    3  A    between atoms: C_5  and  N_6
REMARK    4  A    between atoms: C_7  and  C_9
REMARK    5  A    between atoms: C_13  and  N_14
REMARK    6  A    between atoms: C_21  and  C_22
REMARK    7  A    between atoms: C_22  and  C_23
REMARK    8  A    between atoms: C_23  and  C_24
REMARK    9  A    between atoms: C_24  and  O_26
REMARK                            x       y       z     vdW  Elec       q    Type
REMARK                         _______ _______ _______ _____ _____    ______ ____
ROOT
ATOM      1  N   UNL     1       2.363   7.413  19.102  0.00  0.00    +0.000 N 
ATOM      2  C   UNL     1       1.718   8.609  18.823  0.00  0.00    +0.000 C 
ATOM      3  O   UNL     1       1.633   9.160  17.732  0.00  0.00    +0.000 OA
ATOM      4  H   UNL     1       2.195   6.992  20.005  0.00  0.00    +0.000 HD
ENDROOT
BRANCH   1   7
ATOM      5  C   UNL     1       5.212   6.411  16.849  0.00  0.00    +0.000 A 
ATOM      6  C   UNL     1       4.333   7.203  17.619  0.00  0.00    +0.000 A 
ATOM      7  C   UNL     1       3.187   6.677  18.210  0.00  0.00    +0.000 A 
ATOM      8  C   UNL     1       2.866   5.345  17.967  0.00  0.00    +0.000 A 
ATOM      9  C   UNL     1       3.711   4.555  17.177  0.00  0.00    +0.000 A 
ATOM     10  C   UNL     1       4.913   5.058  16.629  0.00  0.00    +0.000 A 
BRANCH   5  12
ATOM     11  C   UNL     1       7.419   7.148  17.454  0.00  0.00    +0.000 C 
ATOM     12  O   UNL     1       6.352   7.091  16.526  0.00  0.00    +0.000 OA
ENDBRANCH   5  12
BRANCH  10  13
ATOM     13  C   UNL     1       5.838   4.033  16.003  0.00  0.00    +0.000 C 
BRANCH  13  14
ATOM     14  C   UNL     1       5.677   4.056  14.485  0.00  0.00    +0.000 C 
BRANCH  14  15
ATOM     15  C   UNL     1       6.884   4.601  13.772  0.00  0.00    +0.000 C 
ATOM     16  O   UNL     1       7.713   5.351  14.246  0.00  0.00    +0.000 OA
BRANCH  15  17
ATOM     17  O   UNL     1       6.948   4.154  12.491  0.00  0.00    +0.000 OA
ATOM     18  H   UNL     1       7.325   3.255  12.413  0.00  0.00    +0.000 HD
ENDBRANCH  15  17
ENDBRANCH  14  15
ENDBRANCH  13  14
ENDBRANCH  10  13
ENDBRANCH   1   7
BRANCH   2  19
ATOM     19  C   UNL     1       0.995   9.225  19.966  0.00  0.00    +0.000 A 
ATOM     20  C   UNL     1       0.828   8.543  21.175  0.00  0.00    +0.000 A 
ATOM     21  C   UNL     1       0.076   9.128  22.189  0.00  0.00    +0.000 A 
ATOM     22  C   UNL     1      -0.520  10.377  21.981  0.00  0.00    +0.000 A 
ATOM     23  C   UNL     1      -0.352  11.087  20.778  0.00  0.00    +0.000 A 
ATOM     24  C   UNL     1       0.456  10.514  19.794  0.00  0.00    +0.000 A 
BRANCH  23  25
ATOM     25  N   UNL     1      -1.002  12.325  20.642  0.00  0.00    +0.000 N 
ATOM     26  C   UNL     1      -1.991  12.740  19.814  0.00  0.00    +0.000 C 
ATOM     27  N   UNL     1      -2.501  12.203  18.766  0.00  0.00    +0.000 NA
ATOM     28  N   UNL     1      -2.460  13.964  20.158  0.00  0.00    +0.000 N 
ATOM     29  H   UNL     1      -0.615  13.064  21.211  0.00  0.00    +0.000 HD
ATOM     30  H   UNL     1      -2.031  11.322  18.563  0.00  0.00    +0.000 HD
ATOM     31  H   UNL     1      -2.823  13.999  21.104  0.00  0.00    +0.000 HD
ATOM     32  H   UNL     1      -3.204  14.206  19.509  0.00  0.00    +0.000 HD
ENDBRANCH  23  25
ENDBRANCH   2  19
TORSDOF 8
ENDMDL
MODEL 3
REMARK VINA RESULT:      -8.1      1.228      1.289
REMARK  Name = 
REMARK  9 active torsions:
REMARK  status: ('A' for Active; 'I' for Inactive)
REMARK    1  A    between atoms: C_1  and  O_2
REMARK    2  A    between atoms: O_2  and  C_3
REMARK    3  A    between atoms: C_5  and  N_6
REMARK    4  A    between atoms: C_7  and  C_9
REMARK    5  A    between atoms: C_13  and  N_14
REMARK    6  A    between atoms: C_21  and  C_22
REMARK    7  A    between atoms: C_22  and  C_23
REMARK    8  A    between atoms: C_23  and  C_24
REMARK    9  A    between atoms: C_24  and  O_26
REMARK                            x       y       z     vdW  Elec       q    Type
REMARK                         _______ _______ _______ _____ _____    ______ ____
ROOT
ATOM      1  N   UNL     1       1.959   8.703  18.039  0.00  0.00    +0.000 N 
ATOM      2  C   UNL     1       1.311   9.139  19.185  0.00  0.00    +0.000 C 
ATOM      3  O   UNL     1       1.387   8.645  20.303  0.00  0.00    +0.000 OA
ATOM      4  H   UNL     1       1.944   9.314  17.233  0.00  0.00    +0.000 HD
ENDROOT
BRANCH   1   7
ATOM      5  C   UNL     1       2.908   5.059  17.921  0.00  0.00    +0.000 A 
ATOM      6  C   UNL     1       2.194   6.244  18.196  0.00  0.00    +0.000 A 
ATOM      7  C   UNL     1       2.709   7.504  17.903  0.00  0.00    +0.000 A 
ATOM      8  C   UNL     1       4.000   7.592  17.393  0.00  0.00    +0.000 A 
ATOM      9  C   UNL     1       4.735   6.425  17.146  0.00  0.00    +0.000 A 
ATOM     10  C   UNL     1       4.198   5.138  17.373  0.00  0.00    +0.000 A 
BRANCH   5  12
ATOM     11  C   UNL     1       1.350   3.845  19.292  0.00  0.00    +0.000 C 
ATOM     12  O   UNL     1       2.139   3.948  18.121  0.00  0.00    +0.000 OA
ENDBRANCH   5  12
BRANCH  10  13
ATOM     13  C   UNL     1       5.010   3.974  16.839  0.00  0.00    +0.000 C 
BRANCH  13  14
ATOM     14  C   UNL     1       5.667   4.368  15.519  0.00  0.00    +0.000 C 
BRANCH  14  15
ATOM     15  C   UNL     1       7.133   4.677  15.661  0.00  0.00    +0.000 C 
ATOM     16  O   UNL     1       7.831   4.398  16.613  0.00  0.00    +0.000 OA
BRANCH  15  17
ATOM     17  O   UNL     1       7.609   5.331  14.568  0.00  0.00    +0.000 OA
ATOM     18  H   UNL     1       6.923   5.507  13.894  0.00  0.00    +0.000 HD
ENDBRANCH  15  17
ENDBRANCH  14  15
ENDBRANCH  13  14
ENDBRANCH  10  13
ENDBRANCH   1   7
BRANCH   2  19
ATOM     19  C   UNL     1       0.512  10.383  19.031  0.00  0.00    +0.000 A 
ATOM     20  C   UNL     1       0.951  11.600  19.560  0.00  0.00    +0.000 A 
ATOM     21  C   UNL     1       0.132  12.720  19.461  0.00  0.00    +0.000 A 
ATOM     22  C   UNL     1      -1.125  12.612  18.855  0.00  0.00    +0.000 A 
ATOM     23  C   UNL     1      -1.579  11.400  18.303  0.00  0.00    +0.000 A 
ATOM     24  C   UNL     1      -0.721  10.300  18.357  0.00  0.00    +0.000 A 
BRANCH  23  25
ATOM     25  N   UNL     1      -2.863  11.371  17.734  0.00  0.00    +0.000 N 
ATOM     26  C   UNL     1      -3.281  11.230  16.453  0.00  0.00    +0.000 C 
ATOM     27  N   UNL     1      -2.640  11.284  15.342  0.00  0.00    +0.000 NA
ATOM     28  N   UNL     1      -4.622  11.057  16.373  0.00  0.00    +0.000 N 
ATOM     29  H   UNL     1      -3.612  11.564  18.384  0.00  0.00    +0.000 HD
ATOM     30  H   UNL     1      -1.657  11.483  15.516  0.00  0.00    +0.000 HD
ATOM     31  H   UNL     1      -4.950  10.248  16.887  0.00  0.00    +0.000 HD
ATOM     32  H   UNL     1      -4.864  10.945  15.391  0.00  0.00    +0.000 HD
ENDBRANCH  23  25
ENDBRANCH   2  19
TORSDOF 8
ENDMDL
MODEL 4
REMARK VINA RESULT:      -8.1      1.761      2.077
REMARK  Name = 
REMARK  9 active torsions:
REMARK  status: ('A' for Active; 'I' for Inactive)
REMARK    1  A    between atoms: C_1  and  O_2
REMARK    2  A    between atoms: O_2  and  C_3
REMARK    3  A    between atoms: C_5  and  N_6
REMARK    4  A    between atoms: C_7  and  C_9
REMARK    5  A    between atoms: C_13  and  N_14
REMARK    6  A    between atoms: C_21  and  C_22
REMARK    7  A    between atoms: C_22  and  C_23
REMARK    8  A    between atoms: C_23  and  C_24
REMARK    9  A    between atoms: C_24  and  O_26
REMARK                            x       y       z     vdW  Elec       q    Type
REMARK                         _______ _______ _______ _____ _____    ______ ____
ROOT
ATOM      1  N   UNL     1       2.309   7.590  19.182  0.00  0.00    +0.000 N 
ATOM      2  C   UNL     1       1.662   7.464  20.402  0.00  0.00    +0.000 C 
ATOM      3  O   UNL     1       1.684   6.491  21.147  0.00  0.00    +0.000 OA
ATOM      4  H   UNL     1       2.348   8.512  18.768  0.00  0.00    +0.000 HD
ENDROOT
BRANCH   1   7
ATOM      5  C   UNL     1       3.067   4.360  17.397  0.00  0.00    +0.000 A 
ATOM      6  C   UNL     1       2.425   5.316  18.213  0.00  0.00    +0.000 A 
ATOM      7  C   UNL     1       2.992   6.559  18.484  0.00  0.00    +0.000 A 
ATOM      8  C   UNL     1       4.265   6.830  17.992  0.00  0.00    +0.000 A 
ATOM      9  C   UNL     1       4.929   5.877  17.209  0.00  0.00    +0.000 A 
ATOM     10  C   UNL     1       4.336   4.640  16.869  0.00  0.00    +0.000 A 
BRANCH   5  12
ATOM     11  C   UNL     1       2.303   2.148  17.947  0.00  0.00    +0.000 C 
ATOM     12  O   UNL     1       2.250   3.299  17.125  0.00  0.00    +0.000 OA
ENDBRANCH   5  12
BRANCH  10  13
ATOM     13  C   UNL     1       5.067   3.816  15.826  0.00  0.00    +0.000 C 
BRANCH  13  14
ATOM     14  C   UNL     1       6.476   4.370  15.629  0.00  0.00    +0.000 C 
BRANCH  14  15
ATOM     15  C   UNL     1       6.858   4.502  14.180  0.00  0.00    +0.000 C 
ATOM     16  O   UNL     1       7.512   5.402  13.695  0.00  0.00    +0.000 OA
BRANCH  15  17
ATOM     17  O   UNL     1       6.371   3.469  13.443  0.00  0.00    +0.000 OA
ATOM     18  H   UNL     1       6.756   2.604  13.687  0.00  0.00    +0.000 HD
ENDBRANCH  15  17
ENDBRANCH  14  15
ENDBRANCH  13  14
ENDBRANCH  10  13
ENDBRANCH   1   7
BRANCH   2  19
ATOM     19  C   UNL     1       0.939   8.676  20.870  0.00  0.00    +0.000 A 
ATOM     20  C   UNL     1       0.636   8.866  22.221  0.00  0.00    +0.000 A 
ATOM     21  C   UNL     1      -0.111   9.977  22.601  0.00  0.00    +0.000 A 
ATOM     22  C   UNL     1      -0.567  10.874  21.629  0.00  0.00    +0.000 A 
ATOM     23  C   UNL     1      -0.259  10.709  20.266  0.00  0.00    +0.000 A 
ATOM     24  C   UNL     1       0.542   9.623  19.908  0.00  0.00    +0.000 A 
BRANCH  23  25
ATOM     25  N   UNL     1      -0.775  11.644  19.352  0.00  0.00    +0.000 N 
ATOM     26  C   UNL     1      -0.172  12.439  18.436  0.00  0.00    +0.000 C 
ATOM     27  N   UNL     1       1.063  12.738  18.254  0.00  0.00    +0.000 NA
ATOM     28  N   UNL     1      -1.070  13.045  17.622  0.00  0.00    +0.000 N 
ATOM     29  H   UNL     1      -1.767  11.811  19.443  0.00  0.00    +0.000 HD
ATOM     30  H   UNL     1       1.639  12.281  18.959  0.00  0.00    +0.000 HD
ATOM     31  H   UNL     1      -1.654  12.390  17.116  0.00  0.00    +0.000 HD
ATOM     32  H   UNL     1      -0.553  13.612  16.955  0.00  0.00    +0.000 HD
ENDBRANCH  23  25
ENDBRANCH   2  19
TORSDOF 8
ENDMDL
MODEL 5
REMARK VINA RESULT:      -8.1      1.522      1.843
REMARK  Name = 
REMARK  9 active torsions:
REMARK  status: ('A' for Active; 'I' for Inactive)
REMARK    1  A    between atoms: C_1  and  O_2
REMARK    2  A    between atoms: O_2  and  C_3
REMARK    3  A    between atoms: C_5  and  N_6
REMARK    4  A    between atoms: C_7  and  C_9
REMARK    5  A    between atoms: C_13  and  N_14
REMARK    6  A    between atoms: C_21  and  C_22
REMARK    7  A    between atoms: C_22  and  C_23
REMARK    8  A    between atoms: C_23  and  C_24
REMARK    9  A    between atoms: C_24  and  O_26
REMARK                            x       y       z     vdW  Elec       q    Type
REMARK                         _______ _______ _______ _____ _____    ______ ____
ROOT
ATOM      1  N   UNL     1       2.558   7.191  18.982  0.00  0.00    +0.000 N 
ATOM      2  C   UNL     1       2.095   8.399  18.483  0.00  0.00    +0.000 C 
ATOM      3  O   UNL     1       2.173   8.794  17.326  0.00  0.00    +0.000 OA
ATOM      4  H   UNL     1       2.262   6.926  19.912  0.00  0.00    +0.000 HD
ENDROOT
BRANCH   1   7
ATOM      5  C   UNL     1       3.745   4.011  17.347  0.00  0.00    +0.000 A 
ATOM      6  C   UNL     1       3.013   4.901  18.162  0.00  0.00    +0.000 A 
ATOM      7  C   UNL     1       3.355   6.245  18.284  0.00  0.00    +0.000 A 
ATOM      8  C   UNL     1       4.499   6.700  17.636  0.00  0.00    +0.000 A 
ATOM      9  C   UNL     1       5.255   5.820  16.851  0.00  0.00    +0.000 A 
ATOM     10  C   UNL     1       4.880   4.471  16.663  0.00  0.00    +0.000 A 
BRANCH   5  12
ATOM     11  C   UNL     1       2.407   2.281  18.345  0.00  0.00    +0.000 C 
ATOM     12  O   UNL     1       3.125   2.798  17.241  0.00  0.00    +0.000 OA
ENDBRANCH   5  12
BRANCH  10  13
ATOM     13  C   UNL     1       5.652   3.707  15.605  0.00  0.00    +0.000 C 
BRANCH  13  14
ATOM     14  C   UNL     1       5.521   4.418  14.260  0.00  0.00    +0.000 C 
BRANCH  14  15
ATOM     15  C   UNL     1       6.839   4.600  13.560  0.00  0.00    +0.000 C 
ATOM     16  O   UNL     1       7.128   4.173  12.462  0.00  0.00    +0.000 OA
BRANCH  15  17
ATOM     17  O   UNL     1       7.709   5.317  14.320  0.00  0.00    +0.000 OA
ATOM     18  H   UNL     1       8.126   6.058  13.836  0.00  0.00    +0.000 HD
ENDBRANCH  15  17
ENDBRANCH  14  15
ENDBRANCH  13  14
ENDBRANCH  10  13
ENDBRANCH   1   7
BRANCH   2  19
ATOM     19  C   UNL     1       1.361   9.251  19.455  0.00  0.00    +0.000 A 
ATOM     20  C   UNL     1       0.834   8.720  20.636  0.00  0.00    +0.000 A 
ATOM     21  C   UNL     1       0.086   9.538  21.477  0.00  0.00    +0.000 A 
ATOM     22  C   UNL     1      -0.147  10.871  21.123  0.00  0.00    +0.000 A 
ATOM     23  C   UNL     1       0.387  11.430  19.947  0.00  0.00    +0.000 A 
ATOM     24  C   UNL     1       1.186  10.612  19.144  0.00  0.00    +0.000 A 
BRANCH  23  25
ATOM     25  N   UNL     1       0.086  12.771  19.653  0.00  0.00    +0.000 N 
ATOM     26  C   UNL     1      -0.600  13.341  18.634  0.00  0.00    +0.000 C 
ATOM     27  N   UNL     1      -1.014  12.862  17.518  0.00  0.00    +0.000 NA
ATOM     28  N   UNL     1      -0.822  14.660  18.848  0.00  0.00    +0.000 N 
ATOM     29  H   UNL     1       0.522  13.440  20.271  0.00  0.00    +0.000 HD
ATOM     30  H   UNL     1      -0.737  11.885  17.435  0.00  0.00    +0.000 HD
ATOM     31  H   UNL     1      -1.339  14.844  19.700  0.00  0.00    +0.000 HD
ATOM     32  H   UNL     1      -1.350  15.020  18.057  0.00  0.00    +0.000 HD
ENDBRANCH  23  25
ENDBRANCH   2  19
TORSDOF 8
ENDMDL
MODEL 6
REMARK VINA RESULT:      -8.0      1.913      2.312
REMARK  Name = 
REMARK  9 active torsions:
REMARK  status: ('A' for Active; 'I' for Inactive)
REMARK    1  A    between atoms: C_1  and  O_2
REMARK    2  A    between atoms: O_2  and  C_3
REMARK    3  A    between atoms: C_5  and  N_6
REMARK    4  A    between atoms: C_7  and  C_9
REMARK    5  A    between atoms: C_13  and  N_14
REMARK    6  A    between atoms: C_21  and  C_22
REMARK    7  A    between atoms: C_22  and  C_23
REMARK    8  A    between atoms: C_23  and  C_24
REMARK    9  A    between atoms: C_24  and  O_26
REMARK                            x       y       z     vdW  Elec       q    Type
REMARK                         _______ _______ _______ _____ _____    ______ ____
ROOT
ATOM      1  N   UNL     1       3.126   7.299  18.182  0.00  0.00    +0.000 N 
ATOM      2  C   UNL     1       2.395   7.129  19.349  0.00  0.00    +0.000 C 
ATOM      3  O   UNL     1       2.418   6.156  20.093  0.00  0.00    +0.000 OA
ATOM      4  H   UNL     1       3.141   8.224  17.772  0.00  0.00    +0.000 HD
ENDROOT
BRANCH   1   7
ATOM      5  C   UNL     1       4.513   3.982  17.059  0.00  0.00    +0.000 A 
ATOM      6  C   UNL     1       3.816   4.953  17.809  0.00  0.00    +0.000 A 
ATOM      7  C   UNL     1       3.920   6.314  17.538  0.00  0.00    +0.000 A 
ATOM      8  C   UNL     1       4.800   6.728  16.542  0.00  0.00    +0.000 A 
ATOM      9  C   UNL     1       5.525   5.777  15.812  0.00  0.00    +0.000 A 
ATOM     10  C   UNL     1       5.376   4.389  16.030  0.00  0.00    +0.000 A 
BRANCH   5  12
ATOM     11  C   UNL     1       3.371   2.496  18.564  0.00  0.00    +0.000 C 
ATOM     12  O   UNL     1       4.120   2.715  17.383  0.00  0.00    +0.000 OA
ENDBRANCH   5  12
BRANCH  10  13
ATOM     13  C   UNL     1       6.037   3.481  15.012  0.00  0.00    +0.000 C 
BRANCH  13  14
ATOM     14  C   UNL     1       6.244   4.239  13.703  0.00  0.00    +0.000 C 
BRANCH  14  15
ATOM     15  C   UNL     1       5.783   3.468  12.497  0.00  0.00    +0.000 C 
ATOM     16  O   UNL     1       4.658   3.463  12.042  0.00  0.00    +0.000 OA
BRANCH  15  17
ATOM     17  O   UNL     1       6.798   2.745  11.954  0.00  0.00    +0.000 OA
ATOM     18  H   UNL     1       7.341   2.280  12.622  0.00  0.00    +0.000 HD
ENDBRANCH  15  17
ENDBRANCH  14  15
ENDBRANCH  13  14
ENDBRANCH  10  13
ENDBRANCH   1   7
BRANCH   2  19
ATOM     19  C   UNL     1       1.567   8.293  19.759  0.00  0.00    +0.000 A 
ATOM     20  C   UNL     1       1.294   8.554  21.105  0.00  0.00    +0.000 A 
ATOM     21  C   UNL     1       0.449   9.608  21.437  0.00  0.00    +0.000 A 
ATOM     22  C   UNL     1      -0.131  10.379  20.424  0.00  0.00    +0.000 A 
ATOM     23  C   UNL     1       0.142  10.143  19.064  0.00  0.00    +0.000 A 
ATOM     24  C   UNL     1       1.040   9.121  18.750  0.00  0.00    +0.000 A 
BRANCH  23  25
ATOM     25  N   UNL     1      -0.500  10.949  18.108  0.00  0.00    +0.000 N 
ATOM     26  C   UNL     1      -1.682  10.815  17.461  0.00  0.00    +0.000 C 
ATOM     27  N   UNL     1      -2.487   9.820  17.362  0.00  0.00    +0.000 NA
ATOM     28  N   UNL     1      -2.009  11.932  16.766  0.00  0.00    +0.000 N 
ATOM     29  H   UNL     1       0.050  11.733  17.788  0.00  0.00    +0.000 HD
ATOM     30  H   UNL     1      -2.111   9.018  17.866  0.00  0.00    +0.000 HD
ATOM     31  H   UNL     1      -2.077  12.757  17.350  0.00  0.00    +0.000 HD
ATOM     32  H   UNL     1      -2.908  11.768  16.319  0.00  0.00    +0.000 HD
ENDBRANCH  23  25
ENDBRANCH   2  19
TORSDOF 8
ENDMDL
MODEL 7
REMARK VINA RESULT:      -8.0      1.175      1.316
REMARK  Name = 
REMARK  9 active torsions:
REMARK  status: ('A' for Active; 'I' for Inactive)
REMARK    1  A    between atoms: C_1  and  O_2
REMARK    2  A    between atoms: O_2  and  C_3
REMARK    3  A    between atoms: C_5  and  N_6
REMARK    4  A    between atoms: C_7  and  C_9
REMARK    5  A    between atoms: C_13  and  N_14
REMARK    6  A    between atoms: C_21  and  C_22
REMARK    7  A    between atoms: C_22  and  C_23
REMARK    8  A    between atoms: C_23  and  C_24
REMARK    9  A    between atoms: C_24  and  O_26
REMARK                            x       y       z     vdW  Elec       q    Type
REMARK                         _______ _______ _______ _____ _____    ______ ____
ROOT
ATOM      1  N   UNL     1       1.990   8.224  18.433  0.00  0.00    +0.000 N 
ATOM      2  C   UNL     1       1.533   8.532  19.706  0.00  0.00    +0.000 C 
ATOM      3  O   UNL     1       1.854   7.983  20.753  0.00  0.00    +0.000 OA
ATOM      4  H   UNL     1       1.778   8.877  17.691  0.00  0.00    +0.000 HD
ENDROOT
BRANCH   1   7
ATOM      5  C   UNL     1       3.128   4.707  17.706  0.00  0.00    +0.000 A 
ATOM      6  C   UNL     1       2.367   5.790  18.196  0.00  0.00    +0.000 A 
ATOM      7  C   UNL     1       2.795   7.110  18.077  0.00  0.00    +0.000 A 
ATOM      8  C   UNL     1       4.048   7.354  17.523  0.00  0.00    +0.000 A 
ATOM      9  C   UNL     1       4.829   6.286  17.063  0.00  0.00    +0.000 A 
ATOM     10  C   UNL     1       4.377   4.949  17.114  0.00  0.00    +0.000 A 
BRANCH   5  12
ATOM     11  C   UNL     1       2.385   2.814  18.989  0.00  0.00    +0.000 C 
ATOM     12  O   UNL     1       2.433   3.532  17.770  0.00  0.00    +0.000 OA
ENDBRANCH   5  12
BRANCH  10  13
ATOM     13  C   UNL     1       5.219   3.933  16.368  0.00  0.00    +0.000 C 
BRANCH  13  14
ATOM     14  C   UNL     1       6.625   4.487  16.155  0.00  0.00    +0.000 C 
BRANCH  14  15
ATOM     15  C   UNL     1       7.014   4.565  14.704  0.00  0.00    +0.000 C 
ATOM     16  O   UNL     1       7.758   5.386  14.208  0.00  0.00    +0.000 OA
BRANCH  15  17
ATOM     17  O   UNL     1       6.416   3.584  13.978  0.00  0.00    +0.000 OA
ATOM     18  H   UNL     1       5.471   3.460  14.200  0.00  0.00    +0.000 HD
ENDBRANCH  15  17
ENDBRANCH  14  15
ENDBRANCH  13  14
ENDBRANCH  10  13
ENDBRANCH   1   7
BRANCH   2  19
ATOM     19  C   UNL     1       0.622   9.703  19.791  0.00  0.00    +0.000 A 
ATOM     20  C   UNL     1       0.458  10.412  20.985  0.00  0.00    +0.000 A 
ATOM     21  C   UNL     1      -0.465  11.452  21.038  0.00  0.00    +0.000 A 
ATOM     22  C   UNL     1      -1.229  11.762  19.907  0.00  0.00    +0.000 A 
ATOM     23  C   UNL     1      -1.068  11.071  18.692  0.00  0.00    +0.000 A 
ATOM     24  C   UNL     1      -0.096  10.070  18.638  0.00  0.00    +0.000 A 
BRANCH  23  25
ATOM     25  N   UNL     1      -1.892  11.429  17.612  0.00  0.00    +0.000 N 
ATOM     26  C   UNL     1      -3.179  11.126  17.317  0.00  0.00    +0.000 C 
ATOM     27  N   UNL     1      -3.982  10.260  17.818  0.00  0.00    +0.000 NA
ATOM     28  N   UNL     1      -3.643  11.850  16.269  0.00  0.00    +0.000 N 
ATOM     29  H   UNL     1      -1.421  11.945  16.882  0.00  0.00    +0.000 HD
ATOM     30  H   UNL     1      -3.510   9.730  18.550  0.00  0.00    +0.000 HD
ATOM     31  H   UNL     1      -3.597  12.850  16.426  0.00  0.00    +0.000 HD
ATOM     32  H   UNL     1      -4.612  11.584  16.112  0.00  0.00    +0.000 HD
ENDBRANCH  23  25
ENDBRANCH   2  19
TORSDOF 8
ENDMDL
MODEL 8
REMARK VINA RESULT:      -8.0      3.498      9.405
REMARK  Name = 
REMARK  9 active torsions:
REMARK  status: ('A' for Active; 'I' for Inactive)
REMARK    1  A    between atoms: C_1  and  O_2
REMARK    2  A    between atoms: O_2  and  C_3
REMARK    3  A    between atoms: C_5  and  N_6
REMARK    4  A    between atoms: C_7  and  C_9
REMARK    5  A    between atoms: C_13  and  N_14
REMARK    6  A    between atoms: C_21  and  C_22
REMARK    7  A    between atoms: C_22  and  C_23
REMARK    8  A    between atoms: C_23  and  C_24
REMARK    9  A    between atoms: C_24  and  O_26
REMARK                            x       y       z     vdW  Elec       q    Type
REMARK                         _______ _______ _______ _____ _____    ______ ____
ROOT
ATOM      1  N   UNL     1       1.224   9.038  19.541  0.00  0.00    +0.000 N 
ATOM      2  C   UNL     1       1.939   8.614  18.431  0.00  0.00    +0.000 C 
ATOM      3  O   UNL     1       2.071   9.214  17.371  0.00  0.00    +0.000 OA
ATOM      4  H   UNL     1       1.354   8.525  20.403  0.00  0.00    +0.000 HD
ENDROOT
BRANCH   1   7
ATOM      5  C   UNL     1      -1.699  11.365  19.055  0.00  0.00    +0.000 A 
ATOM      6  C   UNL     1      -0.799  10.294  18.867  0.00  0.00    +0.000 A 
ATOM      7  C   UNL     1       0.374  10.173  19.609  0.00  0.00    +0.000 A 
ATOM      8  C   UNL     1       0.697  11.184  20.508  0.00  0.00    +0.000 A 
ATOM      9  C   UNL     1      -0.170  12.271  20.680  0.00  0.00    +0.000 A 
ATOM     10  C   UNL     1      -1.396  12.370  19.985  0.00  0.00    +0.000 A 
BRANCH   5  12
ATOM     11  C   UNL     1      -2.965  10.089  17.458  0.00  0.00    +0.000 C 
ATOM     12  O   UNL     1      -2.857  11.179  18.353  0.00  0.00    +0.000 OA
ENDBRANCH   5  12
BRANCH  10  13
ATOM     13  C   UNL     1      -2.335  13.468  20.446  0.00  0.00    +0.000 C 
BRANCH  13  14
ATOM     14  C   UNL     1      -3.328  12.903  21.458  0.00  0.00    +0.000 C 
BRANCH  14  15
ATOM     15  C   UNL     1      -4.703  12.701  20.883  0.00  0.00    +0.000 C 
ATOM     16  O   UNL     1      -5.633  12.152  21.437  0.00  0.00    +0.000 OA
BRANCH  15  17
ATOM     17  O   UNL     1      -4.795  13.211  19.627  0.00  0.00    +0.000 OA
ATOM     18  H   UNL     1      -4.833  14.188  19.609  0.00  0.00    +0.000 HD
ENDBRANCH  15  17
ENDBRANCH  14  15
ENDBRANCH  13  14
ENDBRANCH  10  13
ENDBRANCH   1   7
BRANCH   2  19
ATOM     19  C   UNL     1       2.678   7.335  18.597  0.00  0.00    +0.000 A 
ATOM     20  C   UNL     1       3.649   6.931  17.677  0.00  0.00    +0.000 A 
ATOM     21  C   UNL     1       4.258   5.689  17.831  0.00  0.00    +0.000 A 
ATOM     22  C   UNL     1       3.878   4.855  18.888  0.00  0.00    +0.000 A 
ATOM     23  C   UNL     1       2.914   5.249  19.833  0.00  0.00    +0.000 A 
ATOM     24  C   UNL     1       2.357   6.522  19.700  0.00  0.00    +0.000 A 
BRANCH  23  25
ATOM     25  N   UNL     1       2.573   4.342  20.851  0.00  0.00    +0.000 N 
ATOM     26  C   UNL     1       1.559   3.451  20.965  0.00  0.00    +0.000 C 
ATOM     27  N   UNL     1       0.484   3.298  20.282  0.00  0.00    +0.000 NA
ATOM     28  N   UNL     1       1.722   2.632  22.032  0.00  0.00    +0.000 N 
ATOM     29  H   UNL     1       3.142   4.416  21.683  0.00  0.00    +0.000 HD
ATOM     30  H   UNL     1       0.433   4.005  19.550  0.00  0.00    +0.000 HD
ATOM     31  H   UNL     1       2.586   2.103  21.998  0.00  0.00    +0.000 HD
ATOM     32  H   UNL     1       0.939   1.984  22.050  0.00  0.00    +0.000 HD
ENDBRANCH  23  25
ENDBRANCH   2  19
TORSDOF 8
ENDMDL
MODEL 9
REMARK VINA RESULT:      -7.9      3.562      9.471
REMARK  Name = 
REMARK  9 active torsions:
REMARK  status: ('A' for Active; 'I' for Inactive)
REMARK    1  A    between atoms: C_1  and  O_2
REMARK    2  A    between atoms: O_2  and  C_3
REMARK    3  A    between atoms: C_5  and  N_6
REMARK    4  A    between atoms: C_7  and  C_9
REMARK    5  A    between atoms: C_13  and  N_14
REMARK    6  A    between atoms: C_21  and  C_22
REMARK    7  A    between atoms: C_22  and  C_23
REMARK    8  A    between atoms: C_23  and  C_24
REMARK    9  A    between atoms: C_24  and  O_26
REMARK                            x       y       z     vdW  Elec       q    Type
REMARK                         _______ _______ _______ _____ _____    ______ ____
ROOT
ATOM      1  N   UNL     1       0.968   9.257  19.555  0.00  0.00    +0.000 N 
ATOM      2  C   UNL     1       1.783   8.958  18.473  0.00  0.00    +0.000 C 
ATOM      3  O   UNL     1       1.973   9.654  17.484  0.00  0.00    +0.000 OA
ATOM      4  H   UNL     1       1.052   8.673  20.377  0.00  0.00    +0.000 HD
ENDROOT
BRANCH   1   7
ATOM      5  C   UNL     1      -2.035  11.486  19.108  0.00  0.00    +0.000 A 
ATOM      6  C   UNL     1      -1.090  10.461  18.894  0.00  0.00    +0.000 A 
ATOM      7  C   UNL     1       0.073  10.354  19.654  0.00  0.00    +0.000 A 
ATOM      8  C   UNL     1       0.339  11.337  20.602  0.00  0.00    +0.000 A 
ATOM      9  C   UNL     1      -0.574  12.381  20.802  0.00  0.00    +0.000 A 
ATOM     10  C   UNL     1      -1.790  12.461  20.087  0.00  0.00    +0.000 A 
BRANCH   5  12
ATOM     11  C   UNL     1      -3.276  10.145  17.546  0.00  0.00    +0.000 C 
ATOM     12  O   UNL     1      -3.171  11.286  18.376  0.00  0.00    +0.000 OA
ENDBRANCH   5  12
BRANCH  10  13
ATOM     13  C   UNL     1      -2.780  13.501  20.574  0.00  0.00    +0.000 C 
BRANCH  13  14
ATOM     14  C   UNL     1      -2.817  13.500  22.101  0.00  0.00    +0.000 C 
BRANCH  14  15
ATOM     15  C   UNL     1      -3.844  12.557  22.664  0.00  0.00    +0.000 C 
ATOM     16  O   UNL     1      -4.960  12.374  22.225  0.00  0.00    +0.000 OA
BRANCH  15  17
ATOM     17  O   UNL     1      -3.373  11.911  23.764  0.00  0.00    +0.000 OA
ATOM     18  H   UNL     1      -3.248  12.501  24.534  0.00  0.00    +0.000 HD
ENDBRANCH  15  17
ENDBRANCH  14  15
ENDBRANCH  13  14
ENDBRANCH  10  13
ENDBRANCH   1   7
BRANCH   2  19
ATOM     19  C   UNL     1       2.555   7.693  18.586  0.00  0.00    +0.000 A 
ATOM     20  C   UNL     1       3.457   7.300  17.593  0.00  0.00    +0.000 A 
ATOM     21  C   UNL     1       4.099   6.070  17.703  0.00  0.00    +0.000 A 
ATOM     22  C   UNL     1       3.819   5.235  18.791  0.00  0.00    +0.000 A 
ATOM     23  C   UNL     1       2.927   5.619  19.809  0.00  0.00    +0.000 A 
ATOM     24  C   UNL     1       2.338   6.881  19.715  0.00  0.00    +0.000 A 
BRANCH  23  25
ATOM     25  N   UNL     1       2.685   4.712  20.855  0.00  0.00    +0.000 N 
ATOM     26  C   UNL     1       1.741   3.755  21.021  0.00  0.00    +0.000 C 
ATOM     27  N   UNL     1       0.657   3.512  20.377  0.00  0.00    +0.000 NA
ATOM     28  N   UNL     1       1.997   2.972  22.097  0.00  0.00    +0.000 N 
ATOM     29  H   UNL     1       3.273   4.844  21.665  0.00  0.00    +0.000 HD
ATOM     30  H   UNL     1       0.533   4.198  19.635  0.00  0.00    +0.000 HD
ATOM     31  H   UNL     1       2.894   2.504  22.043  0.00  0.00    +0.000 HD
ATOM     32  H   UNL     1       1.262   2.271  22.154  0.00  0.00    +0.000 HD
ENDBRANCH  23  25
ENDBRANCH   2  19
TORSDOF 8
ENDMDL
