MODEL 1
REMARK VINA RESULT:      -6.9      0.000      0.000
REMARK  Name = 
REMARK  8 active torsions:
REMARK  status: ('A' for Active; 'I' for Inactive)
REMARK    1  A    between atoms: C_1  and  O_2
REMARK    2  A    between atoms: O_2  and  C_3
REMARK    3  A    between atoms: C_3  and  C_4
REMARK    4  A    between atoms: C_4  and  C_5
REMARK    5  A    between atoms: C_5  and  C_6
REMARK    6  A    between atoms: C_6  and  N_7
REMARK    7  A    between atoms: N_10  and  C_11
REMARK    8  A    between atoms: C_14  and  N_15
REMARK                            x       y       z     vdW  Elec       q    Type
REMARK                         _______ _______ _______ _____ _____    ______ ____
ROOT
ATOM      1  N   UNL     1       2.623   6.557  19.898  0.00  0.00    +0.000 N 
ATOM      2  C   UNL     1       1.930   7.751  20.045  0.00  0.00    +0.000 C 
ATOM      3  O   UNL     1       1.871   8.562  19.122  0.00  0.00    +0.000 OA
ATOM      4  N   UNL     1       1.381   7.919  21.293  0.00  0.00    +0.000 N 
ATOM      5  H   UNL     1       2.185   5.764  20.340  0.00  0.00    +0.000 HD
ATOM      6  H   UNL     1       1.800   7.385  22.038  0.00  0.00    +0.000 HD
ENDROOT
BRANCH   4   7
ATOM      7  C   UNL     1       0.536   9.002  21.642  0.00  0.00    +0.000 A 
ATOM      8  C   UNL     1       0.079   9.204  22.953  0.00  0.00    +0.000 A 
ATOM      9  C   UNL     1      -0.745  10.279  23.280  0.00  0.00    +0.000 A 
ATOM     10  C   UNL     1      -1.131  11.182  22.288  0.00  0.00    +0.000 A 
ATOM     11  C   UNL     1      -0.692  10.994  20.972  0.00  0.00    +0.000 A 
ATOM     12  C   UNL     1       0.153   9.918  20.654  0.00  0.00    +0.000 A 
BRANCH  10  13
ATOM     13  N   UNL     1      -1.963  12.277  22.633  0.00  0.00    +0.000 N 
ATOM     14  N   UNL     1      -3.227  12.106  23.115  0.00  0.00    +0.000 NA
ATOM     15  C   UNL     1      -3.642  13.363  23.277  0.00  0.00    +0.000 A 
ATOM     16  C   UNL     1      -2.636  14.247  22.889  0.00  0.00    +0.000 A 
ATOM     17  N   UNL     1      -1.553  13.568  22.502  0.00  0.00    +0.000 NA
ENDBRANCH  10  13
ENDBRANCH   4   7
BRANCH   1  18
ATOM     18  C   UNL     1       3.195   6.389  18.579  0.00  0.00    +0.000 C 
BRANCH  18  19
ATOM     19  C   UNL     1       3.308   4.946  18.083  0.00  0.00    +0.000 C 
ATOM     20  C   UNL     1       4.159   3.965  18.948  0.00  0.00    +0.000 C 
ATOM     21  C   UNL     1       5.310   4.127  17.941  0.00  0.00    +0.000 C 
ATOM     22  C   UNL     1       4.292   4.646  16.913  0.00  0.00    +0.000 C 
BRANCH  19  23
ATOM     23  C   UNL     1       1.881   4.384  17.830  0.00  0.00    +0.000 C 
BRANCH  23  24
ATOM     24  C   UNL     1       1.505   3.303  18.846  0.00  0.00    +0.000 C 
BRANCH  24  26
ATOM     25  C   UNL     1       1.303   3.155  21.173  0.00  0.00    +0.000 C 
ATOM     26  O   UNL     1       0.946   3.902  20.012  0.00  0.00    +0.000 OA
ENDBRANCH  24  26
ENDBRANCH  23  24
ENDBRANCH  19  23
ENDBRANCH  18  19
ENDBRANCH   1  18
TORSDOF 7
ENDMDL
MODEL 2
REMARK VINA RESULT:      -6.8      1.373      2.615
REMARK  Name = 
REMARK  8 active torsions:
REMARK  status: ('A' for Active; 'I' for Inactive)
REMARK    1  A    between atoms: C_1  and  O_2
REMARK    2  A    between atoms: O_2  and  C_3
REMARK    3  A    between atoms: C_3  and  C_4
REMARK    4  A    between atoms: C_4  and  C_5
REMARK    5  A    between atoms: C_5  and  C_6
REMARK    6  A    between atoms: C_6  and  N_7
REMARK    7  A    between atoms: N_10  and  C_11
REMARK    8  A    between atoms: C_14  and  N_15
REMARK                            x       y       z     vdW  Elec       q    Type
REMARK                         _______ _______ _______ _____ _____    ______ ____
ROOT
ATOM      1  N   UNL     1       2.575   6.799  20.025  0.00  0.00    +0.000 N 
ATOM      2  C   UNL     1       1.826   7.962  20.153  0.00  0.00    +0.000 C 
ATOM      3  O   UNL     1       1.442   8.576  19.159  0.00  0.00    +0.000 OA
ATOM      4  N   UNL     1       1.613   8.338  21.457  0.00  0.00    +0.000 N 
ATOM      5  H   UNL     1       2.353   6.085  20.700  0.00  0.00    +0.000 HD
ATOM      6  H   UNL     1       2.268   7.980  22.134  0.00  0.00    +0.000 HD
ENDROOT
BRANCH   4   7
ATOM      7  C   UNL     1       0.785   9.423  21.838  0.00  0.00    +0.000 A 
ATOM      8  C   UNL     1       0.889  10.690  21.245  0.00  0.00    +0.000 A 
ATOM      9  C   UNL     1       0.061  11.744  21.627  0.00  0.00    +0.000 A 
ATOM     10  C   UNL     1      -0.898  11.545  22.621  0.00  0.00    +0.000 A 
ATOM     11  C   UNL     1      -1.014  10.289  23.231  0.00  0.00    +0.000 A 
ATOM     12  C   UNL     1      -0.186   9.228  22.828  0.00  0.00    +0.000 A 
BRANCH  10  13
ATOM     13  N   UNL     1      -1.741  12.621  22.997  0.00  0.00    +0.000 N 
ATOM     14  N   UNL     1      -3.099  12.548  22.900  0.00  0.00    +0.000 NA
ATOM     15  C   UNL     1      -3.479  13.754  23.325  0.00  0.00    +0.000 A 
ATOM     16  C   UNL     1      -2.358  14.514  23.656  0.00  0.00    +0.000 A 
ATOM     17  N   UNL     1      -1.248  13.795  23.477  0.00  0.00    +0.000 NA
ENDBRANCH  10  13
ENDBRANCH   4   7
BRANCH   1  18
ATOM     18  C   UNL     1       2.791   6.410  18.646  0.00  0.00    +0.000 C 
BRANCH  18  19
ATOM     19  C   UNL     1       2.940   4.908  18.397  0.00  0.00    +0.000 C 
ATOM     20  C   UNL     1       1.784   4.201  17.622  0.00  0.00    +0.000 C 
ATOM     21  C   UNL     1       1.257   3.664  18.964  0.00  0.00    +0.000 C 
ATOM     22  C   UNL     1       2.641   3.935  19.576  0.00  0.00    +0.000 C 
BRANCH  19  23
ATOM     23  C   UNL     1       4.316   4.639  17.727  0.00  0.00    +0.000 C 
BRANCH  23  24
ATOM     24  C   UNL     1       5.413   4.381  18.763  0.00  0.00    +0.000 C 
BRANCH  24  26
ATOM     25  C   UNL     1       6.380   6.176  17.613  0.00  0.00    +0.000 C 
ATOM     26  O   UNL     1       6.256   5.524  18.876  0.00  0.00    +0.000 OA
ENDBRANCH  24  26
ENDBRANCH  23  24
ENDBRANCH  19  23
ENDBRANCH  18  19
ENDBRANCH   1  18
TORSDOF 7
ENDMDL
MODEL 3
REMARK VINA RESULT:      -6.8      1.535      2.891
REMARK  Name = 
REMARK  8 active torsions:
REMARK  status: ('A' for Active; 'I' for Inactive)
REMARK    1  A    between atoms: C_1  and  O_2
REMARK    2  A    between atoms: O_2  and  C_3
REMARK    3  A    between atoms: C_3  and  C_4
REMARK    4  A    between atoms: C_4  and  C_5
REMARK    5  A    between atoms: C_5  and  C_6
REMARK    6  A    between atoms: C_6  and  N_7
REMARK    7  A    between atoms: N_10  and  C_11
REMARK    8  A    between atoms: C_14  and  N_15
REMARK                            x       y       z     vdW  Elec       q    Type
REMARK                         _______ _______ _______ _____ _____    ______ ____
ROOT
ATOM      1  N   UNL     1       3.169   5.582  20.140  0.00  0.00    +0.000 N 
ATOM      2  C   UNL     1       2.056   6.350  20.458  0.00  0.00    +0.000 C 
ATOM      3  O   UNL     1       0.999   5.818  20.793  0.00  0.00    +0.000 OA
ATOM      4  N   UNL     1       2.262   7.701  20.322  0.00  0.00    +0.000 N 
ATOM      5  H   UNL     1       4.045   5.968  20.456  0.00  0.00    +0.000 HD
ATOM      6  H   UNL     1       3.012   7.976  19.707  0.00  0.00    +0.000 HD
ENDROOT
BRANCH   4   7
ATOM      7  C   UNL     1       1.313   8.684  20.697  0.00  0.00    +0.000 A 
ATOM      8  C   UNL     1       0.616   9.453  19.752  0.00  0.00    +0.000 A 
ATOM      9  C   UNL     1      -0.320  10.410  20.138  0.00  0.00    +0.000 A 
ATOM     10  C   UNL     1      -0.578  10.618  21.494  0.00  0.00    +0.000 A 
ATOM     11  C   UNL     1       0.112   9.866  22.454  0.00  0.00    +0.000 A 
ATOM     12  C   UNL     1       1.041   8.891  22.056  0.00  0.00    +0.000 A 
BRANCH  10  13
ATOM     13  N   UNL     1      -1.538  11.588  21.877  0.00  0.00    +0.000 N 
ATOM     14  N   UNL     1      -1.781  11.895  23.183  0.00  0.00    +0.000 NA
ATOM     15  C   UNL     1      -2.744  12.812  23.085  0.00  0.00    +0.000 A 
ATOM     16  C   UNL     1      -3.057  13.028  21.743  0.00  0.00    +0.000 A 
ATOM     17  N   UNL     1      -2.278  12.275  20.964  0.00  0.00    +0.000 NA
ENDBRANCH  10  13
ENDBRANCH   4   7
BRANCH   1  18
ATOM     18  C   UNL     1       2.941   4.160  20.290  0.00  0.00    +0.000 C 
BRANCH  18  19
ATOM     19  C   UNL     1       2.787   3.372  18.987  0.00  0.00    +0.000 C 
ATOM     20  C   UNL     1       1.589   3.757  18.065  0.00  0.00    +0.000 C 
ATOM     21  C   UNL     1       0.829   2.529  18.595  0.00  0.00    +0.000 C 
ATOM     22  C   UNL     1       2.171   1.943  19.062  0.00  0.00    +0.000 C 
BRANCH  19  23
ATOM     23  C   UNL     1       4.133   3.409  18.210  0.00  0.00    +0.000 C 
BRANCH  23  24
ATOM     24  C   UNL     1       4.157   4.526  17.164  0.00  0.00    +0.000 C 
BRANCH  24  26
ATOM     25  C   UNL     1       4.449   6.840  16.967  0.00  0.00    +0.000 C 
ATOM     26  O   UNL     1       4.833   5.668  17.684  0.00  0.00    +0.000 OA
ENDBRANCH  24  26
ENDBRANCH  23  24
ENDBRANCH  19  23
ENDBRANCH  18  19
ENDBRANCH   1  18
TORSDOF 7
ENDMDL
MODEL 4
REMARK VINA RESULT:      -6.8      0.524      1.115
REMARK  Name = 
REMARK  8 active torsions:
REMARK  status: ('A' for Active; 'I' for Inactive)
REMARK    1  A    between atoms: C_1  and  O_2
REMARK    2  A    between atoms: O_2  and  C_3
REMARK    3  A    between atoms: C_3  and  C_4
REMARK    4  A    between atoms: C_4  and  C_5
REMARK    5  A    between atoms: C_5  and  C_6
REMARK    6  A    between atoms: C_6  and  N_7
REMARK    7  A    between atoms: N_10  and  C_11
REMARK    8  A    between atoms: C_14  and  N_15
REMARK                            x       y       z     vdW  Elec       q    Type
REMARK                         _______ _______ _______ _____ _____    ______ ____
ROOT
ATOM      1  N   UNL     1       2.673   6.300  19.926  0.00  0.00    +0.000 N 
ATOM      2  C   UNL     1       2.069   7.547  20.016  0.00  0.00    +0.000 C 
ATOM      3  O   UNL     1       2.195   8.374  19.114  0.00  0.00    +0.000 OA
ATOM      4  N   UNL     1       1.385   7.744  21.191  0.00  0.00    +0.000 N 
ATOM      5  H   UNL     1       2.118   5.542  20.290  0.00  0.00    +0.000 HD
ATOM      6  H   UNL     1       1.662   7.165  21.968  0.00  0.00    +0.000 HD
ENDROOT
BRANCH   4   7
ATOM      7  C   UNL     1       0.597   8.891  21.461  0.00  0.00    +0.000 A 
ATOM      8  C   UNL     1       0.161   9.757  20.447  0.00  0.00    +0.000 A 
ATOM      9  C   UNL     1      -0.620  10.876  20.729  0.00  0.00    +0.000 A 
ATOM     10  C   UNL     1      -0.982  11.151  22.048  0.00  0.00    +0.000 A 
ATOM     11  C   UNL     1      -0.552  10.303  23.077  0.00  0.00    +0.000 A 
ATOM     12  C   UNL     1       0.221   9.168  22.781  0.00  0.00    +0.000 A 
BRANCH  10  13
ATOM     13  N   UNL     1      -1.783  12.288  22.325  0.00  0.00    +0.000 N 
ATOM     14  N   UNL     1      -2.967  12.515  21.688  0.00  0.00    +0.000 NA
ATOM     15  C   UNL     1      -3.360  13.672  22.223  0.00  0.00    +0.000 A 
ATOM     16  C   UNL     1      -2.414  14.110  23.149  0.00  0.00    +0.000 A 
ATOM     17  N   UNL     1      -1.420  13.225  23.243  0.00  0.00    +0.000 NA
ENDBRANCH  10  13
ENDBRANCH   4   7
BRANCH   1  18
ATOM     18  C   UNL     1       3.389   6.103  18.683  0.00  0.00    +0.000 C 
BRANCH  18  19
ATOM     19  C   UNL     1       3.207   4.735  18.022  0.00  0.00    +0.000 C 
ATOM     20  C   UNL     1       4.018   3.545  18.623  0.00  0.00    +0.000 C 
ATOM     21  C   UNL     1       5.019   3.683  17.464  0.00  0.00    +0.000 C 
ATOM     22  C   UNL     1       3.951   4.463  16.680  0.00  0.00    +0.000 C 
BRANCH  19  23
ATOM     23  C   UNL     1       1.690   4.405  17.949  0.00  0.00    +0.000 C 
BRANCH  23  24
ATOM     24  C   UNL     1       1.313   3.247  18.875  0.00  0.00    +0.000 C 
BRANCH  24  26
ATOM     25  C   UNL     1       1.329   2.990  21.201  0.00  0.00    +0.000 C 
ATOM     26  O   UNL     1       0.815   3.752  20.110  0.00  0.00    +0.000 OA
ENDBRANCH  24  26
ENDBRANCH  23  24
ENDBRANCH  19  23
ENDBRANCH  18  19
ENDBRANCH   1  18
TORSDOF 7
ENDMDL
MODEL 5
REMARK VINA RESULT:      -6.8      1.466      2.543
REMARK  Name = 
REMARK  8 active torsions:
REMARK  status: ('A' for Active; 'I' for Inactive)
REMARK    1  A    between atoms: C_1  and  O_2
REMARK    2  A    between atoms: O_2  and  C_3
REMARK    3  A    between atoms: C_3  and  C_4
REMARK    4  A    between atoms: C_4  and  C_5
REMARK    5  A    between atoms: C_5  and  C_6
REMARK    6  A    between atoms: C_6  and  N_7
REMARK    7  A    between atoms: N_10  and  C_11
REMARK    8  A    between atoms: C_14  and  N_15
REMARK                            x       y       z     vdW  Elec       q    Type
REMARK                         _______ _______ _______ _____ _____    ______ ____
ROOT
ATOM      1  N   UNL     1       2.583   6.620  20.024  0.00  0.00    +0.000 N 
ATOM      2  C   UNL     1       1.898   7.822  20.143  0.00  0.00    +0.000 C 
ATOM      3  O   UNL     1       1.639   8.500  19.149  0.00  0.00    +0.000 OA
ATOM      4  N   UNL     1       1.596   8.158  21.440  0.00  0.00    +0.000 N 
ATOM      5  H   UNL     1       2.260   5.894  20.644  0.00  0.00    +0.000 HD
ATOM      6  H   UNL     1       2.166   7.731  22.153  0.00  0.00    +0.000 HD
ENDROOT
BRANCH   4   7
ATOM      7  C   UNL     1       0.805   9.277  21.800  0.00  0.00    +0.000 A 
ATOM      8  C   UNL     1      -0.120   9.234  22.854  0.00  0.00    +0.000 A 
ATOM      9  C   UNL     1      -0.884  10.347  23.200  0.00  0.00    +0.000 A 
ATOM     10  C   UNL     1      -0.735  11.537  22.486  0.00  0.00    +0.000 A 
ATOM     11  C   UNL     1       0.177  11.599  21.425  0.00  0.00    +0.000 A 
ATOM     12  C   UNL     1       0.956  10.478  21.094  0.00  0.00    +0.000 A 
BRANCH  10  13
ATOM     13  N   UNL     1      -1.511  12.666  22.850  0.00  0.00    +0.000 N 
ATOM     14  N   UNL     1      -2.776  12.861  22.379  0.00  0.00    +0.000 NA
ATOM     15  C   UNL     1      -3.113  14.022  22.942  0.00  0.00    +0.000 A 
ATOM     16  C   UNL     1      -2.057  14.494  23.721  0.00  0.00    +0.000 A 
ATOM     17  N   UNL     1      -1.043  13.627  23.692  0.00  0.00    +0.000 NA
ENDBRANCH  10  13
ENDBRANCH   4   7
BRANCH   1  18
ATOM     18  C   UNL     1       2.893   6.275  18.652  0.00  0.00    +0.000 C 
BRANCH  18  19
ATOM     19  C   UNL     1       2.885   4.780  18.326  0.00  0.00    +0.000 C 
ATOM     20  C   UNL     1       1.585   4.202  17.686  0.00  0.00    +0.000 C 
ATOM     21  C   UNL     1       1.196   3.640  19.065  0.00  0.00    +0.000 C 
ATOM     22  C   UNL     1       2.664   3.775  19.496  0.00  0.00    +0.000 C 
BRANCH  19  23
ATOM     23  C   UNL     1       4.136   4.442  17.468  0.00  0.00    +0.000 C 
BRANCH  23  24
ATOM     24  C   UNL     1       5.420   4.456  18.302  0.00  0.00    +0.000 C 
BRANCH  24  26
ATOM     25  C   UNL     1       7.436   5.606  18.602  0.00  0.00    +0.000 C 
ATOM     26  O   UNL     1       6.396   5.287  17.680  0.00  0.00    +0.000 OA
ENDBRANCH  24  26
ENDBRANCH  23  24
ENDBRANCH  19  23
ENDBRANCH  18  19
ENDBRANCH   1  18
TORSDOF 7
ENDMDL
MODEL 6
REMARK VINA RESULT:      -6.7      1.712      2.722
REMARK  Name = 
REMARK  8 active torsions:
REMARK  status: ('A' for Active; 'I' for Inactive)
REMARK    1  A    between atoms: C_1  and  O_2
REMARK    2  A    between atoms: O_2  and  C_3
REMARK    3  A    between atoms: C_3  and  C_4
REMARK    4  A    between atoms: C_4  and  C_5
REMARK    5  A    between atoms: C_5  and  C_6
REMARK    6  A    between atoms: C_6  and  N_7
REMARK    7  A    between atoms: N_10  and  C_11
REMARK    8  A    between atoms: C_14  and  N_15
REMARK                            x       y       z     vdW  Elec       q    Type
REMARK                         _______ _______ _______ _____ _____    ______ ____
ROOT
ATOM      1  N   UNL     1       3.163   5.857  20.087  0.00  0.00    +0.000 N 
ATOM      2  C   UNL     1       2.019   6.557  20.445  0.00  0.00    +0.000 C 
ATOM      3  O   UNL     1       0.968   5.965  20.689  0.00  0.00    +0.000 OA
ATOM      4  N   UNL     1       2.187   7.921  20.456  0.00  0.00    +0.000 N 
ATOM      5  H   UNL     1       4.017   6.232  20.470  0.00  0.00    +0.000 HD
ATOM      6  H   UNL     1       2.947   8.277  19.897  0.00  0.00    +0.000 HD
ENDROOT
BRANCH   4   7
ATOM      7  C   UNL     1       1.198   8.833  20.898  0.00  0.00    +0.000 A 
ATOM      8  C   UNL     1       0.918   9.036  22.258  0.00  0.00    +0.000 A 
ATOM      9  C   UNL     1      -0.053   9.944  22.675  0.00  0.00    +0.000 A 
ATOM     10  C   UNL     1      -0.771  10.673  21.727  0.00  0.00    +0.000 A 
ATOM     11  C   UNL     1      -0.513  10.480  20.364  0.00  0.00    +0.000 A 
ATOM     12  C   UNL     1       0.480   9.576  19.952  0.00  0.00    +0.000 A 
BRANCH  10  13
ATOM     13  N   UNL     1      -1.752  11.600  22.161  0.00  0.00    +0.000 N 
ATOM     14  N   UNL     1      -2.191  11.642  23.452  0.00  0.00    +0.000 NA
ATOM     15  C   UNL     1      -3.100  12.616  23.411  0.00  0.00    +0.000 A 
ATOM     16  C   UNL     1      -3.191  13.125  22.115  0.00  0.00    +0.000 A 
ATOM     17  N   UNL     1      -2.319  12.505  21.317  0.00  0.00    +0.000 NA
ENDBRANCH  10  13
ENDBRANCH   4   7
BRANCH   1  18
ATOM     18  C   UNL     1       2.974   4.421  20.082  0.00  0.00    +0.000 C 
BRANCH  18  19
ATOM     19  C   UNL     1       2.787   3.782  18.705  0.00  0.00    +0.000 C 
ATOM     20  C   UNL     1       1.325   3.448  18.272  0.00  0.00    +0.000 C 
ATOM     21  C   UNL     1       1.589   1.976  18.634  0.00  0.00    +0.000 C 
ATOM     22  C   UNL     1       3.097   2.263  18.553  0.00  0.00    +0.000 C 
BRANCH  19  23
ATOM     23  C   UNL     1       3.507   4.654  17.639  0.00  0.00    +0.000 C 
BRANCH  23  24
ATOM     24  C   UNL     1       4.595   3.870  16.901  0.00  0.00    +0.000 C 
BRANCH  24  26
ATOM     25  C   UNL     1       6.835   4.503  16.656  0.00  0.00    +0.000 C 
ATOM     26  O   UNL     1       5.492   4.770  16.256  0.00  0.00    +0.000 OA
ENDBRANCH  24  26
ENDBRANCH  23  24
ENDBRANCH  19  23
ENDBRANCH  18  19
ENDBRANCH   1  18
TORSDOF 7
ENDMDL
MODEL 7
REMARK VINA RESULT:      -6.7      1.469      2.801
REMARK  Name = 
REMARK  8 active torsions:
REMARK  status: ('A' for Active; 'I' for Inactive)
REMARK    1  A    between atoms: C_1  and  O_2
REMARK    2  A    between atoms: O_2  and  C_3
REMARK    3  A    between atoms: C_3  and  C_4
REMARK    4  A    between atoms: C_4  and  C_5
REMARK    5  A    between atoms: C_5  and  C_6
REMARK    6  A    between atoms: C_6  and  N_7
REMARK    7  A    between atoms: N_10  and  C_11
REMARK    8  A    between atoms: C_14  and  N_15
REMARK                            x       y       z     vdW  Elec       q    Type
REMARK                         _______ _______ _______ _____ _____    ______ ____
ROOT
ATOM      1  N   UNL     1       2.614   6.523  20.399  0.00  0.00    +0.000 N 
ATOM      2  C   UNL     1       1.934   7.734  20.385  0.00  0.00    +0.000 C 
ATOM      3  O   UNL     1       1.725   8.326  19.326  0.00  0.00    +0.000 OA
ATOM      4  N   UNL     1       1.578   8.180  21.634  0.00  0.00    +0.000 N 
ATOM      5  H   UNL     1       2.259   5.854  21.064  0.00  0.00    +0.000 HD
ATOM      6  H   UNL     1       2.113   7.813  22.405  0.00  0.00    +0.000 HD
ENDROOT
BRANCH   4   7
ATOM      7  C   UNL     1       0.780   9.329  21.862  0.00  0.00    +0.000 A 
ATOM      8  C   UNL     1       0.882  10.482  21.069  0.00  0.00    +0.000 A 
ATOM      9  C   UNL     1       0.084  11.600  21.302  0.00  0.00    +0.000 A 
ATOM     10  C   UNL     1      -0.841  11.585  22.347  0.00  0.00    +0.000 A 
ATOM     11  C   UNL     1      -0.953  10.446  23.156  0.00  0.00    +0.000 A 
ATOM     12  C   UNL     1      -0.157   9.317  22.903  0.00  0.00    +0.000 A 
BRANCH  10  13
ATOM     13  N   UNL     1      -1.653  12.724  22.572  0.00  0.00    +0.000 N 
ATOM     14  N   UNL     1      -1.316  13.691  23.473  0.00  0.00    +0.000 NA
ATOM     15  C   UNL     1      -2.342  14.537  23.379  0.00  0.00    +0.000 A 
ATOM     16  C   UNL     1      -3.262  14.064  22.443  0.00  0.00    +0.000 A 
ATOM     17  N   UNL     1      -2.821  12.925  21.903  0.00  0.00    +0.000 NA
ENDBRANCH  10  13
ENDBRANCH   4   7
BRANCH   1  18
ATOM     18  C   UNL     1       2.982   6.061  19.077  0.00  0.00    +0.000 C 
BRANCH  18  19
ATOM     19  C   UNL     1       3.051   4.543  18.900  0.00  0.00    +0.000 C 
ATOM     20  C   UNL     1       2.526   3.962  17.551  0.00  0.00    +0.000 C 
ATOM     21  C   UNL     1       1.225   3.559  18.267  0.00  0.00    +0.000 C 
ATOM     22  C   UNL     1       1.970   3.672  19.607  0.00  0.00    +0.000 C 
BRANCH  19  23
ATOM     23  C   UNL     1       4.500   4.064  19.196  0.00  0.00    +0.000 C 
BRANCH  23  24
ATOM     24  C   UNL     1       5.536   5.140  18.860  0.00  0.00    +0.000 C 
BRANCH  24  26
ATOM     25  C   UNL     1       7.521   4.674  17.712  0.00  0.00    +0.000 C 
ATOM     26  O   UNL     1       6.115   4.878  17.585  0.00  0.00    +0.000 OA
ENDBRANCH  24  26
ENDBRANCH  23  24
ENDBRANCH  19  23
ENDBRANCH  18  19
ENDBRANCH   1  18
TORSDOF 7
ENDMDL
MODEL 8
REMARK VINA RESULT:      -6.7      0.999      1.159
REMARK  Name = 
REMARK  8 active torsions:
REMARK  status: ('A' for Active; 'I' for Inactive)
REMARK    1  A    between atoms: C_1  and  O_2
REMARK    2  A    between atoms: O_2  and  C_3
REMARK    3  A    between atoms: C_3  and  C_4
REMARK    4  A    between atoms: C_4  and  C_5
REMARK    5  A    between atoms: C_5  and  C_6
REMARK    6  A    between atoms: C_6  and  N_7
REMARK    7  A    between atoms: N_10  and  C_11
REMARK    8  A    between atoms: C_14  and  N_15
REMARK                            x       y       z     vdW  Elec       q    Type
REMARK                         _______ _______ _______ _____ _____    ______ ____
ROOT
ATOM      1  N   UNL     1       2.643   6.595  19.793  0.00  0.00    +0.000 N 
ATOM      2  C   UNL     1       1.939   7.776  19.988  0.00  0.00    +0.000 C 
ATOM      3  O   UNL     1       1.662   8.507  19.037  0.00  0.00    +0.000 OA
ATOM      4  N   UNL     1       1.640   8.029  21.304  0.00  0.00    +0.000 N 
ATOM      5  H   UNL     1       2.337   5.828  20.372  0.00  0.00    +0.000 HD
ATOM      6  H   UNL     1       2.222   7.570  21.987  0.00  0.00    +0.000 HD
ENDROOT
BRANCH   4   7
ATOM      7  C   UNL     1       0.833   9.111  21.734  0.00  0.00    +0.000 A 
ATOM      8  C   UNL     1      -0.043   9.006  22.825  0.00  0.00    +0.000 A 
ATOM      9  C   UNL     1      -0.824  10.083  23.240  0.00  0.00    +0.000 A 
ATOM     10  C   UNL     1      -0.741  11.300  22.560  0.00  0.00    +0.000 A 
ATOM     11  C   UNL     1       0.122  11.424  21.465  0.00  0.00    +0.000 A 
ATOM     12  C   UNL     1       0.919  10.338  21.064  0.00  0.00    +0.000 A 
BRANCH  10  13
ATOM     13  N   UNL     1      -1.534  12.392  22.994  0.00  0.00    +0.000 N 
ATOM     14  N   UNL     1      -2.862  12.261  23.272  0.00  0.00    +0.000 NA
ATOM     15  C   UNL     1      -3.205  13.504  23.612  0.00  0.00    +0.000 A 
ATOM     16  C   UNL     1      -2.094  14.342  23.526  0.00  0.00    +0.000 A 
ATOM     17  N   UNL     1      -1.018  13.641  23.160  0.00  0.00    +0.000 NA
ENDBRANCH  10  13
ENDBRANCH   4   7
BRANCH   1  18
ATOM     18  C   UNL     1       2.950   6.337  18.402  0.00  0.00    +0.000 C 
BRANCH  18  19
ATOM     19  C   UNL     1       4.045   5.300  18.146  0.00  0.00    +0.000 C 
ATOM     20  C   UNL     1       5.388   5.482  18.920  0.00  0.00    +0.000 C 
ATOM     21  C   UNL     1       6.007   6.073  17.642  0.00  0.00    +0.000 C 
ATOM     22  C   UNL     1       4.876   5.419  16.833  0.00  0.00    +0.000 C 
BRANCH  19  23
ATOM     23  C   UNL     1       3.458   3.877  18.361  0.00  0.00    +0.000 C 
BRANCH  23  24
ATOM     24  C   UNL     1       2.428   3.518  17.287  0.00  0.00    +0.000 C 
BRANCH  24  26
ATOM     25  C   UNL     1       1.413   2.190  18.925  0.00  0.00    +0.000 C 
ATOM     26  O   UNL     1       1.193   3.154  17.897  0.00  0.00    +0.000 OA
ENDBRANCH  24  26
ENDBRANCH  23  24
ENDBRANCH  19  23
ENDBRANCH  18  19
ENDBRANCH   1  18
TORSDOF 7
ENDMDL
MODEL 9
REMARK VINA RESULT:      -6.7      1.795      3.061
REMARK  Name = 
REMARK  8 active torsions:
REMARK  status: ('A' for Active; 'I' for Inactive)
REMARK    1  A    between atoms: C_1  and  O_2
REMARK    2  A    between atoms: O_2  and  C_3
REMARK    3  A    between atoms: C_3  and  C_4
REMARK    4  A    between atoms: C_4  and  C_5
REMARK    5  A    between atoms: C_5  and  C_6
REMARK    6  A    between atoms: C_6  and  N_7
REMARK    7  A    between atoms: N_10  and  C_11
REMARK    8  A    between atoms: C_14  and  N_15
REMARK                            x       y       z     vdW  Elec       q    Type
REMARK                         _______ _______ _______ _____ _____    ______ ____
ROOT
ATOM      1  N   UNL     1       2.624   6.711  19.702  0.00  0.00    +0.000 N 
ATOM      2  C   UNL     1       1.934   7.898  19.909  0.00  0.00    +0.000 C 
ATOM      3  O   UNL     1       1.641   8.629  18.964  0.00  0.00    +0.000 OA
ATOM      4  N   UNL     1       1.669   8.158  21.232  0.00  0.00    +0.000 N 
ATOM      5  H   UNL     1       2.326   5.949  20.290  0.00  0.00    +0.000 HD
ATOM      6  H   UNL     1       2.264   7.697  21.902  0.00  0.00    +0.000 HD
ENDROOT
BRANCH   4   7
ATOM      7  C   UNL     1       0.881   9.248  21.678  0.00  0.00    +0.000 A 
ATOM      8  C   UNL     1       0.923  10.507  21.059  0.00  0.00    +0.000 A 
ATOM      9  C   UNL     1       0.135  11.565  21.506  0.00  0.00    +0.000 A 
ATOM     10  C   UNL     1      -0.719  11.381  22.594  0.00  0.00    +0.000 A 
ATOM     11  C   UNL     1      -0.770  10.135  23.231  0.00  0.00    +0.000 A 
ATOM     12  C   UNL     1       0.014   9.068  22.763  0.00  0.00    +0.000 A 
BRANCH  10  13
ATOM     13  N   UNL     1      -1.522  12.462  23.037  0.00  0.00    +0.000 N 
ATOM     14  N   UNL     1      -2.879  12.463  22.903  0.00  0.00    +0.000 NA
ATOM     15  C   UNL     1      -3.215  13.647  23.415  0.00  0.00    +0.000 A 
ATOM     16  C   UNL     1      -2.069  14.324  23.833  0.00  0.00    +0.000 A 
ATOM     17  N   UNL     1      -0.988  13.569  23.623  0.00  0.00    +0.000 NA
ENDBRANCH  10  13
ENDBRANCH   4   7
BRANCH   1  18
ATOM     18  C   UNL     1       2.895   6.446  18.305  0.00  0.00    +0.000 C 
BRANCH  18  19
ATOM     19  C   UNL     1       4.147   5.614  18.018  0.00  0.00    +0.000 C 
ATOM     20  C   UNL     1       3.930   4.118  17.633  0.00  0.00    +0.000 C 
ATOM     21  C   UNL     1       4.313   3.726  19.070  0.00  0.00    +0.000 C 
ATOM     22  C   UNL     1       4.980   5.101  19.231  0.00  0.00    +0.000 C 
BRANCH  19  23
ATOM     23  C   UNL     1       5.014   6.351  16.959  0.00  0.00    +0.000 C 
BRANCH  23  24
ATOM     24  C   UNL     1       6.224   5.517  16.533  0.00  0.00    +0.000 C 
BRANCH  24  26
ATOM     25  C   UNL     1       6.820   4.823  14.379  0.00  0.00    +0.000 C 
ATOM     26  O   UNL     1       6.684   5.942  15.253  0.00  0.00    +0.000 OA
ENDBRANCH  24  26
ENDBRANCH  23  24
ENDBRANCH  19  23
ENDBRANCH  18  19
ENDBRANCH   1  18
TORSDOF 7
ENDMDL
