MODEL 1
REMARK VINA RESULT:      -7.5      0.000      0.000
REMARK  Name = 
REMARK  4 active torsions:
REMARK  status: ('A' for Active; 'I' for Inactive)
REMARK    1  A    between atoms: C_2  and  C_4
REMARK    2  A    between atoms: N_8  and  C_9
REMARK    3  A    between atoms: C_9  and  C_10
REMARK    4  A    between atoms: C_10  and  C_12
REMARK                            x       y       z     vdW  Elec       q    Type
REMARK                         _______ _______ _______ _____ _____    ______ ____
ROOT
ATOM      1  C   UNL     1       6.827   5.480  17.992  0.00  0.00    +0.000 A 
ATOM      2  C   UNL     1       7.175   4.700  16.896  0.00  0.00    +0.000 A 
ATOM      3  C   UNL     1       6.162   4.146  16.118  0.00  0.00    +0.000 A 
ATOM      4  C   UNL     1       4.827   4.414  16.422  0.00  0.00    +0.000 A 
ATOM      5  N   UNL     1       4.505   5.195  17.483  0.00  0.00    +0.000 N 
ATOM      6  C   UNL     1       5.481   5.689  18.281  0.00  0.00    +0.000 A 
ENDROOT
BRANCH   1   8
ATOM      7  N   UNL     1       8.166   5.457  20.019  0.00  0.00    +0.000 N 
ATOM      8  C   UNL     1       7.790   6.117  18.899  0.00  0.00    +0.000 C 
ATOM      9  O   UNL     1       8.249   7.217  18.585  0.00  0.00    +0.000 OA
ATOM     10  H   UNL     1       8.985   5.788  20.518  0.00  0.00    +0.000 HD
ATOM     11  H   UNL     1       8.116   4.432  20.130  0.00  0.00    +0.000 HD
ENDBRANCH   1   8
BRANCH   5  12
ATOM     12  C   UNL     1       3.105   5.630  17.707  0.00  0.00    +0.000 C 
BRANCH  12  13
ATOM     13  C   UNL     1       2.119   4.529  17.988  0.00  0.00    +0.000 C 
ATOM     14  O   UNL     1       1.221   4.248  17.197  0.00  0.00    +0.000 OA
BRANCH  13  15
ATOM     15  C   UNL     1       2.229   3.788  19.287  0.00  0.00    +0.000 A 
ATOM     16  C   UNL     1       3.377   3.056  19.643  0.00  0.00    +0.000 A 
ATOM     17  C   UNL     1       3.424   2.381  20.868  0.00  0.00    +0.000 A 
ATOM     18  C   UNL     1       2.341   2.433  21.741  0.00  0.00    +0.000 A 
ATOM     19  C   UNL     1       1.205   3.161  21.395  0.00  0.00    +0.000 A 
ATOM     20  C   UNL     1       1.148   3.834  20.175  0.00  0.00    +0.000 A 
ENDBRANCH  13  15
ENDBRANCH  12  13
ENDBRANCH   5  12
TORSDOF 4
ENDMDL
MODEL 2
REMARK VINA RESULT:      -7.5      0.042      1.139
REMARK  Name = 
REMARK  4 active torsions:
REMARK  status: ('A' for Active; 'I' for Inactive)
REMARK    1  A    between atoms: C_2  and  C_4
REMARK    2  A    between atoms: N_8  and  C_9
REMARK    3  A    between atoms: C_9  and  C_10
REMARK    4  A    between atoms: C_10  and  C_12
REMARK                            x       y       z     vdW  Elec       q    Type
REMARK                         _______ _______ _______ _____ _____    ______ ____
ROOT
ATOM      1  C   UNL     1       6.842   5.458  17.993  0.00  0.00    +0.000 A 
ATOM      2  C   UNL     1       7.191   4.682  16.893  0.00  0.00    +0.000 A 
ATOM      3  C   UNL     1       6.177   4.130  16.113  0.00  0.00    +0.000 A 
ATOM      4  C   UNL     1       4.843   4.394  16.421  0.00  0.00    +0.000 A 
ATOM      5  N   UNL     1       4.521   5.169  17.485  0.00  0.00    +0.000 N 
ATOM      6  C   UNL     1       5.496   5.662  18.284  0.00  0.00    +0.000 A 
ENDROOT
BRANCH   1   8
ATOM      7  N   UNL     1       8.189   5.426  20.014  0.00  0.00    +0.000 N 
ATOM      8  C   UNL     1       7.805   6.093  18.901  0.00  0.00    +0.000 C 
ATOM      9  O   UNL     1       8.257   7.197  18.593  0.00  0.00    +0.000 OA
ATOM     10  H   UNL     1       9.008   5.757  20.512  0.00  0.00    +0.000 HD
ATOM     11  H   UNL     1       8.145   4.399  20.117  0.00  0.00    +0.000 HD
ENDBRANCH   1   8
BRANCH   5  12
ATOM     12  C   UNL     1       3.120   5.600  17.713  0.00  0.00    +0.000 C 
BRANCH  12  13
ATOM     13  C   UNL     1       2.132   4.495  17.969  0.00  0.00    +0.000 C 
ATOM     14  O   UNL     1       1.282   4.182  17.137  0.00  0.00    +0.000 OA
BRANCH  13  15
ATOM     15  C   UNL     1       2.179   3.789  19.291  0.00  0.00    +0.000 A 
ATOM     16  C   UNL     1       1.110   3.826  20.204  0.00  0.00    +0.000 A 
ATOM     17  C   UNL     1       1.209   3.149  21.425  0.00  0.00    +0.000 A 
ATOM     18  C   UNL     1       2.361   2.433  21.740  0.00  0.00    +0.000 A 
ATOM     19  C   UNL     1       3.420   2.390  20.837  0.00  0.00    +0.000 A 
ATOM     20  C   UNL     1       3.331   3.064  19.619  0.00  0.00    +0.000 A 
ENDBRANCH  13  15
ENDBRANCH  12  13
ENDBRANCH   5  12
TORSDOF 4
ENDMDL
MODEL 3
REMARK VINA RESULT:      -7.5      2.180      2.926
REMARK  Name = 
REMARK  4 active torsions:
REMARK  status: ('A' for Active; 'I' for Inactive)
REMARK    1  A    between atoms: C_2  and  C_4
REMARK    2  A    between atoms: N_8  and  C_9
REMARK    3  A    between atoms: C_9  and  C_10
REMARK    4  A    between atoms: C_10  and  C_12
REMARK                            x       y       z     vdW  Elec       q    Type
REMARK                         _______ _______ _______ _____ _____    ______ ____
ROOT
ATOM      1  C   UNL     1       6.459   5.025  16.317  0.00  0.00    +0.000 A 
ATOM      2  C   UNL     1       7.093   4.609  17.482  0.00  0.00    +0.000 A 
ATOM      3  C   UNL     1       6.557   4.990  18.710  0.00  0.00    +0.000 A 
ATOM      4  C   UNL     1       5.381   5.739  18.753  0.00  0.00    +0.000 A 
ATOM      5  N   UNL     1       4.764   6.118  17.606  0.00  0.00    +0.000 N 
ATOM      6  C   UNL     1       5.309   5.805  16.407  0.00  0.00    +0.000 A 
ENDROOT
BRANCH   1   8
ATOM      7  N   UNL     1       6.354   3.658  14.312  0.00  0.00    +0.000 N 
ATOM      8  C   UNL     1       6.918   4.703  14.961  0.00  0.00    +0.000 C 
ATOM      9  O   UNL     1       7.776   5.424  14.448  0.00  0.00    +0.000 OA
ATOM     10  H   UNL     1       6.505   3.577  13.313  0.00  0.00    +0.000 HD
ATOM     11  H   UNL     1       5.417   3.282  14.527  0.00  0.00    +0.000 HD
ENDBRANCH   1   8
BRANCH   5  12
ATOM     12  C   UNL     1       3.426   6.758  17.642  0.00  0.00    +0.000 C 
BRANCH  12  13
ATOM     13  C   UNL     1       2.633   6.539  18.901  0.00  0.00    +0.000 C 
ATOM     14  O   UNL     1       2.493   7.427  19.739  0.00  0.00    +0.000 OA
BRANCH  13  15
ATOM     15  C   UNL     1       2.033   5.185  19.140  0.00  0.00    +0.000 A 
ATOM     16  C   UNL     1       1.761   4.286  18.093  0.00  0.00    +0.000 A 
ATOM     17  C   UNL     1       1.199   3.035  18.375  0.00  0.00    +0.000 A 
ATOM     18  C   UNL     1       0.911   2.673  19.688  0.00  0.00    +0.000 A 
ATOM     19  C   UNL     1       1.184   3.559  20.728  0.00  0.00    +0.000 A 
ATOM     20  C   UNL     1       1.741   4.809  20.456  0.00  0.00    +0.000 A 
ENDBRANCH  13  15
ENDBRANCH  12  13
ENDBRANCH   5  12
TORSDOF 4
ENDMDL
MODEL 4
REMARK VINA RESULT:      -7.4      1.524      2.498
REMARK  Name = 
REMARK  4 active torsions:
REMARK  status: ('A' for Active; 'I' for Inactive)
REMARK    1  A    between atoms: C_2  and  C_4
REMARK    2  A    between atoms: N_8  and  C_9
REMARK    3  A    between atoms: C_9  and  C_10
REMARK    4  A    between atoms: C_10  and  C_12
REMARK                            x       y       z     vdW  Elec       q    Type
REMARK                         _______ _______ _______ _____ _____    ______ ____
ROOT
ATOM      1  C   UNL     1       6.933   5.471  17.800  0.00  0.00    +0.000 A 
ATOM      2  C   UNL     1       7.031   5.702  16.433  0.00  0.00    +0.000 A 
ATOM      3  C   UNL     1       6.160   5.033  15.576  0.00  0.00    +0.000 A 
ATOM      4  C   UNL     1       5.187   4.182  16.100  0.00  0.00    +0.000 A 
ATOM      5  N   UNL     1       5.093   3.984  17.438  0.00  0.00    +0.000 N 
ATOM      6  C   UNL     1       5.972   4.583  18.276  0.00  0.00    +0.000 A 
ENDROOT
BRANCH   1   8
ATOM      7  N   UNL     1       8.084   5.411  19.939  0.00  0.00    +0.000 N 
ATOM      8  C   UNL     1       7.789   6.101  18.813  0.00  0.00    +0.000 C 
ATOM      9  O   UNL     1       8.238   7.224  18.581  0.00  0.00    +0.000 OA
ATOM     10  H   UNL     1       8.842   5.747  20.522  0.00  0.00    +0.000 HD
ATOM     11  H   UNL     1       8.057   4.381  20.010  0.00  0.00    +0.000 HD
ENDBRANCH   1   8
BRANCH   5  12
ATOM     12  C   UNL     1       3.954   3.227  18.014  0.00  0.00    +0.000 C 
BRANCH  12  13
ATOM     13  C   UNL     1       2.609   3.891  17.906  0.00  0.00    +0.000 C 
ATOM     14  O   UNL     1       1.722   3.440  17.184  0.00  0.00    +0.000 OA
BRANCH  13  15
ATOM     15  C   UNL     1       2.373   5.154  18.679  0.00  0.00    +0.000 A 
ATOM     16  C   UNL     1       1.939   5.148  20.017  0.00  0.00    +0.000 A 
ATOM     17  C   UNL     1       1.733   6.358  20.690  0.00  0.00    +0.000 A 
ATOM     18  C   UNL     1       1.960   7.570  20.044  0.00  0.00    +0.000 A 
ATOM     19  C   UNL     1       2.394   7.580  18.720  0.00  0.00    +0.000 A 
ATOM     20  C   UNL     1       2.599   6.379  18.041  0.00  0.00    +0.000 A 
ENDBRANCH  13  15
ENDBRANCH  12  13
ENDBRANCH   5  12
TORSDOF 4
ENDMDL
MODEL 5
REMARK VINA RESULT:      -7.4      2.185      3.019
REMARK  Name = 
REMARK  4 active torsions:
REMARK  status: ('A' for Active; 'I' for Inactive)
REMARK    1  A    between atoms: C_2  and  C_4
REMARK    2  A    between atoms: N_8  and  C_9
REMARK    3  A    between atoms: C_9  and  C_10
REMARK    4  A    between atoms: C_10  and  C_12
REMARK                            x       y       z     vdW  Elec       q    Type
REMARK                         _______ _______ _______ _____ _____    ______ ____
ROOT
ATOM      1  C   UNL     1       6.470   5.053  16.280  0.00  0.00    +0.000 A 
ATOM      2  C   UNL     1       7.139   4.675  17.438  0.00  0.00    +0.000 A 
ATOM      3  C   UNL     1       6.622   5.068  18.670  0.00  0.00    +0.000 A 
ATOM      4  C   UNL     1       5.432   5.794  18.724  0.00  0.00    +0.000 A 
ATOM      5  N   UNL     1       4.781   6.137  17.585  0.00  0.00    +0.000 N 
ATOM      6  C   UNL     1       5.306   5.811  16.380  0.00  0.00    +0.000 A 
ENDROOT
BRANCH   1   8
ATOM      7  N   UNL     1       6.329   3.661  14.294  0.00  0.00    +0.000 N 
ATOM      8  C   UNL     1       6.905   4.714  14.919  0.00  0.00    +0.000 C 
ATOM      9  O   UNL     1       7.754   5.427  14.383  0.00  0.00    +0.000 OA
ATOM     10  H   UNL     1       6.462   3.567  13.293  0.00  0.00    +0.000 HD
ATOM     11  H   UNL     1       5.395   3.289  14.529  0.00  0.00    +0.000 HD
ENDBRANCH   1   8
BRANCH   5  12
ATOM     12  C   UNL     1       3.431   6.748  17.639  0.00  0.00    +0.000 C 
BRANCH  12  13
ATOM     13  C   UNL     1       2.667   6.529  18.916  0.00  0.00    +0.000 C 
ATOM     14  O   UNL     1       2.556   7.413  19.762  0.00  0.00    +0.000 OA
BRANCH  13  15
ATOM     15  C   UNL     1       2.061   5.180  19.161  0.00  0.00    +0.000 A 
ATOM     16  C   UNL     1       1.700   4.737  20.447  0.00  0.00    +0.000 A 
ATOM     17  C   UNL     1       1.139   3.467  20.618  0.00  0.00    +0.000 A 
ATOM     18  C   UNL     1       0.932   2.636  19.519  0.00  0.00    +0.000 A 
ATOM     19  C   UNL     1       1.283   3.072  18.244  0.00  0.00    +0.000 A 
ATOM     20  C   UNL     1       1.846   4.336  18.065  0.00  0.00    +0.000 A 
ENDBRANCH  13  15
ENDBRANCH  12  13
ENDBRANCH   5  12
TORSDOF 4
ENDMDL
MODEL 6
REMARK VINA RESULT:      -7.3      2.135      3.455
REMARK  Name = 
REMARK  4 active torsions:
REMARK  status: ('A' for Active; 'I' for Inactive)
REMARK    1  A    between atoms: C_2  and  C_4
REMARK    2  A    between atoms: N_8  and  C_9
REMARK    3  A    between atoms: C_9  and  C_10
REMARK    4  A    between atoms: C_10  and  C_12
REMARK                            x       y       z     vdW  Elec       q    Type
REMARK                         _______ _______ _______ _____ _____    ______ ____
ROOT
ATOM      1  C   UNL     1       6.534   4.584  16.196  0.00  0.00    +0.000 A 
ATOM      2  C   UNL     1       7.337   5.094  17.209  0.00  0.00    +0.000 A 
ATOM      3  C   UNL     1       6.867   5.060  18.520  0.00  0.00    +0.000 A 
ATOM      4  C   UNL     1       5.628   4.483  18.798  0.00  0.00    +0.000 A 
ATOM      5  N   UNL     1       4.867   3.971  17.800  0.00  0.00    +0.000 N 
ATOM      6  C   UNL     1       5.288   4.052  16.516  0.00  0.00    +0.000 A 
ENDROOT
BRANCH   1   8
ATOM      7  N   UNL     1       6.357   3.616  13.975  0.00  0.00    +0.000 N 
ATOM      8  C   UNL     1       6.902   4.562  14.775  0.00  0.00    +0.000 C 
ATOM      9  O   UNL     1       7.665   5.433  14.356  0.00  0.00    +0.000 OA
ATOM     10  H   UNL     1       6.431   3.737  12.971  0.00  0.00    +0.000 HD
ATOM     11  H   UNL     1       5.468   3.131  14.175  0.00  0.00    +0.000 HD
ENDBRANCH   1   8
BRANCH   5  12
ATOM     12  C   UNL     1       3.637   3.199  18.105  0.00  0.00    +0.000 C 
BRANCH  12  13
ATOM     13  C   UNL     1       2.344   3.959  17.980  0.00  0.00    +0.000 C 
ATOM     14  O   UNL     1       1.408   3.535  17.304  0.00  0.00    +0.000 OA
BRANCH  13  15
ATOM     15  C   UNL     1       2.224   5.281  18.676  0.00  0.00    +0.000 A 
ATOM     16  C   UNL     1       2.460   6.503  18.020  0.00  0.00    +0.000 A 
ATOM     17  C   UNL     1       2.334   7.708  18.721  0.00  0.00    +0.000 A 
ATOM     18  C   UNL     1       1.973   7.705  20.065  0.00  0.00    +0.000 A 
ATOM     19  C   UNL     1       1.734   6.498  20.717  0.00  0.00    +0.000 A 
ATOM     20  C   UNL     1       1.859   5.292  20.028  0.00  0.00    +0.000 A 
ENDBRANCH  13  15
ENDBRANCH  12  13
ENDBRANCH   5  12
TORSDOF 4
ENDMDL
MODEL 7
REMARK VINA RESULT:      -7.3      1.706      2.780
REMARK  Name = 
REMARK  4 active torsions:
REMARK  status: ('A' for Active; 'I' for Inactive)
REMARK    1  A    between atoms: C_2  and  C_4
REMARK    2  A    between atoms: N_8  and  C_9
REMARK    3  A    between atoms: C_9  and  C_10
REMARK    4  A    between atoms: C_10  and  C_12
REMARK                            x       y       z     vdW  Elec       q    Type
REMARK                         _______ _______ _______ _____ _____    ______ ____
ROOT
ATOM      1  C   UNL     1       6.556   4.847  15.908  0.00  0.00    +0.000 A 
ATOM      2  C   UNL     1       7.463   4.776  16.958  0.00  0.00    +0.000 A 
ATOM      3  C   UNL     1       7.013   5.029  18.252  0.00  0.00    +0.000 A 
ATOM      4  C   UNL     1       5.664   5.307  18.476  0.00  0.00    +0.000 A 
ATOM      5  N   UNL     1       4.789   5.351  17.442  0.00  0.00    +0.000 N 
ATOM      6  C   UNL     1       5.227   5.166  16.174  0.00  0.00    +0.000 A 
ENDROOT
BRANCH   1   8
ATOM      7  N   UNL     1       6.365   3.535  13.872  0.00  0.00    +0.000 N 
ATOM      8  C   UNL     1       6.895   4.611  14.499  0.00  0.00    +0.000 C 
ATOM      9  O   UNL     1       7.622   5.426  13.929  0.00  0.00    +0.000 OA
ATOM     10  H   UNL     1       6.414   3.499  12.860  0.00  0.00    +0.000 HD
ATOM     11  H   UNL     1       5.495   3.064  14.168  0.00  0.00    +0.000 HD
ENDBRANCH   1   8
BRANCH   5  12
ATOM     12  C   UNL     1       3.330   5.468  17.687  0.00  0.00    +0.000 C 
BRANCH  12  13
ATOM     13  C   UNL     1       2.588   4.166  17.823  0.00  0.00    +0.000 C 
ATOM     14  O   UNL     1       2.122   3.583  16.846  0.00  0.00    +0.000 OA
BRANCH  13  15
ATOM     15  C   UNL     1       2.391   3.598  19.197  0.00  0.00    +0.000 A 
ATOM     16  C   UNL     1       1.160   3.672  19.874  0.00  0.00    +0.000 A 
ATOM     17  C   UNL     1       1.034   3.125  21.156  0.00  0.00    +0.000 A 
ATOM     18  C   UNL     1       2.120   2.503  21.766  0.00  0.00    +0.000 A 
ATOM     19  C   UNL     1       3.339   2.423  21.096  0.00  0.00    +0.000 A 
ATOM     20  C   UNL     1       3.475   2.968  19.819  0.00  0.00    +0.000 A 
ENDBRANCH  13  15
ENDBRANCH  12  13
ENDBRANCH   5  12
TORSDOF 4
ENDMDL
MODEL 8
REMARK VINA RESULT:      -7.3      2.134      3.503
REMARK  Name = 
REMARK  4 active torsions:
REMARK  status: ('A' for Active; 'I' for Inactive)
REMARK    1  A    between atoms: C_2  and  C_4
REMARK    2  A    between atoms: N_8  and  C_9
REMARK    3  A    between atoms: C_9  and  C_10
REMARK    4  A    between atoms: C_10  and  C_12
REMARK                            x       y       z     vdW  Elec       q    Type
REMARK                         _______ _______ _______ _____ _____    ______ ____
ROOT
ATOM      1  C   UNL     1       6.539   4.582  16.226  0.00  0.00    +0.000 A 
ATOM      2  C   UNL     1       7.356   5.056  17.246  0.00  0.00    +0.000 A 
ATOM      3  C   UNL     1       6.882   5.021  18.555  0.00  0.00    +0.000 A 
ATOM      4  C   UNL     1       5.625   4.480  18.825  0.00  0.00    +0.000 A 
ATOM      5  N   UNL     1       4.850   4.003  17.820  0.00  0.00    +0.000 N 
ATOM      6  C   UNL     1       5.276   4.087  16.537  0.00  0.00    +0.000 A 
ENDROOT
BRANCH   1   8
ATOM      7  N   UNL     1       6.369   3.620  14.002  0.00  0.00    +0.000 N 
ATOM      8  C   UNL     1       6.909   4.566  14.805  0.00  0.00    +0.000 C 
ATOM      9  O   UNL     1       7.669   5.441  14.389  0.00  0.00    +0.000 OA
ATOM     10  H   UNL     1       6.443   3.744  12.998  0.00  0.00    +0.000 HD
ATOM     11  H   UNL     1       5.481   3.132  14.199  0.00  0.00    +0.000 HD
ENDBRANCH   1   8
BRANCH   5  12
ATOM     12  C   UNL     1       3.596   3.267  18.113  0.00  0.00    +0.000 C 
BRANCH  12  13
ATOM     13  C   UNL     1       2.326   4.058  17.960  0.00  0.00    +0.000 C 
ATOM     14  O   UNL     1       1.429   3.698  17.200  0.00  0.00    +0.000 OA
BRANCH  13  15
ATOM     15  C   UNL     1       2.182   5.333  18.735  0.00  0.00    +0.000 A 
ATOM     16  C   UNL     1       1.822   5.353  20.094  0.00  0.00    +0.000 A 
ATOM     17  C   UNL     1       1.701   6.573  20.768  0.00  0.00    +0.000 A 
ATOM     18  C   UNL     1       1.938   7.772  20.100  0.00  0.00    +0.000 A 
ATOM     19  C   UNL     1       2.300   7.757  18.755  0.00  0.00    +0.000 A 
ATOM     20  C   UNL     1       2.420   6.545  18.075  0.00  0.00    +0.000 A 
ENDBRANCH  13  15
ENDBRANCH  12  13
ENDBRANCH   5  12
TORSDOF 4
ENDMDL
MODEL 9
REMARK VINA RESULT:      -7.3      1.707      2.547
REMARK  Name = 
REMARK  4 active torsions:
REMARK  status: ('A' for Active; 'I' for Inactive)
REMARK    1  A    between atoms: C_2  and  C_4
REMARK    2  A    between atoms: N_8  and  C_9
REMARK    3  A    between atoms: C_9  and  C_10
REMARK    4  A    between atoms: C_10  and  C_12
REMARK                            x       y       z     vdW  Elec       q    Type
REMARK                         _______ _______ _______ _____ _____    ______ ____
ROOT
ATOM      1  C   UNL     1       6.488   4.881  15.899  0.00  0.00    +0.000 A 
ATOM      2  C   UNL     1       7.380   4.852  16.964  0.00  0.00    +0.000 A 
ATOM      3  C   UNL     1       6.899   5.092  18.249  0.00  0.00    +0.000 A 
ATOM      4  C   UNL     1       5.536   5.314  18.450  0.00  0.00    +0.000 A 
ATOM      5  N   UNL     1       4.677   5.319  17.402  0.00  0.00    +0.000 N 
ATOM      6  C   UNL     1       5.143   5.146  16.142  0.00  0.00    +0.000 A 
ENDROOT
BRANCH   1   8
ATOM      7  N   UNL     1       6.327   3.593  13.846  0.00  0.00    +0.000 N 
ATOM      8  C   UNL     1       6.860   4.653  14.498  0.00  0.00    +0.000 C 
ATOM      9  O   UNL     1       7.615   5.461  13.955  0.00  0.00    +0.000 OA
ATOM     10  H   UNL     1       6.402   3.566  12.835  0.00  0.00    +0.000 HD
ATOM     11  H   UNL     1       5.441   3.135  14.114  0.00  0.00    +0.000 HD
ENDBRANCH   1   8
BRANCH   5  12
ATOM     12  C   UNL     1       3.211   5.375  17.623  0.00  0.00    +0.000 C 
BRANCH  12  13
ATOM     13  C   UNL     1       2.528   4.047  17.801  0.00  0.00    +0.000 C 
ATOM     14  O   UNL     1       2.094   3.411  16.842  0.00  0.00    +0.000 OA
BRANCH  13  15
ATOM     15  C   UNL     1       2.351   3.516  19.192  0.00  0.00    +0.000 A 
ATOM     16  C   UNL     1       3.414   2.965  19.930  0.00  0.00    +0.000 A 
ATOM     17  C   UNL     1       3.191   2.483  21.224  0.00  0.00    +0.000 A 
ATOM     18  C   UNL     1       1.921   2.549  21.790  0.00  0.00    +0.000 A 
ATOM     19  C   UNL     1       0.866   3.098  21.065  0.00  0.00    +0.000 A 
ATOM     20  C   UNL     1       1.079   3.578  19.772  0.00  0.00    +0.000 A 
ENDBRANCH  13  15
ENDBRANCH  12  13
ENDBRANCH   5  12
TORSDOF 4
ENDMDL
