MODEL 1
REMARK VINA RESULT:      -8.6      0.000      0.000
REMARK  Name = 
REMARK  1 active torsions:
REMARK  status: ('A' for Active; 'I' for Inactive)
REMARK    1  A    between atoms: C_13  and  C_14
REMARK                            x       y       z     vdW  Elec       q    Type
REMARK                         _______ _______ _______ _____ _____    ______ ____
ROOT
ATOM      1  N   UNL     1       2.461   1.366  18.600  0.00  0.00    +0.000 N 
ATOM      2  C   UNL     1       2.693   2.728  18.626  0.00  0.00    +0.000 A 
ATOM      3  N   UNL     1       3.671   3.186  17.828  0.00  0.00    +0.000 NA
ATOM      4  C   UNL     1       3.964   4.513  17.815  0.00  0.00    +0.000 A 
ATOM      5  N   UNL     1       4.955   5.039  16.981  0.00  0.00    +0.000 N 
ATOM      6  C   UNL     1       5.280   4.217  15.804  0.00  0.00    +0.000 C 
ATOM      7  C   UNL     1       6.215   5.037  14.878  0.00  0.00    +0.000 C 
ATOM      8  N   UNL     1       7.451   5.501  15.545  0.00  0.00    +0.000 NA
ATOM      9  C   UNL     1       7.108   6.214  16.792  0.00  0.00    +0.000 C 
ATOM     10  C   UNL     1       6.172   5.412  17.727  0.00  0.00    +0.000 C 
ATOM     11  C   UNL     1       3.186   5.354  18.629  0.00  0.00    +0.000 A 
ATOM     12  C   UNL     1       3.078   6.756  18.864  0.00  0.00    +0.000 A 
ATOM     13  C   UNL     1       2.068   6.975  19.790  0.00  0.00    +0.000 A 
ATOM     14  N   UNL     1       1.583   5.725  20.126  0.00  0.00    +0.000 N 
ATOM     15  C   UNL     1       2.227   4.751  19.416  0.00  0.00    +0.000 A 
ATOM     16  N   UNL     1       1.945   3.446  19.476  0.00  0.00    +0.000 NA
ATOM     17  H   UNL     1       3.299   0.892  18.287  0.00  0.00    +0.000 HD
ATOM     18  H   UNL     1       2.063   1.076  19.483  0.00  0.00    +0.000 HD
ATOM     19  H   UNL     1       7.938   6.144  14.922  0.00  0.00    +0.000 HD
ATOM     20  H   UNL     1       0.815   5.537  20.753  0.00  0.00    +0.000 HD
ENDROOT
BRANCH  13  21
ATOM     21  C   UNL     1       1.514   8.223  20.320  0.00  0.00    +0.000 A 
ATOM     22  C   UNL     1       1.271   8.355  21.697  0.00  0.00    +0.000 A 
ATOM     23  C   UNL     1       0.767   9.547  22.224  0.00  0.00    +0.000 A 
ATOM     24  C   UNL     1       0.502  10.612  21.374  0.00  0.00    +0.000 A 
ATOM     25  F   UNL     1       0.026  11.758  21.877  0.00  0.00    +0.000 F 
ATOM     26  C   UNL     1       0.725  10.504  20.007  0.00  0.00    +0.000 A 
ATOM     27  C   UNL     1       1.228   9.310  19.481  0.00  0.00    +0.000 A 
ENDBRANCH  13  21
TORSDOF 1
ENDMDL
MODEL 2
REMARK VINA RESULT:      -8.6      0.100      1.011
REMARK  Name = 
REMARK  1 active torsions:
REMARK  status: ('A' for Active; 'I' for Inactive)
REMARK    1  A    between atoms: C_13  and  C_14
REMARK                            x       y       z     vdW  Elec       q    Type
REMARK                         _______ _______ _______ _____ _____    ______ ____
ROOT
ATOM      1  N   UNL     1       2.547   1.369  18.755  0.00  0.00    +0.000 N 
ATOM      2  C   UNL     1       2.757   2.735  18.751  0.00  0.00    +0.000 A 
ATOM      3  N   UNL     1       3.713   3.193  17.926  0.00  0.00    +0.000 NA
ATOM      4  C   UNL     1       3.984   4.524  17.883  0.00  0.00    +0.000 A 
ATOM      5  N   UNL     1       4.952   5.050  17.022  0.00  0.00    +0.000 N 
ATOM      6  C   UNL     1       5.270   4.211  15.855  0.00  0.00    +0.000 C 
ATOM      7  C   UNL     1       6.174   5.027  14.897  0.00  0.00    +0.000 C 
ATOM      8  N   UNL     1       7.414   5.524  15.533  0.00  0.00    +0.000 NA
ATOM      9  C   UNL     1       7.081   6.256  16.773  0.00  0.00    +0.000 C 
ATOM     10  C   UNL     1       6.175   5.457  17.739  0.00  0.00    +0.000 C 
ATOM     11  C   UNL     1       3.206   5.368  18.695  0.00  0.00    +0.000 A 
ATOM     12  C   UNL     1       3.080   6.772  18.905  0.00  0.00    +0.000 A 
ATOM     13  C   UNL     1       2.082   6.992  19.844  0.00  0.00    +0.000 A 
ATOM     14  N   UNL     1       1.624   5.741  20.212  0.00  0.00    +0.000 N 
ATOM     15  C   UNL     1       2.271   4.765  19.510  0.00  0.00    +0.000 A 
ATOM     16  N   UNL     1       2.012   3.457  19.600  0.00  0.00    +0.000 NA
ATOM     17  H   UNL     1       3.387   0.902  18.436  0.00  0.00    +0.000 HD
ATOM     18  H   UNL     1       2.170   1.089  19.650  0.00  0.00    +0.000 HD
ATOM     19  H   UNL     1       7.879   6.163  14.889  0.00  0.00    +0.000 HD
ATOM     20  H   UNL     1       0.870   5.553  20.856  0.00  0.00    +0.000 HD
ENDROOT
BRANCH  13  21
ATOM     21  C   UNL     1       1.517   8.242  20.360  0.00  0.00    +0.000 A 
ATOM     22  C   UNL     1       1.260   9.311  19.486  0.00  0.00    +0.000 A 
ATOM     23  C   UNL     1       0.697  10.500  19.956  0.00  0.00    +0.000 A 
ATOM     24  C   UNL     1       0.390  10.625  21.304  0.00  0.00    +0.000 A 
ATOM     25  F   UNL     1      -0.156  11.761  21.756  0.00  0.00    +0.000 F 
ATOM     26  C   UNL     1       0.643   9.587  22.191  0.00  0.00    +0.000 A 
ATOM     27  C   UNL     1       1.208   8.397  21.719  0.00  0.00    +0.000 A 
ENDBRANCH  13  21
TORSDOF 1
ENDMDL
MODEL 3
REMARK VINA RESULT:      -8.0      3.874      7.686
REMARK  Name = 
REMARK  1 active torsions:
REMARK  status: ('A' for Active; 'I' for Inactive)
REMARK    1  A    between atoms: C_13  and  C_14
REMARK                            x       y       z     vdW  Elec       q    Type
REMARK                         _______ _______ _______ _____ _____    ______ ____
ROOT
ATOM      1  N   UNL     1       0.368   9.491  23.411  0.00  0.00    +0.000 N 
ATOM      2  C   UNL     1       0.663   9.223  22.087  0.00  0.00    +0.000 A 
ATOM      3  N   UNL     1       0.119  10.042  21.172  0.00  0.00    +0.000 NA
ATOM      4  C   UNL     1       0.355   9.827  19.851  0.00  0.00    +0.000 A 
ATOM      5  N   UNL     1      -0.169  10.668  18.865  0.00  0.00    +0.000 N 
ATOM      6  C   UNL     1      -0.525  12.021  19.324  0.00  0.00    +0.000 C 
ATOM      7  C   UNL     1      -0.867  12.884  18.083  0.00  0.00    +0.000 C 
ATOM      8  N   UNL     1      -1.949  12.317  17.248  0.00  0.00    +0.000 NA
ATOM      9  C   UNL     1      -1.633  10.916  16.904  0.00  0.00    +0.000 C 
ATOM     10  C   UNL     1      -1.285  10.040  18.131  0.00  0.00    +0.000 C 
ATOM     11  C   UNL     1       1.202   8.758  19.512  0.00  0.00    +0.000 A 
ATOM     12  C   UNL     1       1.776   8.232  18.318  0.00  0.00    +0.000 A 
ATOM     13  C   UNL     1       2.577   7.149  18.650  0.00  0.00    +0.000 A 
ATOM     14  N   UNL     1       2.476   7.008  20.022  0.00  0.00    +0.000 N 
ATOM     15  C   UNL     1       1.678   7.983  20.549  0.00  0.00    +0.000 A 
ATOM     16  N   UNL     1       1.431   8.149  21.852  0.00  0.00    +0.000 NA
ATOM     17  H   UNL     1      -0.502  10.009  23.458  0.00  0.00    +0.000 HD
ATOM     18  H   UNL     1       0.434   8.639  23.949  0.00  0.00    +0.000 HD
ATOM     19  H   UNL     1      -2.018  12.859  16.387  0.00  0.00    +0.000 HD
ATOM     20  H   UNL     1       2.968   6.330  20.584  0.00  0.00    +0.000 HD
ENDROOT
BRANCH  13  21
ATOM     21  C   UNL     1       3.435   6.304  17.814  0.00  0.00    +0.000 A 
ATOM     22  C   UNL     1       4.466   6.883  17.056  0.00  0.00    +0.000 A 
ATOM     23  C   UNL     1       5.310   6.091  16.274  0.00  0.00    +0.000 A 
ATOM     24  C   UNL     1       5.125   4.716  16.246  0.00  0.00    +0.000 A 
ATOM     25  F   UNL     1       5.936   3.953  15.502  0.00  0.00    +0.000 F 
ATOM     26  C   UNL     1       4.106   4.120  16.978  0.00  0.00    +0.000 A 
ATOM     27  C   UNL     1       3.261   4.914  17.760  0.00  0.00    +0.000 A 
ENDBRANCH  13  21
TORSDOF 1
ENDMDL
MODEL 4
REMARK VINA RESULT:      -8.0      3.867      7.655
REMARK  Name = 
REMARK  1 active torsions:
REMARK  status: ('A' for Active; 'I' for Inactive)
REMARK    1  A    between atoms: C_13  and  C_14
REMARK                            x       y       z     vdW  Elec       q    Type
REMARK                         _______ _______ _______ _____ _____    ______ ____
ROOT
ATOM      1  N   UNL     1       0.153   9.450  23.482  0.00  0.00    +0.000 N 
ATOM      2  C   UNL     1       0.493   9.204  22.165  0.00  0.00    +0.000 A 
ATOM      3  N   UNL     1      -0.025  10.035  21.246  0.00  0.00    +0.000 NA
ATOM      4  C   UNL     1       0.255   9.843  19.930  0.00  0.00    +0.000 A 
ATOM      5  N   UNL     1      -0.240  10.697  18.940  0.00  0.00    +0.000 N 
ATOM      6  C   UNL     1      -0.616  12.041  19.409  0.00  0.00    +0.000 C 
ATOM      7  C   UNL     1      -0.922  12.923  18.171  0.00  0.00    +0.000 C 
ATOM      8  N   UNL     1      -1.973  12.365  17.292  0.00  0.00    +0.000 NA
ATOM      9  C   UNL     1      -1.640  10.970  16.937  0.00  0.00    +0.000 C 
ATOM     10  C   UNL     1      -1.328  10.077  18.160  0.00  0.00    +0.000 C 
ATOM     11  C   UNL     1       1.118   8.783  19.602  0.00  0.00    +0.000 A 
ATOM     12  C   UNL     1       1.733   8.278  18.419  0.00  0.00    +0.000 A 
ATOM     13  C   UNL     1       2.528   7.193  18.760  0.00  0.00    +0.000 A 
ATOM     14  N   UNL     1       2.383   7.029  20.125  0.00  0.00    +0.000 N 
ATOM     15  C   UNL     1       1.563   7.993  20.641  0.00  0.00    +0.000 A 
ATOM     16  N   UNL     1       1.273   8.137  21.938  0.00  0.00    +0.000 NA
ATOM     17  H   UNL     1      -0.719   9.963  23.510  0.00  0.00    +0.000 HD
ATOM     18  H   UNL     1       0.205   8.589  24.009  0.00  0.00    +0.000 HD
ATOM     19  H   UNL     1      -2.016  12.920  16.439  0.00  0.00    +0.000 HD
ATOM     20  H   UNL     1       2.859   6.345  20.693  0.00  0.00    +0.000 HD
ENDROOT
BRANCH  13  21
ATOM     21  C   UNL     1       3.416   6.365  17.940  0.00  0.00    +0.000 A 
ATOM     22  C   UNL     1       3.237   4.973  17.894  0.00  0.00    +0.000 A 
ATOM     23  C   UNL     1       4.058   4.171  17.097  0.00  0.00    +0.000 A 
ATOM     24  C   UNL     1       5.064   4.760  16.344  0.00  0.00    +0.000 A 
ATOM     25  F   UNL     1       5.848   3.995  15.574  0.00  0.00    +0.000 F 
ATOM     26  C   UNL     1       5.269   6.133  16.379  0.00  0.00    +0.000 A 
ATOM     27  C   UNL     1       4.447   6.935  17.178  0.00  0.00    +0.000 A 
ENDBRANCH  13  21
TORSDOF 1
ENDMDL
MODEL 5
REMARK VINA RESULT:      -7.9      1.314      1.723
REMARK  Name = 
REMARK  1 active torsions:
REMARK  status: ('A' for Active; 'I' for Inactive)
REMARK    1  A    between atoms: C_13  and  C_14
REMARK                            x       y       z     vdW  Elec       q    Type
REMARK                         _______ _______ _______ _____ _____    ______ ____
ROOT
ATOM      1  N   UNL     1       4.680   1.765  20.152  0.00  0.00    +0.000 N 
ATOM      2  C   UNL     1       4.439   3.011  19.605  0.00  0.00    +0.000 A 
ATOM      3  N   UNL     1       5.065   3.292  18.451  0.00  0.00    +0.000 NA
ATOM      4  C   UNL     1       4.886   4.506  17.865  0.00  0.00    +0.000 A 
ATOM      5  N   UNL     1       5.496   4.833  16.651  0.00  0.00    +0.000 N 
ATOM      6  C   UNL     1       5.890   3.683  15.821  0.00  0.00    +0.000 C 
ATOM      7  C   UNL     1       6.333   4.210  14.432  0.00  0.00    +0.000 C 
ATOM      8  N   UNL     1       7.428   5.202  14.498  0.00  0.00    +0.000 NA
ATOM      9  C   UNL     1       7.067   6.285  15.436  0.00  0.00    +0.000 C 
ATOM     10  C   UNL     1       6.618   5.776  16.826  0.00  0.00    +0.000 C 
ATOM     11  C   UNL     1       4.009   5.404  18.497  0.00  0.00    +0.000 A 
ATOM     12  C   UNL     1       3.472   6.694  18.217  0.00  0.00    +0.000 A 
ATOM     13  C   UNL     1       2.608   7.048  19.243  0.00  0.00    +0.000 A 
ATOM     14  N   UNL     1       2.633   5.997  20.141  0.00  0.00    +0.000 N 
ATOM     15  C   UNL     1       3.447   4.997  19.689  0.00  0.00    +0.000 A 
ATOM     16  N   UNL     1       3.636   3.826  20.305  0.00  0.00    +0.000 NA
ATOM     17  H   UNL     1       5.568   1.419  19.811  0.00  0.00    +0.000 HD
ATOM     18  H   UNL     1       4.548   1.806  21.153  0.00  0.00    +0.000 HD
ATOM     19  H   UNL     1       7.565   5.602  13.570  0.00  0.00    +0.000 HD
ATOM     20  H   UNL     1       2.083   5.925  20.983  0.00  0.00    +0.000 HD
ENDROOT
BRANCH  13  21
ATOM     21  C   UNL     1       1.755   8.228  19.409  0.00  0.00    +0.000 A 
ATOM     22  C   UNL     1       1.498   9.069  18.313  0.00  0.00    +0.000 A 
ATOM     23  C   UNL     1       0.667  10.184  18.446  0.00  0.00    +0.000 A 
ATOM     24  C   UNL     1       0.091  10.464  19.677  0.00  0.00    +0.000 A 
ATOM     25  F   UNL     1      -0.712  11.528  19.806  0.00  0.00    +0.000 F 
ATOM     26  C   UNL     1       0.337   9.654  20.779  0.00  0.00    +0.000 A 
ATOM     27  C   UNL     1       1.170   8.539  20.645  0.00  0.00    +0.000 A 
ENDBRANCH  13  21
TORSDOF 1
ENDMDL
MODEL 6
REMARK VINA RESULT:      -7.9      1.172      1.581
REMARK  Name = 
REMARK  1 active torsions:
REMARK  status: ('A' for Active; 'I' for Inactive)
REMARK    1  A    between atoms: C_13  and  C_14
REMARK                            x       y       z     vdW  Elec       q    Type
REMARK                         _______ _______ _______ _____ _____    ______ ____
ROOT
ATOM      1  N   UNL     1       3.452   2.115  20.557  0.00  0.00    +0.000 N 
ATOM      2  C   UNL     1       3.418   3.406  20.066  0.00  0.00    +0.000 A 
ATOM      3  N   UNL     1       4.262   3.690  19.062  0.00  0.00    +0.000 NA
ATOM      4  C   UNL     1       4.293   4.945  18.541  0.00  0.00    +0.000 A 
ATOM      5  N   UNL     1       5.137   5.280  17.478  0.00  0.00    +0.000 N 
ATOM      6  C   UNL     1       5.577   4.144  16.651  0.00  0.00    +0.000 C 
ATOM      7  C   UNL     1       6.305   4.702  15.401  0.00  0.00    +0.000 C 
ATOM      8  N   UNL     1       7.449   5.582  15.727  0.00  0.00    +0.000 NA
ATOM      9  C   UNL     1       7.015   6.641  16.661  0.00  0.00    +0.000 C 
ATOM     10  C   UNL     1       6.282   6.102  17.912  0.00  0.00    +0.000 C 
ATOM     11  C   UNL     1       3.394   5.886  19.072  0.00  0.00    +0.000 A 
ATOM     12  C   UNL     1       3.025   7.234  18.795  0.00  0.00    +0.000 A 
ATOM     13  C   UNL     1       2.022   7.611  19.676  0.00  0.00    +0.000 A 
ATOM     14  N   UNL     1       1.798   6.515  20.488  0.00  0.00    +0.000 N 
ATOM     15  C   UNL     1       2.595   5.469  20.116  0.00  0.00    +0.000 A 
ATOM     16  N   UNL     1       2.572   4.254  20.672  0.00  0.00    +0.000 NA
ATOM     17  H   UNL     1       4.355   1.706  20.353  0.00  0.00    +0.000 HD
ATOM     18  H   UNL     1       3.146   2.113  21.521  0.00  0.00    +0.000 HD
ATOM     19  H   UNL     1       7.783   6.018  14.868  0.00  0.00    +0.000 HD
ATOM     20  H   UNL     1       1.102   6.449  21.215  0.00  0.00    +0.000 HD
ENDROOT
BRANCH  13  21
ATOM     21  C   UNL     1       1.255   8.855  19.774  0.00  0.00    +0.000 A 
ATOM     22  C   UNL     1       1.294   9.789  18.725  0.00  0.00    +0.000 A 
ATOM     23  C   UNL     1       0.548  10.969  18.788  0.00  0.00    +0.000 A 
ATOM     24  C   UNL     1      -0.239  11.221  19.904  0.00  0.00    +0.000 A 
ATOM     25  F   UNL     1      -0.960  12.347  19.965  0.00  0.00    +0.000 F 
ATOM     26  C   UNL     1      -0.288  10.318  20.959  0.00  0.00    +0.000 A 
ATOM     27  C   UNL     1       0.460   9.138  20.894  0.00  0.00    +0.000 A 
ENDBRANCH  13  21
TORSDOF 1
ENDMDL
MODEL 7
REMARK VINA RESULT:      -7.9      1.313      1.394
REMARK  Name = 
REMARK  1 active torsions:
REMARK  status: ('A' for Active; 'I' for Inactive)
REMARK    1  A    between atoms: C_13  and  C_14
REMARK                            x       y       z     vdW  Elec       q    Type
REMARK                         _______ _______ _______ _____ _____    ______ ____
ROOT
ATOM      1  N   UNL     1       4.737   1.752  20.211  0.00  0.00    +0.000 N 
ATOM      2  C   UNL     1       4.487   2.995  19.660  0.00  0.00    +0.000 A 
ATOM      3  N   UNL     1       5.117   3.281  18.510  0.00  0.00    +0.000 NA
ATOM      4  C   UNL     1       4.929   4.491  17.921  0.00  0.00    +0.000 A 
ATOM      5  N   UNL     1       5.544   4.823  16.710  0.00  0.00    +0.000 N 
ATOM      6  C   UNL     1       5.955   3.675  15.885  0.00  0.00    +0.000 C 
ATOM      7  C   UNL     1       6.402   4.205  14.498  0.00  0.00    +0.000 C 
ATOM      8  N   UNL     1       7.486   5.209  14.569  0.00  0.00    +0.000 NA
ATOM      9  C   UNL     1       7.107   6.289  15.503  0.00  0.00    +0.000 C 
ATOM     10  C   UNL     1       6.654   5.778  16.891  0.00  0.00    +0.000 C 
ATOM     11  C   UNL     1       4.039   5.381  18.545  0.00  0.00    +0.000 A 
ATOM     12  C   UNL     1       3.490   6.665  18.260  0.00  0.00    +0.000 A 
ATOM     13  C   UNL     1       2.615   7.011  19.279  0.00  0.00    +0.000 A 
ATOM     14  N   UNL     1       2.645   5.962  20.179  0.00  0.00    +0.000 N 
ATOM     15  C   UNL     1       3.473   4.970  19.734  0.00  0.00    +0.000 A 
ATOM     16  N   UNL     1       3.671   3.803  20.354  0.00  0.00    +0.000 NA
ATOM     17  H   UNL     1       5.631   1.415  19.876  0.00  0.00    +0.000 HD
ATOM     18  H   UNL     1       4.599   1.794  21.211  0.00  0.00    +0.000 HD
ATOM     19  H   UNL     1       7.624   5.609  13.642  0.00  0.00    +0.000 HD
ATOM     20  H   UNL     1       2.091   5.886  21.018  0.00  0.00    +0.000 HD
ENDROOT
BRANCH  13  21
ATOM     21  C   UNL     1       1.749   8.183  19.437  0.00  0.00    +0.000 A 
ATOM     22  C   UNL     1       1.178   8.471  20.688  0.00  0.00    +0.000 A 
ATOM     23  C   UNL     1       0.371   9.598  20.863  0.00  0.00    +0.000 A 
ATOM     24  C   UNL     1       0.129  10.440  19.787  0.00  0.00    +0.000 A 
ATOM     25  F   UNL     1      -0.638  11.524  19.953  0.00  0.00    +0.000 F 
ATOM     26  C   UNL     1       0.674  10.172  18.537  0.00  0.00    +0.000 A 
ATOM     27  C   UNL     1       1.481   9.043  18.363  0.00  0.00    +0.000 A 
ENDBRANCH  13  21
TORSDOF 1
ENDMDL
MODEL 8
REMARK VINA RESULT:      -7.9      1.624      3.928
REMARK  Name = 
REMARK  1 active torsions:
REMARK  status: ('A' for Active; 'I' for Inactive)
REMARK    1  A    between atoms: C_13  and  C_14
REMARK                            x       y       z     vdW  Elec       q    Type
REMARK                         _______ _______ _______ _____ _____    ______ ____
ROOT
ATOM      1  N   UNL     1       5.496   6.778  15.514  0.00  0.00    +0.000 N 
ATOM      2  C   UNL     1       4.566   6.705  16.533  0.00  0.00    +0.000 A 
ATOM      3  N   UNL     1       4.257   5.477  16.979  0.00  0.00    +0.000 NA
ATOM      4  C   UNL     1       3.338   5.331  17.969  0.00  0.00    +0.000 A 
ATOM      5  N   UNL     1       3.003   4.074  18.482  0.00  0.00    +0.000 N 
ATOM      6  C   UNL     1       4.020   3.028  18.281  0.00  0.00    +0.000 C 
ATOM      7  C   UNL     1       3.603   1.777  19.096  0.00  0.00    +0.000 C 
ATOM      8  N   UNL     1       2.257   1.268  18.752  0.00  0.00    +0.000 NA
ATOM      9  C   UNL     1       1.271   2.364  18.836  0.00  0.00    +0.000 C 
ATOM     10  C   UNL     1       1.673   3.623  18.031  0.00  0.00    +0.000 C 
ATOM     11  C   UNL     1       2.777   6.502  18.507  0.00  0.00    +0.000 A 
ATOM     12  C   UNL     1       1.881   6.827  19.567  0.00  0.00    +0.000 A 
ATOM     13  C   UNL     1       1.739   8.206  19.621  0.00  0.00    +0.000 A 
ATOM     14  N   UNL     1       2.521   8.709  18.598  0.00  0.00    +0.000 N 
ATOM     15  C   UNL     1       3.167   7.699  17.944  0.00  0.00    +0.000 A 
ATOM     16  N   UNL     1       4.038   7.868  16.945  0.00  0.00    +0.000 NA
ATOM     17  H   UNL     1       5.506   5.899  15.011  0.00  0.00    +0.000 HD
ATOM     18  H   UNL     1       5.342   7.620  14.977  0.00  0.00    +0.000 HD
ATOM     19  H   UNL     1       2.000   0.542  19.420  0.00  0.00    +0.000 HD
ATOM     20  H   UNL     1       2.664   9.686  18.389  0.00  0.00    +0.000 HD
ENDROOT
BRANCH  13  21
ATOM     21  C   UNL     1       0.994   9.053  20.557  0.00  0.00    +0.000 A 
ATOM     22  C   UNL     1       0.275  10.162  20.082  0.00  0.00    +0.000 A 
ATOM     23  C   UNL     1      -0.462  10.965  20.955  0.00  0.00    +0.000 A 
ATOM     24  C   UNL     1      -0.481  10.663  22.310  0.00  0.00    +0.000 A 
ATOM     25  F   UNL     1      -1.191  11.427  23.149  0.00  0.00    +0.000 F 
ATOM     26  C   UNL     1       0.229   9.578  22.807  0.00  0.00    +0.000 A 
ATOM     27  C   UNL     1       0.968   8.775  21.931  0.00  0.00    +0.000 A 
ENDBRANCH  13  21
TORSDOF 1
ENDMDL
MODEL 9
REMARK VINA RESULT:      -7.8      1.402      1.539
REMARK  Name = 
REMARK  1 active torsions:
REMARK  status: ('A' for Active; 'I' for Inactive)
REMARK    1  A    between atoms: C_13  and  C_14
REMARK                            x       y       z     vdW  Elec       q    Type
REMARK                         _______ _______ _______ _____ _____    ______ ____
ROOT
ATOM      1  N   UNL     1       2.920   2.350  21.214  0.00  0.00    +0.000 N 
ATOM      2  C   UNL     1       2.969   3.585  20.593  0.00  0.00    +0.000 A 
ATOM      3  N   UNL     1       3.820   3.706  19.562  0.00  0.00    +0.000 NA
ATOM      4  C   UNL     1       3.930   4.896  18.915  0.00  0.00    +0.000 A 
ATOM      5  N   UNL     1       4.783   5.062  17.820  0.00  0.00    +0.000 N 
ATOM      6  C   UNL     1       5.134   3.821  17.111  0.00  0.00    +0.000 C 
ATOM      7  C   UNL     1       5.885   4.197  15.808  0.00  0.00    +0.000 C 
ATOM      8  N   UNL     1       7.090   5.025  16.037  0.00  0.00    +0.000 NA
ATOM      9  C   UNL     1       6.740   6.200  16.860  0.00  0.00    +0.000 C 
ATOM     10  C   UNL     1       5.987   5.843  18.163  0.00  0.00    +0.000 C 
ATOM     11  C   UNL     1       3.103   5.946  19.351  0.00  0.00    +0.000 A 
ATOM     12  C   UNL     1       2.825   7.282  18.939  0.00  0.00    +0.000 A 
ATOM     13  C   UNL     1       1.860   7.814  19.782  0.00  0.00    +0.000 A 
ATOM     14  N   UNL     1       1.571   6.824  20.702  0.00  0.00    +0.000 N 
ATOM     15  C   UNL     1       2.290   5.694  20.436  0.00  0.00    +0.000 A 
ATOM     16  N   UNL     1       2.190   4.546  21.113  0.00  0.00    +0.000 NA
ATOM     17  H   UNL     1       3.791   1.861  21.048  0.00  0.00    +0.000 HD
ATOM     18  H   UNL     1       2.626   2.468  22.173  0.00  0.00    +0.000 HD
ATOM     19  H   UNL     1       7.443   5.346  15.136  0.00  0.00    +0.000 HD
ATOM     20  H   UNL     1       0.879   6.881  21.435  0.00  0.00    +0.000 HD
ENDROOT
BRANCH  13  21
ATOM     21  C   UNL     1       1.180   9.112  19.755  0.00  0.00    +0.000 A 
ATOM     22  C   UNL     1       0.293   9.463  20.786  0.00  0.00    +0.000 A 
ATOM     23  C   UNL     1      -0.344  10.706  20.791  0.00  0.00    +0.000 A 
ATOM     24  C   UNL     1      -0.097  11.604  19.762  0.00  0.00    +0.000 A 
ATOM     25  F   UNL     1      -0.701  12.799  19.766  0.00  0.00    +0.000 F 
ATOM     26  C   UNL     1       0.768  11.278  18.725  0.00  0.00    +0.000 A 
ATOM     27  C   UNL     1       1.404  10.033  18.721  0.00  0.00    +0.000 A 
ENDBRANCH  13  21
TORSDOF 1
ENDMDL
