MODEL 1
REMARK VINA RESULT:      -7.4      0.000      0.000
REMARK  Name = 
REMARK  2 active torsions:
REMARK  status: ('A' for Active; 'I' for Inactive)
REMARK    1  A    between atoms: C_5  and  N_6
REMARK    2  A    between atoms: C_10  and  C_11
REMARK                            x       y       z     vdW  Elec       q    Type
REMARK                         _______ _______ _______ _____ _____    ______ ____
ROOT
ATOM      1  N   UNL     1       3.003   5.313  18.098  0.00  0.00    +0.000 N 
ATOM      2  N   UNL     1       2.161   4.266  17.904  0.00  0.00    +0.000 NA
ATOM      3  N   UNL     1       2.780   3.362  17.163  0.00  0.00    +0.000 NA
ATOM      4  C   UNL     1       4.068   3.770  17.007  0.00  0.00    +0.000 A 
ATOM      5  C   UNL     1       4.283   4.972  17.656  0.00  0.00    +0.000 A 
ENDROOT
BRANCH   1  10
ATOM      6 BR   UNL     1       0.748  10.497  20.379  0.00  0.00    +0.000 Br
ATOM      7  C   UNL     1       1.475   8.898  19.683  0.00  0.00    +0.000 A 
ATOM      8  C   UNL     1       1.832   8.828  18.337  0.00  0.00    +0.000 A 
ATOM      9  C   UNL     1       2.373   7.645  17.822  0.00  0.00    +0.000 A 
ATOM     10  C   UNL     1       2.514   6.523  18.651  0.00  0.00    +0.000 A 
ATOM     11  C   UNL     1       2.173   6.606  20.007  0.00  0.00    +0.000 A 
ATOM     12  C   UNL     1       1.654   7.800  20.522  0.00  0.00    +0.000 A 
ENDBRANCH   1  10
BRANCH   5  13
ATOM     13  C   UNL     1       5.546   5.659  17.953  0.00  0.00    +0.000 A 
ATOM     14  C   UNL     1       5.982   6.722  17.150  0.00  0.00    +0.000 A 
ATOM     15  C   UNL     1       7.206   7.351  17.399  0.00  0.00    +0.000 A 
ATOM     16  C   UNL     1       8.005   6.937  18.462  0.00  0.00    +0.000 A 
ATOM     17  C   UNL     1       7.593   5.877  19.262  0.00  0.00    +0.000 A 
ATOM     18  C   UNL     1       6.386   5.230  18.994  0.00  0.00    +0.000 A 
ENDBRANCH   5  13
TORSDOF 2
ENDMDL
MODEL 2
REMARK VINA RESULT:      -7.3      0.082      1.137
REMARK  Name = 
REMARK  2 active torsions:
REMARK  status: ('A' for Active; 'I' for Inactive)
REMARK    1  A    between atoms: C_5  and  N_6
REMARK    2  A    between atoms: C_10  and  C_11
REMARK                            x       y       z     vdW  Elec       q    Type
REMARK                         _______ _______ _______ _____ _____    ______ ____
ROOT
ATOM      1  N   UNL     1       2.948   5.301  18.081  0.00  0.00    +0.000 N 
ATOM      2  N   UNL     1       2.082   4.267  17.915  0.00  0.00    +0.000 NA
ATOM      3  N   UNL     1       2.667   3.348  17.166  0.00  0.00    +0.000 NA
ATOM      4  C   UNL     1       3.959   3.732  16.976  0.00  0.00    +0.000 A 
ATOM      5  C   UNL     1       4.210   4.934  17.611  0.00  0.00    +0.000 A 
ENDROOT
BRANCH   1  10
ATOM      6 BR   UNL     1       0.843  10.542  20.376  0.00  0.00    +0.000 Br
ATOM      7  C   UNL     1       1.524   8.924  19.676  0.00  0.00    +0.000 A 
ATOM      8  C   UNL     1       1.877   8.847  18.329  0.00  0.00    +0.000 A 
ATOM      9  C   UNL     1       2.384   7.651  17.812  0.00  0.00    +0.000 A 
ATOM     10  C   UNL     1       2.494   6.523  18.637  0.00  0.00    +0.000 A 
ATOM     11  C   UNL     1       2.156   6.612  19.994  0.00  0.00    +0.000 A 
ATOM     12  C   UNL     1       1.672   7.820  20.512  0.00  0.00    +0.000 A 
ENDBRANCH   1  10
BRANCH   5  13
ATOM     13  C   UNL     1       5.492   5.601  17.872  0.00  0.00    +0.000 A 
ATOM     14  C   UNL     1       6.300   5.191  18.943  0.00  0.00    +0.000 A 
ATOM     15  C   UNL     1       7.500   5.851  19.226  0.00  0.00    +0.000 A 
ATOM     16  C   UNL     1       7.917   6.919  18.436  0.00  0.00    +0.000 A 
ATOM     17  C   UNL     1       7.123   7.346  17.377  0.00  0.00    +0.000 A 
ATOM     18  C   UNL     1       5.911   6.706  17.114  0.00  0.00    +0.000 A 
ENDBRANCH   5  13
TORSDOF 2
ENDMDL
MODEL 3
REMARK VINA RESULT:      -7.2      0.117      1.148
REMARK  Name = 
REMARK  2 active torsions:
REMARK  status: ('A' for Active; 'I' for Inactive)
REMARK    1  A    between atoms: C_5  and  N_6
REMARK    2  A    between atoms: C_10  and  C_11
REMARK                            x       y       z     vdW  Elec       q    Type
REMARK                         _______ _______ _______ _____ _____    ______ ____
ROOT
ATOM      1  N   UNL     1       3.006   5.286  18.084  0.00  0.00    +0.000 N 
ATOM      2  N   UNL     1       2.194   4.212  17.904  0.00  0.00    +0.000 NA
ATOM      3  N   UNL     1       2.831   3.328  17.156  0.00  0.00    +0.000 NA
ATOM      4  C   UNL     1       4.104   3.775  16.982  0.00  0.00    +0.000 A 
ATOM      5  C   UNL     1       4.289   4.985  17.626  0.00  0.00    +0.000 A 
ENDROOT
BRANCH   1  10
ATOM      6 BR   UNL     1       0.923  10.445  20.578  0.00  0.00    +0.000 Br
ATOM      7  C   UNL     1       1.540   8.840  19.794  0.00  0.00    +0.000 A 
ATOM      8  C   UNL     1       1.688   7.697  20.581  0.00  0.00    +0.000 A 
ATOM      9  C   UNL     1       2.141   6.509  20.000  0.00  0.00    +0.000 A 
ATOM     10  C   UNL     1       2.487   6.481  18.642  0.00  0.00    +0.000 A 
ATOM     11  C   UNL     1       2.317   7.627  17.853  0.00  0.00    +0.000 A 
ATOM     12  C   UNL     1       1.840   8.807  18.434  0.00  0.00    +0.000 A 
ENDBRANCH   1  10
BRANCH   5  13
ATOM     13  C   UNL     1       5.535   5.712  17.904  0.00  0.00    +0.000 A 
ATOM     14  C   UNL     1       5.914   6.802  17.108  0.00  0.00    +0.000 A 
ATOM     15  C   UNL     1       7.121   7.470  17.339  0.00  0.00    +0.000 A 
ATOM     16  C   UNL     1       7.958   7.069  18.377  0.00  0.00    +0.000 A 
ATOM     17  C   UNL     1       7.603   5.983  19.169  0.00  0.00    +0.000 A 
ATOM     18  C   UNL     1       6.413   5.297  18.918  0.00  0.00    +0.000 A 
ENDBRANCH   5  13
TORSDOF 2
ENDMDL
MODEL 4
REMARK VINA RESULT:      -7.1      0.142      1.616
REMARK  Name = 
REMARK  2 active torsions:
REMARK  status: ('A' for Active; 'I' for Inactive)
REMARK    1  A    between atoms: C_5  and  N_6
REMARK    2  A    between atoms: C_10  and  C_11
REMARK                            x       y       z     vdW  Elec       q    Type
REMARK                         _______ _______ _______ _____ _____    ______ ____
ROOT
ATOM      1  N   UNL     1       3.023   5.211  18.040  0.00  0.00    +0.000 N 
ATOM      2  N   UNL     1       2.202   4.138  17.904  0.00  0.00    +0.000 NA
ATOM      3  N   UNL     1       2.830   3.218  17.192  0.00  0.00    +0.000 NA
ATOM      4  C   UNL     1       4.107   3.647  17.000  0.00  0.00    +0.000 A 
ATOM      5  C   UNL     1       4.304   4.880  17.593  0.00  0.00    +0.000 A 
ENDROOT
BRANCH   1  10
ATOM      6 BR   UNL     1       0.987  10.485  20.321  0.00  0.00    +0.000 Br
ATOM      7  C   UNL     1       1.590   8.844  19.604  0.00  0.00    +0.000 A 
ATOM      8  C   UNL     1       1.724   7.732  20.435  0.00  0.00    +0.000 A 
ATOM      9  C   UNL     1       2.167   6.517  19.904  0.00  0.00    +0.000 A 
ATOM     10  C   UNL     1       2.515   6.433  18.548  0.00  0.00    +0.000 A 
ATOM     11  C   UNL     1       2.359   7.548  17.714  0.00  0.00    +0.000 A 
ATOM     12  C   UNL     1       1.892   8.755  18.247  0.00  0.00    +0.000 A 
ENDBRANCH   1  10
BRANCH   5  13
ATOM     13  C   UNL     1       5.555   5.607  17.842  0.00  0.00    +0.000 A 
ATOM     14  C   UNL     1       6.407   5.219  18.886  0.00  0.00    +0.000 A 
ATOM     15  C   UNL     1       7.577   5.934  19.157  0.00  0.00    +0.000 A 
ATOM     16  C   UNL     1       7.921   7.038  18.381  0.00  0.00    +0.000 A 
ATOM     17  C   UNL     1       7.083   7.444  17.348  0.00  0.00    +0.000 A 
ATOM     18  C   UNL     1       5.899   6.747  17.098  0.00  0.00    +0.000 A 
ENDBRANCH   5  13
TORSDOF 2
ENDMDL
MODEL 5
REMARK VINA RESULT:      -6.9      2.166      3.955
REMARK  Name = 
REMARK  2 active torsions:
REMARK  status: ('A' for Active; 'I' for Inactive)
REMARK    1  A    between atoms: C_5  and  N_6
REMARK    2  A    between atoms: C_10  and  C_11
REMARK                            x       y       z     vdW  Elec       q    Type
REMARK                         _______ _______ _______ _____ _____    ______ ____
ROOT
ATOM      1  N   UNL     1       3.417   6.596  17.980  0.00  0.00    +0.000 N 
ATOM      2  N   UNL     1       4.256   6.902  16.957  0.00  0.00    +0.000 NA
ATOM      3  N   UNL     1       5.109   5.904  16.802  0.00  0.00    +0.000 NA
ATOM      4  C   UNL     1       4.720   4.897  17.631  0.00  0.00    +0.000 A 
ATOM      5  C   UNL     1       3.594   5.261  18.346  0.00  0.00    +0.000 A 
ENDROOT
BRANCH   1  10
ATOM      6 BR   UNL     1      -0.392  10.811  20.191  0.00  0.00    +0.000 Br
ATOM      7  C   UNL     1       0.812   9.520  19.518  0.00  0.00    +0.000 A 
ATOM      8  C   UNL     1       1.215   9.578  18.184  0.00  0.00    +0.000 A 
ATOM      9  C   UNL     1       2.109   8.624  17.687  0.00  0.00    +0.000 A 
ATOM     10  C   UNL     1       2.563   7.591  18.518  0.00  0.00    +0.000 A 
ATOM     11  C   UNL     1       2.170   7.550  19.862  0.00  0.00    +0.000 A 
ATOM     12  C   UNL     1       1.294   8.521  20.361  0.00  0.00    +0.000 A 
ENDBRANCH   1  10
BRANCH   5  13
ATOM     13  C   UNL     1       2.702   4.431  19.167  0.00  0.00    +0.000 A 
ATOM     14  C   UNL     1       2.983   4.215  20.524  0.00  0.00    +0.000 A 
ATOM     15  C   UNL     1       2.164   3.388  21.301  0.00  0.00    +0.000 A 
ATOM     16  C   UNL     1       1.046   2.779  20.737  0.00  0.00    +0.000 A 
ATOM     17  C   UNL     1       0.759   2.973  19.391  0.00  0.00    +0.000 A 
ATOM     18  C   UNL     1       1.594   3.773  18.609  0.00  0.00    +0.000 A 
ENDBRANCH   5  13
TORSDOF 2
ENDMDL
MODEL 6
REMARK VINA RESULT:      -6.9      2.171      4.121
REMARK  Name = 
REMARK  2 active torsions:
REMARK  status: ('A' for Active; 'I' for Inactive)
REMARK    1  A    between atoms: C_5  and  N_6
REMARK    2  A    between atoms: C_10  and  C_11
REMARK                            x       y       z     vdW  Elec       q    Type
REMARK                         _______ _______ _______ _____ _____    ______ ____
ROOT
ATOM      1  N   UNL     1       3.414   6.635  17.981  0.00  0.00    +0.000 N 
ATOM      2  N   UNL     1       4.282   6.979  16.994  0.00  0.00    +0.000 NA
ATOM      3  N   UNL     1       5.157   5.999  16.846  0.00  0.00    +0.000 NA
ATOM      4  C   UNL     1       4.759   4.968  17.639  0.00  0.00    +0.000 A 
ATOM      5  C   UNL     1       3.603   5.295  18.323  0.00  0.00    +0.000 A 
ENDROOT
BRANCH   1  10
ATOM      6 BR   UNL     1      -0.278  10.863  20.359  0.00  0.00    +0.000 Br
ATOM      7  C   UNL     1       0.841   9.537  19.610  0.00  0.00    +0.000 A 
ATOM      8  C   UNL     1       1.332   8.510  20.416  0.00  0.00    +0.000 A 
ATOM      9  C   UNL     1       2.158   7.527  19.862  0.00  0.00    +0.000 A 
ATOM     10  C   UNL     1       2.525   7.602  18.511  0.00  0.00    +0.000 A 
ATOM     11  C   UNL     1       2.012   8.625  17.702  0.00  0.00    +0.000 A 
ATOM     12  C   UNL     1       1.166   9.593  18.257  0.00  0.00    +0.000 A 
ENDBRANCH   1  10
BRANCH   5  13
ATOM     13  C   UNL     1       2.699   4.432  19.095  0.00  0.00    +0.000 A 
ATOM     14  C   UNL     1       2.912   4.227  20.465  0.00  0.00    +0.000 A 
ATOM     15  C   UNL     1       2.083   3.370  21.197  0.00  0.00    +0.000 A 
ATOM     16  C   UNL     1       1.023   2.717  20.573  0.00  0.00    +0.000 A 
ATOM     17  C   UNL     1       0.805   2.900  19.212  0.00  0.00    +0.000 A 
ATOM     18  C   UNL     1       1.651   3.732  18.477  0.00  0.00    +0.000 A 
ENDBRANCH   5  13
TORSDOF 2
ENDMDL
MODEL 7
REMARK VINA RESULT:      -6.9      2.147      4.024
REMARK  Name = 
REMARK  2 active torsions:
REMARK  status: ('A' for Active; 'I' for Inactive)
REMARK    1  A    between atoms: C_5  and  N_6
REMARK    2  A    between atoms: C_10  and  C_11
REMARK                            x       y       z     vdW  Elec       q    Type
REMARK                         _______ _______ _______ _____ _____    ______ ____
ROOT
ATOM      1  N   UNL     1       3.412   6.671  18.000  0.00  0.00    +0.000 N 
ATOM      2  N   UNL     1       4.270   7.031  17.011  0.00  0.00    +0.000 NA
ATOM      3  N   UNL     1       5.163   6.067  16.860  0.00  0.00    +0.000 NA
ATOM      4  C   UNL     1       4.786   5.028  17.653  0.00  0.00    +0.000 A 
ATOM      5  C   UNL     1       3.626   5.334  18.341  0.00  0.00    +0.000 A 
ENDROOT
BRANCH   1  10
ATOM      6 BR   UNL     1      -0.348  10.832  20.390  0.00  0.00    +0.000 Br
ATOM      7  C   UNL     1       0.793   9.526  19.639  0.00  0.00    +0.000 A 
ATOM      8  C   UNL     1       1.323   8.522  20.448  0.00  0.00    +0.000 A 
ATOM      9  C   UNL     1       2.165   7.554  19.892  0.00  0.00    +0.000 A 
ATOM     10  C   UNL     1       2.507   7.622  18.534  0.00  0.00    +0.000 A 
ATOM     11  C   UNL     1       1.954   8.621  17.722  0.00  0.00    +0.000 A 
ATOM     12  C   UNL     1       1.093   9.573  18.279  0.00  0.00    +0.000 A 
ENDBRANCH   1  10
BRANCH   5  13
ATOM     13  C   UNL     1       2.741   4.454  19.115  0.00  0.00    +0.000 A 
ATOM     14  C   UNL     1       1.663   3.808  18.494  0.00  0.00    +0.000 A 
ATOM     15  C   UNL     1       0.789   3.004  19.234  0.00  0.00    +0.000 A 
ATOM     16  C   UNL     1       0.987   2.824  20.600  0.00  0.00    +0.000 A 
ATOM     17  C   UNL     1       2.045   3.467  21.234  0.00  0.00    +0.000 A 
ATOM     18  C   UNL     1       2.898   4.293  20.501  0.00  0.00    +0.000 A 
ENDBRANCH   5  13
TORSDOF 2
ENDMDL
MODEL 8
REMARK VINA RESULT:      -6.9      2.201      3.825
REMARK  Name = 
REMARK  2 active torsions:
REMARK  status: ('A' for Active; 'I' for Inactive)
REMARK    1  A    between atoms: C_5  and  N_6
REMARK    2  A    between atoms: C_10  and  C_11
REMARK                            x       y       z     vdW  Elec       q    Type
REMARK                         _______ _______ _______ _____ _____    ______ ____
ROOT
ATOM      1  N   UNL     1       3.468   6.425  17.963  0.00  0.00    +0.000 N 
ATOM      2  N   UNL     1       4.270   6.772  16.923  0.00  0.00    +0.000 NA
ATOM      3  N   UNL     1       5.114   5.779  16.697  0.00  0.00    +0.000 NA
ATOM      4  C   UNL     1       4.752   4.740  17.496  0.00  0.00    +0.000 A 
ATOM      5  C   UNL     1       3.653   5.075  18.266  0.00  0.00    +0.000 A 
ENDROOT
BRANCH   1  10
ATOM      6 BR   UNL     1      -0.243  10.558  20.474  0.00  0.00    +0.000 Br
ATOM      7  C   UNL     1       0.931   9.291  19.709  0.00  0.00    +0.000 A 
ATOM      8  C   UNL     1       1.351   9.445  18.388  0.00  0.00    +0.000 A 
ATOM      9  C   UNL     1       2.223   8.509  17.823  0.00  0.00    +0.000 A 
ATOM     10  C   UNL     1       2.636   7.398  18.571  0.00  0.00    +0.000 A 
ATOM     11  C   UNL     1       2.227   7.259  19.904  0.00  0.00    +0.000 A 
ATOM     12  C   UNL     1       1.374   8.213  20.472  0.00  0.00    +0.000 A 
ENDBRANCH   1  10
BRANCH   5  13
ATOM     13  C   UNL     1       2.789   4.213  19.084  0.00  0.00    +0.000 A 
ATOM     14  C   UNL     1       1.563   3.755  18.580  0.00  0.00    +0.000 A 
ATOM     15  C   UNL     1       0.714   2.972  19.369  0.00  0.00    +0.000 A 
ATOM     16  C   UNL     1       1.084   2.624  20.666  0.00  0.00    +0.000 A 
ATOM     17  C   UNL     1       2.291   3.080  21.185  0.00  0.00    +0.000 A 
ATOM     18  C   UNL     1       3.123   3.886  20.407  0.00  0.00    +0.000 A 
ENDBRANCH   5  13
TORSDOF 2
ENDMDL
MODEL 9
REMARK VINA RESULT:      -6.9      2.790      3.876
REMARK  Name = 
REMARK  2 active torsions:
REMARK  status: ('A' for Active; 'I' for Inactive)
REMARK    1  A    between atoms: C_5  and  N_6
REMARK    2  A    between atoms: C_10  and  C_11
REMARK                            x       y       z     vdW  Elec       q    Type
REMARK                         _______ _______ _______ _____ _____    ______ ____
ROOT
ATOM      1  N   UNL     1       5.326   4.287  15.908  0.00  0.00    +0.000 N 
ATOM      2  N   UNL     1       5.229   3.520  14.790  0.00  0.00    +0.000 NA
ATOM      3  N   UNL     1       6.139   3.929  13.922  0.00  0.00    +0.000 NA
ATOM      4  C   UNL     1       6.913   4.860  14.544  0.00  0.00    +0.000 A 
ATOM      5  C   UNL     1       6.484   5.064  15.843  0.00  0.00    +0.000 A 
ENDROOT
BRANCH   1  10
ATOM      6 BR   UNL     1       1.100   3.972  20.290  0.00  0.00    +0.000 Br
ATOM      7  C   UNL     1       2.387   4.072  18.910  0.00  0.00    +0.000 A 
ATOM      8  C   UNL     1       2.981   2.904  18.432  0.00  0.00    +0.000 A 
ATOM      9  C   UNL     1       3.932   2.977  17.409  0.00  0.00    +0.000 A 
ATOM     10  C   UNL     1       4.315   4.226  16.899  0.00  0.00    +0.000 A 
ATOM     11  C   UNL     1       3.700   5.393  17.369  0.00  0.00    +0.000 A 
ATOM     12  C   UNL     1       2.731   5.312  18.377  0.00  0.00    +0.000 A 
ENDBRANCH   1  10
BRANCH   5  13
ATOM     13  C   UNL     1       7.142   5.784  16.940  0.00  0.00    +0.000 A 
ATOM     14  C   UNL     1       7.546   5.101  18.096  0.00  0.00    +0.000 A 
ATOM     15  C   UNL     1       8.132   5.789  19.164  0.00  0.00    +0.000 A 
ATOM     16  C   UNL     1       8.336   7.164  19.087  0.00  0.00    +0.000 A 
ATOM     17  C   UNL     1       7.931   7.859  17.952  0.00  0.00    +0.000 A 
ATOM     18  C   UNL     1       7.318   7.177  16.900  0.00  0.00    +0.000 A 
ENDBRANCH   5  13
TORSDOF 2
ENDMDL
