MODEL 1
REMARK VINA RESULT:      -8.1      0.000      0.000
REMARK  Name = 
REMARK  7 active torsions:
REMARK  status: ('A' for Active; 'I' for Inactive)
REMARK    1  A    between atoms: C_1  and  C_2
REMARK    2  A    between atoms: C_2  and  C_3
REMARK    3  A    between atoms: C_2  and  O_4
REMARK    4  A    between atoms: O_4  and  C_5
REMARK    5  A    between atoms: C_9  and  C_10
REMARK    6  A    between atoms: C_10  and  C_11
REMARK    7  A    between atoms: C_18  and  C_19
REMARK                            x       y       z     vdW  Elec       q    Type
REMARK                         _______ _______ _______ _____ _____    ______ ____
ROOT
ATOM      1  C   UNL     1       4.071   5.660  18.831  0.00  0.00    +0.000 C 
ATOM      2  O   UNL     1       3.931   5.260  19.988  0.00  0.00    +0.000 OA
ATOM      3  N   UNL     1       5.272   5.494  18.137  0.00  0.00    +0.000 N 
ATOM      4  C   UNL     1       6.348   4.742  18.784  0.00  0.00    +0.000 C 
ATOM      5  C   UNL     1       7.448   5.676  19.280  0.00  0.00    +0.000 C 
ATOM      6  C   UNL     1       7.946   6.611  18.178  0.00  0.00    +0.000 C 
ATOM      7  C   UNL     1       6.788   7.320  17.472  0.00  0.00    +0.000 C 
ATOM      8  C   UNL     1       5.685   6.358  17.007  0.00  0.00    +0.000 C 
ENDROOT
BRANCH   8   9
ATOM      9  C   UNL     1       6.052   5.540  15.795  0.00  0.00    +0.000 A 
ATOM     10  N   UNL     1       5.235   4.579  15.245  0.00  0.00    +0.000 NA
ATOM     11  C   UNL     1       5.950   4.161  14.232  0.00  0.00    +0.000 A 
ATOM     12  O   UNL     1       7.154   4.774  14.120  0.00  0.00    +0.000 OA
ATOM     13  N   UNL     1       7.228   5.693  15.169  0.00  0.00    +0.000 NA
ENDBRANCH   8   9
BRANCH   1  14
ATOM     14  C   UNL     1       2.950   6.366  18.084  0.00  0.00    +0.000 C 
BRANCH  14  19
ATOM     15  C   UNL     1       1.020   9.573  18.761  0.00  0.00    +0.000 A 
ATOM     16  C   UNL     1       0.766   9.462  20.127  0.00  0.00    +0.000 A 
ATOM     17  C   UNL     1       1.247   8.367  20.846  0.00  0.00    +0.000 A 
ATOM     18  C   UNL     1       1.975   7.372  20.196  0.00  0.00    +0.000 A 
ATOM     19  C   UNL     1       2.259   7.483  18.828  0.00  0.00    +0.000 A 
ATOM     20  C   UNL     1       1.804   8.608  18.126  0.00  0.00    +0.000 A 
BRANCH  15  21
ATOM     21  O   UNL     1       0.492  10.664  18.131  0.00  0.00    +0.000 OA
BRANCH  21  23
ATOM     22  C   UNL     1      -1.077  12.463  18.229  0.00  0.00    +0.000 C 
ATOM     23  C   UNL     1      -0.880  10.966  18.426  0.00  0.00    +0.000 C 
ATOM     24  C   UNL     1      -1.768  10.172  17.474  0.00  0.00    +0.000 C 
ENDBRANCH  21  23
ENDBRANCH  15  21
ENDBRANCH  14  19
ENDBRANCH   1  14
TORSDOF 5
ENDMDL
MODEL 2
REMARK VINA RESULT:      -8.0      1.762      2.508
REMARK  Name = 
REMARK  7 active torsions:
REMARK  status: ('A' for Active; 'I' for Inactive)
REMARK    1  A    between atoms: C_1  and  C_2
REMARK    2  A    between atoms: C_2  and  C_3
REMARK    3  A    between atoms: C_2  and  O_4
REMARK    4  A    between atoms: O_4  and  C_5
REMARK    5  A    between atoms: C_9  and  C_10
REMARK    6  A    between atoms: C_10  and  C_11
REMARK    7  A    between atoms: C_18  and  C_19
REMARK                            x       y       z     vdW  Elec       q    Type
REMARK                         _______ _______ _______ _____ _____    ______ ____
ROOT
ATOM      1  C   UNL     1       2.601   5.766  17.845  0.00  0.00    +0.000 C 
ATOM      2  O   UNL     1       1.413   5.495  17.656  0.00  0.00    +0.000 OA
ATOM      3  N   UNL     1       3.590   4.780  17.833  0.00  0.00    +0.000 N 
ATOM      4  C   UNL     1       3.199   3.411  17.494  0.00  0.00    +0.000 C 
ATOM      5  C   UNL     1       3.165   2.527  18.737  0.00  0.00    +0.000 C 
ATOM      6  C   UNL     1       4.470   2.602  19.530  0.00  0.00    +0.000 C 
ATOM      7  C   UNL     1       4.887   4.049  19.797  0.00  0.00    +0.000 C 
ATOM      8  C   UNL     1       4.888   4.921  18.532  0.00  0.00    +0.000 C 
ENDROOT
BRANCH   8   9
ATOM      9  C   UNL     1       6.045   4.655  17.603  0.00  0.00    +0.000 A 
ATOM     10  N   UNL     1       5.933   4.625  16.232  0.00  0.00    +0.000 NA
ATOM     11  C   UNL     1       7.165   4.381  15.864  0.00  0.00    +0.000 A 
ATOM     12  O   UNL     1       8.029   4.239  16.898  0.00  0.00    +0.000 OA
ATOM     13  N   UNL     1       7.281   4.416  18.064  0.00  0.00    +0.000 NA
ENDBRANCH   8   9
BRANCH   1  14
ATOM     14  C   UNL     1       3.068   7.189  18.110  0.00  0.00    +0.000 C 
BRANCH  14  19
ATOM     15  C   UNL     1       0.429   9.783  18.986  0.00  0.00    +0.000 A 
ATOM     16  C   UNL     1       0.216   9.520  20.338  0.00  0.00    +0.000 A 
ATOM     17  C   UNL     1       0.950   8.524  20.985  0.00  0.00    +0.000 A 
ATOM     18  C   UNL     1       1.892   7.780  20.276  0.00  0.00    +0.000 A 
ATOM     19  C   UNL     1       2.133   8.052  18.922  0.00  0.00    +0.000 A 
ATOM     20  C   UNL     1       1.417   9.082  18.295  0.00  0.00    +0.000 A 
BRANCH  15  21
ATOM     21  O   UNL     1      -0.350  10.758  18.427  0.00  0.00    +0.000 OA
BRANCH  21  23
ATOM     22  C   UNL     1      -2.499  11.773  18.663  0.00  0.00    +0.000 C 
ATOM     23  C   UNL     1      -1.756  10.481  18.351  0.00  0.00    +0.000 C 
ATOM     24  C   UNL     1      -2.080   9.997  16.942  0.00  0.00    +0.000 C 
ENDBRANCH  21  23
ENDBRANCH  15  21
ENDBRANCH  14  19
ENDBRANCH   1  14
TORSDOF 5
ENDMDL
MODEL 3
REMARK VINA RESULT:      -7.9      0.862      1.074
REMARK  Name = 
REMARK  7 active torsions:
REMARK  status: ('A' for Active; 'I' for Inactive)
REMARK    1  A    between atoms: C_1  and  C_2
REMARK    2  A    between atoms: C_2  and  C_3
REMARK    3  A    between atoms: C_2  and  O_4
REMARK    4  A    between atoms: O_4  and  C_5
REMARK    5  A    between atoms: C_9  and  C_10
REMARK    6  A    between atoms: C_10  and  C_11
REMARK    7  A    between atoms: C_18  and  C_19
REMARK                            x       y       z     vdW  Elec       q    Type
REMARK                         _______ _______ _______ _____ _____    ______ ____
ROOT
ATOM      1  C   UNL     1       4.067   5.614  18.849  0.00  0.00    +0.000 C 
ATOM      2  O   UNL     1       3.941   5.205  20.004  0.00  0.00    +0.000 OA
ATOM      3  N   UNL     1       5.266   5.473  18.146  0.00  0.00    +0.000 N 
ATOM      4  C   UNL     1       6.359   4.736  18.782  0.00  0.00    +0.000 C 
ATOM      5  C   UNL     1       7.446   5.685  19.276  0.00  0.00    +0.000 C 
ATOM      6  C   UNL     1       7.921   6.635  18.176  0.00  0.00    +0.000 C 
ATOM      7  C   UNL     1       6.747   7.328  17.482  0.00  0.00    +0.000 C 
ATOM      8  C   UNL     1       5.657   6.350  17.018  0.00  0.00    +0.000 C 
ENDROOT
BRANCH   8   9
ATOM      9  C   UNL     1       6.030   5.545  15.799  0.00  0.00    +0.000 A 
ATOM     10  N   UNL     1       5.213   4.595  15.230  0.00  0.00    +0.000 NA
ATOM     11  C   UNL     1       5.935   4.186  14.218  0.00  0.00    +0.000 A 
ATOM     12  O   UNL     1       7.143   4.793  14.125  0.00  0.00    +0.000 OA
ATOM     13  N   UNL     1       7.213   5.699  15.186  0.00  0.00    +0.000 NA
ENDBRANCH   8   9
BRANCH   1  14
ATOM     14  C   UNL     1       2.930   6.305  18.112  0.00  0.00    +0.000 C 
BRANCH  14  19
ATOM     15  C   UNL     1       1.319   9.701  18.690  0.00  0.00    +0.000 A 
ATOM     16  C   UNL     1       0.929   9.602  20.024  0.00  0.00    +0.000 A 
ATOM     17  C   UNL     1       1.216   8.450  20.758  0.00  0.00    +0.000 A 
ATOM     18  C   UNL     1       1.884   7.387  20.152  0.00  0.00    +0.000 A 
ATOM     19  C   UNL     1       2.303   7.483  18.818  0.00  0.00    +0.000 A 
ATOM     20  C   UNL     1       2.043   8.663  18.105  0.00  0.00    +0.000 A 
BRANCH  15  21
ATOM     21  O   UNL     1       0.976  10.855  18.041  0.00  0.00    +0.000 OA
BRANCH  21  23
ATOM     22  C   UNL     1       2.274  12.826  18.410  0.00  0.00    +0.000 C 
ATOM     23  C   UNL     1       1.023  12.059  18.820  0.00  0.00    +0.000 C 
ATOM     24  C   UNL     1      -0.232  12.875  18.529  0.00  0.00    +0.000 C 
ENDBRANCH  21  23
ENDBRANCH  15  21
ENDBRANCH  14  19
ENDBRANCH   1  14
TORSDOF 5
ENDMDL
MODEL 4
REMARK VINA RESULT:      -7.9      1.827      2.791
REMARK  Name = 
REMARK  7 active torsions:
REMARK  status: ('A' for Active; 'I' for Inactive)
REMARK    1  A    between atoms: C_1  and  C_2
REMARK    2  A    between atoms: C_2  and  C_3
REMARK    3  A    between atoms: C_2  and  O_4
REMARK    4  A    between atoms: O_4  and  C_5
REMARK    5  A    between atoms: C_9  and  C_10
REMARK    6  A    between atoms: C_10  and  C_11
REMARK    7  A    between atoms: C_18  and  C_19
REMARK                            x       y       z     vdW  Elec       q    Type
REMARK                         _______ _______ _______ _____ _____    ______ ____
ROOT
ATOM      1  C   UNL     1       5.335   4.070  18.686  0.00  0.00    +0.000 C 
ATOM      2  O   UNL     1       5.748   3.701  19.787  0.00  0.00    +0.000 OA
ATOM      3  N   UNL     1       6.181   4.665  17.747  0.00  0.00    +0.000 N 
ATOM      4  C   UNL     1       7.607   4.759  18.060  0.00  0.00    +0.000 C 
ATOM      5  C   UNL     1       7.994   6.186  18.435  0.00  0.00    +0.000 C 
ATOM      6  C   UNL     1       7.541   7.199  17.383  0.00  0.00    +0.000 C 
ATOM      7  C   UNL     1       6.064   7.019  17.025  0.00  0.00    +0.000 C 
ATOM      8  C   UNL     1       5.700   5.568  16.676  0.00  0.00    +0.000 C 
ENDROOT
BRANCH   8   9
ATOM      9  C   UNL     1       6.185   5.121  15.320  0.00  0.00    +0.000 A 
ATOM     10  N   UNL     1       7.362   5.549  14.750  0.00  0.00    +0.000 NA
ATOM     11  C   UNL     1       7.366   4.900  13.613  0.00  0.00    +0.000 A 
ATOM     12  O   UNL     1       6.276   4.117  13.424  0.00  0.00    +0.000 OA
ATOM     13  N   UNL     1       5.480   4.268  14.563  0.00  0.00    +0.000 NA
ENDBRANCH   8   9
BRANCH   1  14
ATOM     14  C   UNL     1       3.879   3.910  18.279  0.00  0.00    +0.000 C 
BRANCH  14  19
ATOM     15  C   UNL     1       1.940   6.637  20.087  0.00  0.00    +0.000 A 
ATOM     16  C   UNL     1       0.874   5.915  20.619  0.00  0.00    +0.000 A 
ATOM     17  C   UNL     1       0.792   4.536  20.428  0.00  0.00    +0.000 A 
ATOM     18  C   UNL     1       1.774   3.875  19.690  0.00  0.00    +0.000 A 
ATOM     19  C   UNL     1       2.864   4.585  19.170  0.00  0.00    +0.000 A 
ATOM     20  C   UNL     1       2.954   5.965  19.405  0.00  0.00    +0.000 A 
BRANCH  15  21
ATOM     21  O   UNL     1       1.928   7.987  20.302  0.00  0.00    +0.000 OA
BRANCH  21  23
ATOM     22  C   UNL     1       1.374   9.089  22.348  0.00  0.00    +0.000 C 
ATOM     23  C   UNL     1       0.820   8.500  21.058  0.00  0.00    +0.000 C 
ATOM     24  C   UNL     1       0.122   9.572  20.228  0.00  0.00    +0.000 C 
ENDBRANCH  21  23
ENDBRANCH  15  21
ENDBRANCH  14  19
ENDBRANCH   1  14
TORSDOF 5
ENDMDL
MODEL 5
REMARK VINA RESULT:      -7.8      3.213      6.883
REMARK  Name = 
REMARK  7 active torsions:
REMARK  status: ('A' for Active; 'I' for Inactive)
REMARK    1  A    between atoms: C_1  and  C_2
REMARK    2  A    between atoms: C_2  and  C_3
REMARK    3  A    between atoms: C_2  and  O_4
REMARK    4  A    between atoms: O_4  and  C_5
REMARK    5  A    between atoms: C_9  and  C_10
REMARK    6  A    between atoms: C_10  and  C_11
REMARK    7  A    between atoms: C_18  and  C_19
REMARK                            x       y       z     vdW  Elec       q    Type
REMARK                         _______ _______ _______ _____ _____    ______ ____
ROOT
ATOM      1  C   UNL     1       3.931   2.847  18.524  0.00  0.00    +0.000 C 
ATOM      2  O   UNL     1       4.719   1.958  18.852  0.00  0.00    +0.000 OA
ATOM      3  N   UNL     1       3.196   3.563  19.472  0.00  0.00    +0.000 N 
ATOM      4  C   UNL     1       3.451   3.301  20.889  0.00  0.00    +0.000 C 
ATOM      5  C   UNL     1       2.324   2.478  21.506  0.00  0.00    +0.000 C 
ATOM      6  C   UNL     1       0.952   3.099  21.246  0.00  0.00    +0.000 C 
ATOM      7  C   UNL     1       0.753   3.432  19.766  0.00  0.00    +0.000 C 
ATOM      8  C   UNL     1       1.914   4.239  19.166  0.00  0.00    +0.000 C 
ENDROOT
BRANCH   8   9
ATOM      9  C   UNL     1       1.940   5.686  19.589  0.00  0.00    +0.000 A 
ATOM     10  N   UNL     1       1.455   6.139  20.794  0.00  0.00    +0.000 NA
ATOM     11  C   UNL     1       1.701   7.423  20.721  0.00  0.00    +0.000 A 
ATOM     12  O   UNL     1       2.282   7.805  19.558  0.00  0.00    +0.000 OA
ATOM     13  N   UNL     1       2.438   6.645  18.795  0.00  0.00    +0.000 NA
ENDBRANCH   8   9
BRANCH   1  14
ATOM     14  C   UNL     1       3.700   3.218  17.068  0.00  0.00    +0.000 C 
BRANCH  14  19
ATOM     15  C   UNL     1       6.131   6.077  16.448  0.00  0.00    +0.000 A 
ATOM     16  C   UNL     1       6.906   5.564  15.409  0.00  0.00    +0.000 A 
ATOM     17  C   UNL     1       6.626   4.304  14.878  0.00  0.00    +0.000 A 
ATOM     18  C   UNL     1       5.575   3.548  15.394  0.00  0.00    +0.000 A 
ATOM     19  C   UNL     1       4.772   4.062  16.422  0.00  0.00    +0.000 A 
ATOM     20  C   UNL     1       5.040   5.346  16.919  0.00  0.00    +0.000 A 
BRANCH  15  21
ATOM     21  O   UNL     1       6.491   7.307  16.924  0.00  0.00    +0.000 OA
BRANCH  21  23
ATOM     22  C   UNL     1       8.029   8.864  17.879  0.00  0.00    +0.000 C 
ATOM     23  C   UNL     1       7.804   7.408  17.493  0.00  0.00    +0.000 C 
ATOM     24  C   UNL     1       7.873   6.505  18.720  0.00  0.00    +0.000 C 
ENDBRANCH  21  23
ENDBRANCH  15  21
ENDBRANCH  14  19
ENDBRANCH   1  14
TORSDOF 5
ENDMDL
MODEL 6
REMARK VINA RESULT:      -7.7      1.587      2.170
REMARK  Name = 
REMARK  7 active torsions:
REMARK  status: ('A' for Active; 'I' for Inactive)
REMARK    1  A    between atoms: C_1  and  C_2
REMARK    2  A    between atoms: C_2  and  C_3
REMARK    3  A    between atoms: C_2  and  O_4
REMARK    4  A    between atoms: O_4  and  C_5
REMARK    5  A    between atoms: C_9  and  C_10
REMARK    6  A    between atoms: C_10  and  C_11
REMARK    7  A    between atoms: C_18  and  C_19
REMARK                            x       y       z     vdW  Elec       q    Type
REMARK                         _______ _______ _______ _____ _____    ______ ____
ROOT
ATOM      1  C   UNL     1       4.262   5.085  18.761  0.00  0.00    +0.000 C 
ATOM      2  O   UNL     1       4.235   4.671  19.921  0.00  0.00    +0.000 OA
ATOM      3  N   UNL     1       5.461   5.205  18.053  0.00  0.00    +0.000 N 
ATOM      4  C   UNL     1       6.692   4.737  18.691  0.00  0.00    +0.000 C 
ATOM      5  C   UNL     1       7.543   5.910  19.168  0.00  0.00    +0.000 C 
ATOM      6  C   UNL     1       7.791   6.929  18.056  0.00  0.00    +0.000 C 
ATOM      7  C   UNL     1       6.490   7.335  17.361  0.00  0.00    +0.000 C 
ATOM      8  C   UNL     1       5.643   6.134  16.914  0.00  0.00    +0.000 C 
ENDROOT
BRANCH   8   9
ATOM      9  C   UNL     1       6.183   5.418  15.701  0.00  0.00    +0.000 A 
ATOM     10  N   UNL     1       5.494   4.438  15.023  0.00  0.00    +0.000 NA
ATOM     11  C   UNL     1       6.331   4.133  14.064  0.00  0.00    +0.000 A 
ATOM     12  O   UNL     1       7.491   4.832  14.104  0.00  0.00    +0.000 OA
ATOM     13  N   UNL     1       7.398   5.689  15.203  0.00  0.00    +0.000 NA
ENDBRANCH   8   9
BRANCH   1  14
ATOM     14  C   UNL     1       2.998   5.497  18.024  0.00  0.00    +0.000 C 
BRANCH  14  19
ATOM     15  C   UNL     1       1.699   8.450  20.038  0.00  0.00    +0.000 A 
ATOM     16  C   UNL     1       1.661   9.452  19.071  0.00  0.00    +0.000 A 
ATOM     17  C   UNL     1       2.021   9.172  17.752  0.00  0.00    +0.000 A 
ATOM     18  C   UNL     1       2.434   7.887  17.400  0.00  0.00    +0.000 A 
ATOM     19  C   UNL     1       2.453   6.864  18.357  0.00  0.00    +0.000 A 
ATOM     20  C   UNL     1       2.050   7.151  19.670  0.00  0.00    +0.000 A 
BRANCH  15  21
ATOM     21  O   UNL     1       1.353   8.817  21.309  0.00  0.00    +0.000 OA
BRANCH  21  23
ATOM     22  C   UNL     1      -0.544   8.996  22.749  0.00  0.00    +0.000 C 
ATOM     23  C   UNL     1       0.092   9.486  21.455  0.00  0.00    +0.000 C 
ATOM     24  C   UNL     1       0.343  10.989  21.509  0.00  0.00    +0.000 C 
ENDBRANCH  21  23
ENDBRANCH  15  21
ENDBRANCH  14  19
ENDBRANCH   1  14
TORSDOF 5
ENDMDL
MODEL 7
REMARK VINA RESULT:      -7.6      2.349      3.554
REMARK  Name = 
REMARK  7 active torsions:
REMARK  status: ('A' for Active; 'I' for Inactive)
REMARK    1  A    between atoms: C_1  and  C_2
REMARK    2  A    between atoms: C_2  and  C_3
REMARK    3  A    between atoms: C_2  and  O_4
REMARK    4  A    between atoms: O_4  and  C_5
REMARK    5  A    between atoms: C_9  and  C_10
REMARK    6  A    between atoms: C_10  and  C_11
REMARK    7  A    between atoms: C_18  and  C_19
REMARK                            x       y       z     vdW  Elec       q    Type
REMARK                         _______ _______ _______ _____ _____    ______ ____
ROOT
ATOM      1  C   UNL     1       5.369   3.842  18.343  0.00  0.00    +0.000 C 
ATOM      2  O   UNL     1       5.745   3.529  19.474  0.00  0.00    +0.000 OA
ATOM      3  N   UNL     1       6.192   4.558  17.469  0.00  0.00    +0.000 N 
ATOM      4  C   UNL     1       7.561   4.853  17.891  0.00  0.00    +0.000 C 
ATOM      5  C   UNL     1       7.709   6.318  18.288  0.00  0.00    +0.000 C 
ATOM      6  C   UNL     1       7.199   7.262  17.199  0.00  0.00    +0.000 C 
ATOM      7  C   UNL     1       5.795   6.875  16.727  0.00  0.00    +0.000 C 
ATOM      8  C   UNL     1       5.671   5.388  16.359  0.00  0.00    +0.000 C 
ENDROOT
BRANCH   8   9
ATOM      9  C   UNL     1       6.319   5.023  15.047  0.00  0.00    +0.000 A 
ATOM     10  N   UNL     1       7.527   5.530  14.624  0.00  0.00    +0.000 NA
ATOM     11  C   UNL     1       7.683   4.931  13.471  0.00  0.00    +0.000 A 
ATOM     12  O   UNL     1       6.660   4.109  13.135  0.00  0.00    +0.000 OA
ATOM     13  N   UNL     1       5.741   4.173  14.186  0.00  0.00    +0.000 NA
ENDBRANCH   8   9
BRANCH   1  14
ATOM     14  C   UNL     1       3.987   3.478  17.825  0.00  0.00    +0.000 C 
BRANCH  14  19
ATOM     15  C   UNL     1       1.477   5.083  20.189  0.00  0.00    +0.000 A 
ATOM     16  C   UNL     1       0.616   4.017  20.447  0.00  0.00    +0.000 A 
ATOM     17  C   UNL     1       0.861   2.763  19.887  0.00  0.00    +0.000 A 
ATOM     18  C   UNL     1       1.964   2.574  19.055  0.00  0.00    +0.000 A 
ATOM     19  C   UNL     1       2.851   3.630  18.806  0.00  0.00    +0.000 A 
ATOM     20  C   UNL     1       2.615   4.875  19.408  0.00  0.00    +0.000 A 
BRANCH  15  21
ATOM     21  O   UNL     1       1.149   6.281  20.758  0.00  0.00    +0.000 OA
BRANCH  21  23
ATOM     22  C   UNL     1       1.857   7.677  18.954  0.00  0.00    +0.000 C 
ATOM     23  C   UNL     1       2.004   7.389  20.443  0.00  0.00    +0.000 C 
ATOM     24  C   UNL     1       1.568   8.592  21.273  0.00  0.00    +0.000 C 
ENDBRANCH  21  23
ENDBRANCH  15  21
ENDBRANCH  14  19
ENDBRANCH   1  14
TORSDOF 5
ENDMDL
MODEL 8
REMARK VINA RESULT:      -7.6      1.825      2.618
REMARK  Name = 
REMARK  7 active torsions:
REMARK  status: ('A' for Active; 'I' for Inactive)
REMARK    1  A    between atoms: C_1  and  C_2
REMARK    2  A    between atoms: C_2  and  C_3
REMARK    3  A    between atoms: C_2  and  O_4
REMARK    4  A    between atoms: O_4  and  C_5
REMARK    5  A    between atoms: C_9  and  C_10
REMARK    6  A    between atoms: C_10  and  C_11
REMARK    7  A    between atoms: C_18  and  C_19
REMARK                            x       y       z     vdW  Elec       q    Type
REMARK                         _______ _______ _______ _____ _____    ______ ____
ROOT
ATOM      1  C   UNL     1       2.579   5.721  17.828  0.00  0.00    +0.000 C 
ATOM      2  O   UNL     1       1.397   5.411  17.665  0.00  0.00    +0.000 OA
ATOM      3  N   UNL     1       3.592   4.759  17.854  0.00  0.00    +0.000 N 
ATOM      4  C   UNL     1       3.233   3.366  17.588  0.00  0.00    +0.000 C 
ATOM      5  C   UNL     1       3.232   2.544  18.873  0.00  0.00    +0.000 C 
ATOM      6  C   UNL     1       4.542   2.690  19.648  0.00  0.00    +0.000 C 
ATOM      7  C   UNL     1       4.925   4.159  19.839  0.00  0.00    +0.000 C 
ATOM      8  C   UNL     1       4.893   4.967  18.532  0.00  0.00    +0.000 C 
ENDROOT
BRANCH   8   9
ATOM      9  C   UNL     1       6.048   4.684  17.606  0.00  0.00    +0.000 A 
ATOM     10  N   UNL     1       5.940   4.664  16.234  0.00  0.00    +0.000 NA
ATOM     11  C   UNL     1       7.168   4.398  15.868  0.00  0.00    +0.000 A 
ATOM     12  O   UNL     1       8.026   4.232  16.904  0.00  0.00    +0.000 OA
ATOM     13  N   UNL     1       7.277   4.416  18.069  0.00  0.00    +0.000 NA
ENDBRANCH   8   9
BRANCH   1  14
ATOM     14  C   UNL     1       3.013   7.166  18.018  0.00  0.00    +0.000 C 
BRANCH  14  19
ATOM     15  C   UNL     1       0.559   9.818  19.204  0.00  0.00    +0.000 A 
ATOM     16  C   UNL     1       0.357   9.439  20.530  0.00  0.00    +0.000 A 
ATOM     17  C   UNL     1       1.040   8.344  21.060  0.00  0.00    +0.000 A 
ATOM     18  C   UNL     1       1.920   7.616  20.259  0.00  0.00    +0.000 A 
ATOM     19  C   UNL     1       2.150   8.001  18.932  0.00  0.00    +0.000 A 
ATOM     20  C   UNL     1       1.487   9.128  18.424  0.00  0.00    +0.000 A 
BRANCH  15  21
ATOM     21  O   UNL     1      -0.169  10.887  18.760  0.00  0.00    +0.000 OA
BRANCH  21  23
ATOM     22  C   UNL     1       1.127  12.890  18.635  0.00  0.00    +0.000 C 
ATOM     23  C   UNL     1       0.067  12.136  19.427  0.00  0.00    +0.000 C 
ATOM     24  C   UNL     1      -1.240  12.920  19.467  0.00  0.00    +0.000 C 
ENDBRANCH  21  23
ENDBRANCH  15  21
ENDBRANCH  14  19
ENDBRANCH   1  14
TORSDOF 5
ENDMDL
MODEL 9
REMARK VINA RESULT:      -7.6      2.698      4.424
REMARK  Name = 
REMARK  7 active torsions:
REMARK  status: ('A' for Active; 'I' for Inactive)
REMARK    1  A    between atoms: C_1  and  C_2
REMARK    2  A    between atoms: C_2  and  C_3
REMARK    3  A    between atoms: C_2  and  O_4
REMARK    4  A    between atoms: O_4  and  C_5
REMARK    5  A    between atoms: C_9  and  C_10
REMARK    6  A    between atoms: C_10  and  C_11
REMARK    7  A    between atoms: C_18  and  C_19
REMARK                            x       y       z     vdW  Elec       q    Type
REMARK                         _______ _______ _______ _____ _____    ______ ____
ROOT
ATOM      1  C   UNL     1       3.203   6.845  18.082  0.00  0.00    +0.000 C 
ATOM      2  O   UNL     1       4.174   7.466  17.645  0.00  0.00    +0.000 OA
ATOM      3  N   UNL     1       3.317   5.527  18.531  0.00  0.00    +0.000 N 
ATOM      4  C   UNL     1       4.647   4.917  18.562  0.00  0.00    +0.000 C 
ATOM      5  C   UNL     1       4.819   3.919  17.421  0.00  0.00    +0.000 C 
ATOM      6  C   UNL     1       3.688   2.892  17.382  0.00  0.00    +0.000 C 
ATOM      7  C   UNL     1       2.313   3.563  17.430  0.00  0.00    +0.000 C 
ATOM      8  C   UNL     1       2.178   4.580  18.573  0.00  0.00    +0.000 C 
ENDROOT
BRANCH   8   9
ATOM      9  C   UNL     1       2.031   3.957  19.938  0.00  0.00    +0.000 A 
ATOM     10  N   UNL     1       1.455   2.726  20.158  0.00  0.00    +0.000 NA
ATOM     11  C   UNL     1       1.562   2.605  21.457  0.00  0.00    +0.000 A 
ATOM     12  O   UNL     1       2.140   3.670  22.062  0.00  0.00    +0.000 OA
ATOM     13  N   UNL     1       2.449   4.580  21.049  0.00  0.00    +0.000 NA
ENDBRANCH   8   9
BRANCH   1  14
ATOM     14  C   UNL     1       1.818   7.467  18.156  0.00  0.00    +0.000 C 
BRANCH  14  19
ATOM     15  C   UNL     1       0.823  10.552  20.144  0.00  0.00    +0.000 A 
ATOM     16  C   UNL     1       0.865  10.068  21.450  0.00  0.00    +0.000 A 
ATOM     17  C   UNL     1       1.251   8.751  21.700  0.00  0.00    +0.000 A 
ATOM     18  C   UNL     1       1.583   7.908  20.640  0.00  0.00    +0.000 A 
ATOM     19  C   UNL     1       1.568   8.389  19.324  0.00  0.00    +0.000 A 
ATOM     20  C   UNL     1       1.218   9.727  19.091  0.00  0.00    +0.000 A 
BRANCH  15  21
ATOM     21  O   UNL     1       0.411  11.847  19.989  0.00  0.00    +0.000 OA
BRANCH  21  23
ATOM     22  C   UNL     1      -0.343  13.362  18.303  0.00  0.00    +0.000 C 
ATOM     23  C   UNL     1       0.820  12.502  18.779  0.00  0.00    +0.000 C 
ATOM     24  C   UNL     1       2.043  13.361  19.081  0.00  0.00    +0.000 C 
ENDBRANCH  21  23
ENDBRANCH  15  21
ENDBRANCH  14  19
ENDBRANCH   1  14
TORSDOF 5
ENDMDL
