MODEL 1
REMARK VINA RESULT:      -8.5      0.000      0.000
REMARK  Name = 
REMARK  8 active torsions:
REMARK  status: ('A' for Active; 'I' for Inactive)
REMARK    1  A    between atoms: C_1  and  C_2
REMARK    2  A    between atoms: C_4  and  C_5
REMARK    3  A    between atoms: C_5  and  O_7
REMARK    4  A    between atoms: O_7  and  C_8
REMARK    5  A    between atoms: C_8  and  C_9
REMARK    6  A    between atoms: C_8  and  C_10
REMARK    7  A    between atoms: C_15  and  C_16
REMARK    8  A    between atoms: C_24  and  C_25
REMARK                            x       y       z     vdW  Elec       q    Type
REMARK                         _______ _______ _______ _____ _____    ______ ____
ROOT
ATOM      1  C   UNL     1       2.510   5.118  19.762  0.00  0.00    +0.000 C 
ATOM      2  O   UNL     1       1.735   5.092  20.718  0.00  0.00    +0.000 OA
ATOM      3  N   UNL     1       2.716   6.191  18.923  0.00  0.00    +0.000 N 
ATOM      4  C   UNL     1       2.143   7.413  19.149  0.00  0.00    +0.000 A 
ATOM      5  N   UNL     1       1.478   7.841  20.187  0.00  0.00    +0.000 NA
ATOM      6  C   UNL     1       1.067   9.150  19.980  0.00  0.00    +0.000 A 
ATOM      7  C   UNL     1       1.417   9.671  18.747  0.00  0.00    +0.000 A 
ATOM      8  S   UNL     1       2.355   8.527  17.873  0.00  0.00    +0.000 S 
ATOM      9  H   UNL     1       3.229   6.091  18.061  0.00  0.00    +0.000 HD
ENDROOT
BRANCH   6  10
ATOM     10  C   UNL     1       0.316   9.873  21.004  0.00  0.00    +0.000 A 
ATOM     11  C   UNL     1      -0.135  11.187  20.807  0.00  0.00    +0.000 A 
ATOM     12  C   UNL     1      -0.822  11.864  21.820  0.00  0.00    +0.000 A 
ATOM     13  C   UNL     1      -1.067  11.235  23.039  0.00  0.00    +0.000 A 
ATOM     14  C   UNL     1      -0.626   9.931  23.248  0.00  0.00    +0.000 A 
ATOM     15  C   UNL     1       0.065   9.256  22.238  0.00  0.00    +0.000 A 
ENDBRANCH   6  10
BRANCH   1  16
ATOM     16  C   UNL     1       3.289   3.846  19.382  0.00  0.00    +0.000 C 
ATOM     17  C   UNL     1       3.218   2.753  20.445  0.00  0.00    +0.000 C 
BRANCH  16  18
ATOM     18  O   UNL     1       4.659   4.202  19.138  0.00  0.00    +0.000 OA
BRANCH  18  19
ATOM     19  C   UNL     1       5.039   4.149  17.822  0.00  0.00    +0.000 C 
ATOM     20  O   UNL     1       4.655   3.294  17.036  0.00  0.00    +0.000 OA
BRANCH  19  24
ATOM     21  C   UNL     1       8.036   8.294  17.681  0.00  0.00    +0.000 C 
ATOM     22  C   UNL     1       7.275   7.047  17.476  0.00  0.00    +0.000 A 
ATOM     23  C   UNL     1       6.361   6.349  18.233  0.00  0.00    +0.000 A 
ATOM     24  C   UNL     1       5.976   5.203  17.471  0.00  0.00    +0.000 A 
ATOM     25  C   UNL     1       6.695   5.294  16.288  0.00  0.00    +0.000 A 
ATOM     26  C   UNL     1       6.796   4.477  15.059  0.00  0.00    +0.000 C 
ATOM     27  O   UNL     1       7.481   6.409  16.294  0.00  0.00    +0.000 OA
ENDBRANCH  19  24
ENDBRANCH  18  19
ENDBRANCH  16  18
ENDBRANCH   1  16
TORSDOF 5
ENDMDL
MODEL 2
REMARK VINA RESULT:      -8.5      1.081      2.189
REMARK  Name = 
REMARK  8 active torsions:
REMARK  status: ('A' for Active; 'I' for Inactive)
REMARK    1  A    between atoms: C_1  and  C_2
REMARK    2  A    between atoms: C_4  and  C_5
REMARK    3  A    between atoms: C_5  and  O_7
REMARK    4  A    between atoms: O_7  and  C_8
REMARK    5  A    between atoms: C_8  and  C_9
REMARK    6  A    between atoms: C_8  and  C_10
REMARK    7  A    between atoms: C_15  and  C_16
REMARK    8  A    between atoms: C_24  and  C_25
REMARK                            x       y       z     vdW  Elec       q    Type
REMARK                         _______ _______ _______ _____ _____    ______ ____
ROOT
ATOM      1  C   UNL     1       2.912   5.491  18.648  0.00  0.00    +0.000 C 
ATOM      2  O   UNL     1       2.240   5.209  19.639  0.00  0.00    +0.000 OA
ATOM      3  N   UNL     1       2.954   6.720  18.027  0.00  0.00    +0.000 N 
ATOM      4  C   UNL     1       2.318   7.817  18.539  0.00  0.00    +0.000 A 
ATOM      5  N   UNL     1       1.728   7.974  19.693  0.00  0.00    +0.000 NA
ATOM      6  C   UNL     1       1.203   9.254  19.788  0.00  0.00    +0.000 A 
ATOM      7  C   UNL     1       1.389  10.033  18.660  0.00  0.00    +0.000 A 
ATOM      8  S   UNL     1       2.319   9.171  17.500  0.00  0.00    +0.000 S 
ATOM      9  H   UNL     1       3.386   6.836  17.123  0.00  0.00    +0.000 HD
ENDROOT
BRANCH   6  10
ATOM     10  C   UNL     1       0.504   9.693  20.993  0.00  0.00    +0.000 A 
ATOM     11  C   UNL     1       0.628   9.013  22.214  0.00  0.00    +0.000 A 
ATOM     12  C   UNL     1      -0.082   9.439  23.342  0.00  0.00    +0.000 A 
ATOM     13  C   UNL     1      -0.921  10.549  23.262  0.00  0.00    +0.000 A 
ATOM     14  C   UNL     1      -1.053  11.233  22.057  0.00  0.00    +0.000 A 
ATOM     15  C   UNL     1      -0.347  10.805  20.929  0.00  0.00    +0.000 A 
ENDBRANCH   6  10
BRANCH   1  16
ATOM     16  C   UNL     1       3.743   4.393  17.957  0.00  0.00    +0.000 C 
ATOM     17  C   UNL     1       2.917   3.175  17.554  0.00  0.00    +0.000 C 
BRANCH  16  18
ATOM     18  O   UNL     1       4.803   3.995  18.841  0.00  0.00    +0.000 OA
BRANCH  18  19
ATOM     19  C   UNL     1       5.916   4.795  18.797  0.00  0.00    +0.000 C 
ATOM     20  O   UNL     1       6.441   5.285  19.787  0.00  0.00    +0.000 OA
BRANCH  19  24
ATOM     21  C   UNL     1       7.035   4.528  13.811  0.00  0.00    +0.000 C 
ATOM     22  C   UNL     1       6.840   4.844  15.239  0.00  0.00    +0.000 A 
ATOM     23  C   UNL     1       6.229   4.194  16.287  0.00  0.00    +0.000 A 
ATOM     24  C   UNL     1       6.382   5.026  17.440  0.00  0.00    +0.000 A 
ATOM     25  C   UNL     1       7.087   6.135  16.997  0.00  0.00    +0.000 A 
ATOM     26  C   UNL     1       7.594   7.373  17.629  0.00  0.00    +0.000 C 
ATOM     27  O   UNL     1       7.362   6.024  15.666  0.00  0.00    +0.000 OA
ENDBRANCH  19  24
ENDBRANCH  18  19
ENDBRANCH  16  18
ENDBRANCH   1  16
TORSDOF 5
ENDMDL
MODEL 3
REMARK VINA RESULT:      -8.5      2.619      8.067
REMARK  Name = 
REMARK  8 active torsions:
REMARK  status: ('A' for Active; 'I' for Inactive)
REMARK    1  A    between atoms: C_1  and  C_2
REMARK    2  A    between atoms: C_4  and  C_5
REMARK    3  A    between atoms: C_5  and  O_7
REMARK    4  A    between atoms: O_7  and  C_8
REMARK    5  A    between atoms: C_8  and  C_9
REMARK    6  A    between atoms: C_8  and  C_10
REMARK    7  A    between atoms: C_15  and  C_16
REMARK    8  A    between atoms: C_24  and  C_25
REMARK                            x       y       z     vdW  Elec       q    Type
REMARK                         _______ _______ _______ _____ _____    ______ ____
ROOT
ATOM      1  C   UNL     1       2.769   3.395  18.194  0.00  0.00    +0.000 C 
ATOM      2  O   UNL     1       2.521   2.928  17.083  0.00  0.00    +0.000 OA
ATOM      3  N   UNL     1       3.958   3.977  18.574  0.00  0.00    +0.000 N 
ATOM      4  C   UNL     1       4.975   4.204  17.687  0.00  0.00    +0.000 A 
ATOM      5  N   UNL     1       4.987   4.085  16.387  0.00  0.00    +0.000 NA
ATOM      6  C   UNL     1       6.242   4.408  15.892  0.00  0.00    +0.000 A 
ATOM      7  C   UNL     1       7.171   4.736  16.863  0.00  0.00    +0.000 A 
ATOM      8  S   UNL     1       6.428   4.728  18.412  0.00  0.00    +0.000 S 
ATOM      9  H   UNL     1       4.157   4.179  19.541  0.00  0.00    +0.000 HD
ENDROOT
BRANCH   6  10
ATOM     10  C   UNL     1       6.517   4.373  14.458  0.00  0.00    +0.000 A 
ATOM     11  C   UNL     1       5.842   3.500  13.592  0.00  0.00    +0.000 A 
ATOM     12  C   UNL     1       6.153   3.467  12.228  0.00  0.00    +0.000 A 
ATOM     13  C   UNL     1       7.140   4.307  11.716  0.00  0.00    +0.000 A 
ATOM     14  C   UNL     1       7.818   5.178  12.564  0.00  0.00    +0.000 A 
ATOM     15  C   UNL     1       7.510   5.208  13.927  0.00  0.00    +0.000 A 
ENDBRANCH   6  10
BRANCH   1  16
ATOM     16  C   UNL     1       1.721   3.282  19.317  0.00  0.00    +0.000 C 
ATOM     17  C   UNL     1       0.589   2.311  18.991  0.00  0.00    +0.000 C 
BRANCH  16  18
ATOM     18  O   UNL     1       1.185   4.589  19.577  0.00  0.00    +0.000 OA
BRANCH  18  19
ATOM     19  C   UNL     1       1.849   5.299  20.544  0.00  0.00    +0.000 C 
ATOM     20  O   UNL     1       2.506   4.782  21.437  0.00  0.00    +0.000 OA
BRANCH  19  24
ATOM     21  C   UNL     1       0.588  10.223  21.126  0.00  0.00    +0.000 C 
ATOM     22  C   UNL     1       1.071   8.887  20.730  0.00  0.00    +0.000 A 
ATOM     23  C   UNL     1       0.980   7.633  21.290  0.00  0.00    +0.000 A 
ATOM     24  C   UNL     1       1.659   6.733  20.409  0.00  0.00    +0.000 A 
ATOM     25  C   UNL     1       2.115   7.522  19.364  0.00  0.00    +0.000 A 
ATOM     26  C   UNL     1       2.878   7.273  18.120  0.00  0.00    +0.000 C 
ATOM     27  O   UNL     1       1.760   8.824  19.561  0.00  0.00    +0.000 OA
ENDBRANCH  19  24
ENDBRANCH  18  19
ENDBRANCH  16  18
ENDBRANCH   1  16
TORSDOF 5
ENDMDL
MODEL 4
REMARK VINA RESULT:      -8.4      1.261      1.702
REMARK  Name = 
REMARK  8 active torsions:
REMARK  status: ('A' for Active; 'I' for Inactive)
REMARK    1  A    between atoms: C_1  and  C_2
REMARK    2  A    between atoms: C_4  and  C_5
REMARK    3  A    between atoms: C_5  and  O_7
REMARK    4  A    between atoms: O_7  and  C_8
REMARK    5  A    between atoms: C_8  and  C_9
REMARK    6  A    between atoms: C_8  and  C_10
REMARK    7  A    between atoms: C_15  and  C_16
REMARK    8  A    between atoms: C_24  and  C_25
REMARK                            x       y       z     vdW  Elec       q    Type
REMARK                         _______ _______ _______ _____ _____    ______ ____
ROOT
ATOM      1  C   UNL     1       3.635   5.420  19.430  0.00  0.00    +0.000 C 
ATOM      2  O   UNL     1       3.055   5.243  20.501  0.00  0.00    +0.000 OA
ATOM      3  N   UNL     1       3.419   6.467  18.562  0.00  0.00    +0.000 N 
ATOM      4  C   UNL     1       2.592   7.512  18.872  0.00  0.00    +0.000 A 
ATOM      5  N   UNL     1       2.012   7.807  20.004  0.00  0.00    +0.000 NA
ATOM      6  C   UNL     1       1.248   8.956  19.861  0.00  0.00    +0.000 A 
ATOM      7  C   UNL     1       1.250   9.487  18.584  0.00  0.00    +0.000 A 
ATOM      8  S   UNL     1       2.301   8.580  17.573  0.00  0.00    +0.000 S 
ATOM      9  H   UNL     1       3.796   6.460  17.627  0.00  0.00    +0.000 HD
ENDROOT
BRANCH   6  10
ATOM     10  C   UNL     1       0.508   9.512  20.991  0.00  0.00    +0.000 A 
ATOM     11  C   UNL     1       0.105   8.721  22.078  0.00  0.00    +0.000 A 
ATOM     12  C   UNL     1      -0.634   9.277  23.128  0.00  0.00    +0.000 A 
ATOM     13  C   UNL     1      -0.976  10.628  23.104  0.00  0.00    +0.000 A 
ATOM     14  C   UNL     1      -0.583  11.424  22.032  0.00  0.00    +0.000 A 
ATOM     15  C   UNL     1       0.151  10.868  20.980  0.00  0.00    +0.000 A 
ENDBRANCH   6  10
BRANCH   1  16
ATOM     16  C   UNL     1       4.647   4.371  18.932  0.00  0.00    +0.000 C 
ATOM     17  C   UNL     1       4.322   2.952  19.391  0.00  0.00    +0.000 C 
BRANCH  16  18
ATOM     18  O   UNL     1       5.957   4.745  19.388  0.00  0.00    +0.000 OA
BRANCH  18  19
ATOM     19  C   UNL     1       6.898   4.859  18.398  0.00  0.00    +0.000 C 
ATOM     20  O   UNL     1       7.477   3.906  17.897  0.00  0.00    +0.000 OA
BRANCH  19  24
ATOM     21  C   UNL     1       8.607   9.667  18.024  0.00  0.00    +0.000 C 
ATOM     22  C   UNL     1       7.955   8.348  17.923  0.00  0.00    +0.000 A 
ATOM     23  C   UNL     1       8.079   7.164  18.615  0.00  0.00    +0.000 A 
ATOM     24  C   UNL     1       7.156   6.242  18.032  0.00  0.00    +0.000 A 
ATOM     25  C   UNL     1       6.530   6.947  17.015  0.00  0.00    +0.000 A 
ATOM     26  C   UNL     1       5.483   6.636  16.016  0.00  0.00    +0.000 C 
ATOM     27  O   UNL     1       7.016   8.219  16.949  0.00  0.00    +0.000 OA
ENDBRANCH  19  24
ENDBRANCH  18  19
ENDBRANCH  16  18
ENDBRANCH   1  16
TORSDOF 5
ENDMDL
MODEL 5
REMARK VINA RESULT:      -8.3      0.959      1.001
REMARK  Name = 
REMARK  8 active torsions:
REMARK  status: ('A' for Active; 'I' for Inactive)
REMARK    1  A    between atoms: C_1  and  C_2
REMARK    2  A    between atoms: C_4  and  C_5
REMARK    3  A    between atoms: C_5  and  O_7
REMARK    4  A    between atoms: O_7  and  C_8
REMARK    5  A    between atoms: C_8  and  C_9
REMARK    6  A    between atoms: C_8  and  C_10
REMARK    7  A    between atoms: C_15  and  C_16
REMARK    8  A    between atoms: C_24  and  C_25
REMARK                            x       y       z     vdW  Elec       q    Type
REMARK                         _______ _______ _______ _____ _____    ______ ____
ROOT
ATOM      1  C   UNL     1       3.098   5.243  19.706  0.00  0.00    +0.000 C 
ATOM      2  O   UNL     1       2.408   5.148  20.721  0.00  0.00    +0.000 OA
ATOM      3  N   UNL     1       3.090   6.302  18.825  0.00  0.00    +0.000 N 
ATOM      4  C   UNL     1       2.372   7.442  19.062  0.00  0.00    +0.000 A 
ATOM      5  N   UNL     1       1.734   7.815  20.138  0.00  0.00    +0.000 NA
ATOM      6  C   UNL     1       1.132   9.047  19.930  0.00  0.00    +0.000 A 
ATOM      7  C   UNL     1       1.312   9.563  18.659  0.00  0.00    +0.000 A 
ATOM      8  S   UNL     1       2.331   8.526  17.744  0.00  0.00    +0.000 S 
ATOM      9  H   UNL     1       3.545   6.240  17.928  0.00  0.00    +0.000 HD
ENDROOT
BRANCH   6  10
ATOM     10  C   UNL     1       0.366   9.698  20.990  0.00  0.00    +0.000 A 
ATOM     11  C   UNL     1      -0.251  10.944  20.803  0.00  0.00    +0.000 A 
ATOM     12  C   UNL     1      -0.948  11.558  21.849  0.00  0.00    +0.000 A 
ATOM     13  C   UNL     1      -1.036  10.933  23.092  0.00  0.00    +0.000 A 
ATOM     14  C   UNL     1      -0.429   9.697  23.291  0.00  0.00    +0.000 A 
ATOM     15  C   UNL     1       0.271   9.085  22.247  0.00  0.00    +0.000 A 
ENDBRANCH   6  10
BRANCH   1  16
ATOM     16  C   UNL     1       4.015   4.075  19.300  0.00  0.00    +0.000 C 
ATOM     17  C   UNL     1       3.853   2.842  20.186  0.00  0.00    +0.000 C 
BRANCH  16  18
ATOM     18  O   UNL     1       5.378   4.527  19.336  0.00  0.00    +0.000 OA
BRANCH  18  19
ATOM     19  C   UNL     1       5.987   4.608  18.110  0.00  0.00    +0.000 C 
ATOM     20  O   UNL     1       6.094   3.665  17.339  0.00  0.00    +0.000 OA
BRANCH  19  24
ATOM     21  C   UNL     1       8.594   9.012  18.118  0.00  0.00    +0.000 C 
ATOM     22  C   UNL     1       7.713   7.849  17.903  0.00  0.00    +0.000 A 
ATOM     23  C   UNL     1       7.567   6.631  18.528  0.00  0.00    +0.000 A 
ATOM     24  C   UNL     1       6.524   5.932  17.843  0.00  0.00    +0.000 A 
ATOM     25  C   UNL     1       6.108   6.794  16.839  0.00  0.00    +0.000 A 
ATOM     26  C   UNL     1       5.086   6.739  15.770  0.00  0.00    +0.000 C 
ATOM     27  O   UNL     1       6.829   7.951  16.876  0.00  0.00    +0.000 OA
ENDBRANCH  19  24
ENDBRANCH  18  19
ENDBRANCH  16  18
ENDBRANCH   1  16
TORSDOF 5
ENDMDL
MODEL 6
REMARK VINA RESULT:      -8.3      1.365      1.949
REMARK  Name = 
REMARK  8 active torsions:
REMARK  status: ('A' for Active; 'I' for Inactive)
REMARK    1  A    between atoms: C_1  and  C_2
REMARK    2  A    between atoms: C_4  and  C_5
REMARK    3  A    between atoms: C_5  and  O_7
REMARK    4  A    between atoms: O_7  and  C_8
REMARK    5  A    between atoms: C_8  and  C_9
REMARK    6  A    between atoms: C_8  and  C_10
REMARK    7  A    between atoms: C_15  and  C_16
REMARK    8  A    between atoms: C_24  and  C_25
REMARK                            x       y       z     vdW  Elec       q    Type
REMARK                         _______ _______ _______ _____ _____    ______ ____
ROOT
ATOM      1  C   UNL     1       2.616   5.881  19.386  0.00  0.00    +0.000 C 
ATOM      2  O   UNL     1       1.872   5.718  20.352  0.00  0.00    +0.000 OA
ATOM      3  N   UNL     1       2.698   7.021  18.617  0.00  0.00    +0.000 N 
ATOM      4  C   UNL     1       2.017   8.164  18.935  0.00  0.00    +0.000 A 
ATOM      5  N   UNL     1       1.340   8.458  20.011  0.00  0.00    +0.000 NA
ATOM      6  C   UNL     1       0.801   9.731  19.900  0.00  0.00    +0.000 A 
ATOM      7  C   UNL     1       1.068  10.362  18.699  0.00  0.00    +0.000 A 
ATOM      8  S   UNL     1       2.089   9.374  17.732  0.00  0.00    +0.000 S 
ATOM      9  H   UNL     1       3.196   7.027  17.740  0.00  0.00    +0.000 HD
ENDROOT
BRANCH   6  10
ATOM     10  C   UNL     1       0.010  10.310  20.984  0.00  0.00    +0.000 A 
ATOM     11  C   UNL     1      -0.593  11.572  20.872  0.00  0.00    +0.000 A 
ATOM     12  C   UNL     1      -1.315  12.113  21.941  0.00  0.00    +0.000 A 
ATOM     13  C   UNL     1      -1.443  11.399  23.131  0.00  0.00    +0.000 A 
ATOM     14  C   UNL     1      -0.851  10.146  23.255  0.00  0.00    +0.000 A 
ATOM     15  C   UNL     1      -0.125   9.606  22.189  0.00  0.00    +0.000 A 
ENDBRANCH   6  10
BRANCH   1  16
ATOM     16  C   UNL     1       3.504   4.717  18.907  0.00  0.00    +0.000 C 
ATOM     17  C   UNL     1       4.616   4.361  19.891  0.00  0.00    +0.000 C 
BRANCH  16  18
ATOM     18  O   UNL     1       4.070   5.066  17.634  0.00  0.00    +0.000 OA
BRANCH  18  19
ATOM     19  C   UNL     1       4.478   3.998  16.877  0.00  0.00    +0.000 C 
ATOM     20  O   UNL     1       3.981   2.883  16.947  0.00  0.00    +0.000 OA
BRANCH  19  24
ATOM     21  C   UNL     1       7.570   5.038  12.934  0.00  0.00    +0.000 C 
ATOM     22  C   UNL     1       6.900   4.780  14.222  0.00  0.00    +0.000 A 
ATOM     23  C   UNL     1       5.612   4.449  14.581  0.00  0.00    +0.000 A 
ATOM     24  C   UNL     1       5.594   4.329  16.006  0.00  0.00    +0.000 A 
ATOM     25  C   UNL     1       6.893   4.599  16.410  0.00  0.00    +0.000 A 
ATOM     26  C   UNL     1       7.593   4.653  17.713  0.00  0.00    +0.000 C 
ATOM     27  O   UNL     1       7.680   4.873  15.331  0.00  0.00    +0.000 OA
ENDBRANCH  19  24
ENDBRANCH  18  19
ENDBRANCH  16  18
ENDBRANCH   1  16
TORSDOF 5
ENDMDL
MODEL 7
REMARK VINA RESULT:      -8.2      3.441      8.752
REMARK  Name = 
REMARK  8 active torsions:
REMARK  status: ('A' for Active; 'I' for Inactive)
REMARK    1  A    between atoms: C_1  and  C_2
REMARK    2  A    between atoms: C_4  and  C_5
REMARK    3  A    between atoms: C_5  and  O_7
REMARK    4  A    between atoms: O_7  and  C_8
REMARK    5  A    between atoms: C_8  and  C_9
REMARK    6  A    between atoms: C_8  and  C_10
REMARK    7  A    between atoms: C_15  and  C_16
REMARK    8  A    between atoms: C_24  and  C_25
REMARK                            x       y       z     vdW  Elec       q    Type
REMARK                         _______ _______ _______ _____ _____    ______ ____
ROOT
ATOM      1  C   UNL     1       1.636   8.426  20.009  0.00  0.00    +0.000 C 
ATOM      2  O   UNL     1       2.122   8.744  18.924  0.00  0.00    +0.000 OA
ATOM      3  N   UNL     1       1.729   7.184  20.598  0.00  0.00    +0.000 N 
ATOM      4  C   UNL     1       2.497   6.182  20.071  0.00  0.00    +0.000 A 
ATOM      5  N   UNL     1       3.353   6.221  19.086  0.00  0.00    +0.000 NA
ATOM      6  C   UNL     1       3.897   4.961  18.880  0.00  0.00    +0.000 A 
ATOM      7  C   UNL     1       3.396   3.980  19.716  0.00  0.00    +0.000 A 
ATOM      8  S   UNL     1       2.292   4.671  20.838  0.00  0.00    +0.000 S 
ATOM      9  H   UNL     1       1.164   6.940  21.397  0.00  0.00    +0.000 HD
ENDROOT
BRANCH   6  10
ATOM     10  C   UNL     1       4.901   4.736  17.843  0.00  0.00    +0.000 A 
ATOM     11  C   UNL     1       4.549   4.373  16.535  0.00  0.00    +0.000 A 
ATOM     12  C   UNL     1       5.537   4.130  15.574  0.00  0.00    +0.000 A 
ATOM     13  C   UNL     1       6.884   4.248  15.910  0.00  0.00    +0.000 A 
ATOM     14  C   UNL     1       7.246   4.608  17.205  0.00  0.00    +0.000 A 
ATOM     15  C   UNL     1       6.261   4.847  18.166  0.00  0.00    +0.000 A 
ENDBRANCH   6  10
BRANCH   1  16
ATOM     16  C   UNL     1       0.777   9.443  20.784  0.00  0.00    +0.000 C 
ATOM     17  C   UNL     1       0.631   9.104  22.265  0.00  0.00    +0.000 C 
BRANCH  16  18
ATOM     18  O   UNL     1      -0.518   9.514  20.167  0.00  0.00    +0.000 OA
BRANCH  18  19
ATOM     19  C   UNL     1      -0.888  10.769  19.758  0.00  0.00    +0.000 C 
ATOM     20  O   UNL     1      -0.573  11.797  20.341  0.00  0.00    +0.000 OA
BRANCH  19  24
ATOM     21  C   UNL     1      -2.943   9.986  15.137  0.00  0.00    +0.000 C 
ATOM     22  C   UNL     1      -2.576  10.354  16.517  0.00  0.00    +0.000 A 
ATOM     23  C   UNL     1      -1.491  10.088  17.322  0.00  0.00    +0.000 A 
ATOM     24  C   UNL     1      -1.728  10.741  18.572  0.00  0.00    +0.000 A 
ATOM     25  C   UNL     1      -2.958  11.365  18.428  0.00  0.00    +0.000 A 
ATOM     26  C   UNL     1      -3.812  12.207  19.296  0.00  0.00    +0.000 C 
ATOM     27  O   UNL     1      -3.470  11.129  17.186  0.00  0.00    +0.000 OA
ENDBRANCH  19  24
ENDBRANCH  18  19
ENDBRANCH  16  18
ENDBRANCH   1  16
TORSDOF 5
ENDMDL
MODEL 8
REMARK VINA RESULT:      -8.0      4.155      9.315
REMARK  Name = 
REMARK  8 active torsions:
REMARK  status: ('A' for Active; 'I' for Inactive)
REMARK    1  A    between atoms: C_1  and  C_2
REMARK    2  A    between atoms: C_4  and  C_5
REMARK    3  A    between atoms: C_5  and  O_7
REMARK    4  A    between atoms: O_7  and  C_8
REMARK    5  A    between atoms: C_8  and  C_9
REMARK    6  A    between atoms: C_8  and  C_10
REMARK    7  A    between atoms: C_15  and  C_16
REMARK    8  A    between atoms: C_24  and  C_25
REMARK                            x       y       z     vdW  Elec       q    Type
REMARK                         _______ _______ _______ _____ _____    ______ ____
ROOT
ATOM      1  C   UNL     1       1.342   9.337  18.533  0.00  0.00    +0.000 C 
ATOM      2  O   UNL     1       1.843   9.408  17.411  0.00  0.00    +0.000 OA
ATOM      3  N   UNL     1       1.492   8.289  19.415  0.00  0.00    +0.000 N 
ATOM      4  C   UNL     1       2.335   7.241  19.165  0.00  0.00    +0.000 A 
ATOM      5  N   UNL     1       3.218   7.091  18.216  0.00  0.00    +0.000 NA
ATOM      6  C   UNL     1       3.843   5.859  18.339  0.00  0.00    +0.000 A 
ATOM      7  C   UNL     1       3.376   5.084  19.385  0.00  0.00    +0.000 A 
ATOM      8  S   UNL     1       2.198   5.956  20.281  0.00  0.00    +0.000 S 
ATOM      9  H   UNL     1       0.918   8.213  20.240  0.00  0.00    +0.000 HD
ENDROOT
BRANCH   6  10
ATOM     10  C   UNL     1       4.892   5.451  17.407  0.00  0.00    +0.000 A 
ATOM     11  C   UNL     1       4.764   4.315  16.595  0.00  0.00    +0.000 A 
ATOM     12  C   UNL     1       5.801   3.931  15.738  0.00  0.00    +0.000 A 
ATOM     13  C   UNL     1       6.975   4.680  15.682  0.00  0.00    +0.000 A 
ATOM     14  C   UNL     1       7.115   5.810  16.482  0.00  0.00    +0.000 A 
ATOM     15  C   UNL     1       6.081   6.191  17.342  0.00  0.00    +0.000 A 
ENDBRANCH   6  10
BRANCH   1  16
ATOM     16  C   UNL     1       0.400  10.455  19.017  0.00  0.00    +0.000 C 
ATOM     17  C   UNL     1       0.054  10.353  20.500  0.00  0.00    +0.000 C 
BRANCH  16  18
ATOM     18  O   UNL     1      -0.801  10.415  18.230  0.00  0.00    +0.000 OA
BRANCH  18  19
ATOM     19  C   UNL     1      -1.435  11.622  18.090  0.00  0.00    +0.000 C 
ATOM     20  O   UNL     1      -0.880  12.703  18.232  0.00  0.00    +0.000 OA
BRANCH  19  24
ATOM     21  C   UNL     1      -6.549  11.487  18.171  0.00  0.00    +0.000 C 
ATOM     22  C   UNL     1      -5.102  11.441  17.892  0.00  0.00    +0.000 A 
ATOM     23  C   UNL     1      -3.975  11.725  18.631  0.00  0.00    +0.000 A 
ATOM     24  C   UNL     1      -2.849  11.476  17.787  0.00  0.00    +0.000 A 
ATOM     25  C   UNL     1      -3.385  11.050  16.581  0.00  0.00    +0.000 A 
ATOM     26  C   UNL     1      -2.825  10.624  15.279  0.00  0.00    +0.000 C 
ATOM     27  O   UNL     1      -4.747  11.032  16.646  0.00  0.00    +0.000 OA
ENDBRANCH  19  24
ENDBRANCH  18  19
ENDBRANCH  16  18
ENDBRANCH   1  16
TORSDOF 5
ENDMDL
MODEL 9
REMARK VINA RESULT:      -8.0      1.336      2.174
REMARK  Name = 
REMARK  8 active torsions:
REMARK  status: ('A' for Active; 'I' for Inactive)
REMARK    1  A    between atoms: C_1  and  C_2
REMARK    2  A    between atoms: C_4  and  C_5
REMARK    3  A    between atoms: C_5  and  O_7
REMARK    4  A    between atoms: O_7  and  C_8
REMARK    5  A    between atoms: C_8  and  C_9
REMARK    6  A    between atoms: C_8  and  C_10
REMARK    7  A    between atoms: C_15  and  C_16
REMARK    8  A    between atoms: C_24  and  C_25
REMARK                            x       y       z     vdW  Elec       q    Type
REMARK                         _______ _______ _______ _____ _____    ______ ____
ROOT
ATOM      1  C   UNL     1       2.253   6.317  19.301  0.00  0.00    +0.000 C 
ATOM      2  O   UNL     1       1.477   6.147  20.240  0.00  0.00    +0.000 OA
ATOM      3  N   UNL     1       2.416   7.488  18.594  0.00  0.00    +0.000 N 
ATOM      4  C   UNL     1       1.792   8.651  18.956  0.00  0.00    +0.000 A 
ATOM      5  N   UNL     1       1.105   8.926  20.031  0.00  0.00    +0.000 NA
ATOM      6  C   UNL     1       0.640  10.232  19.976  0.00  0.00    +0.000 A 
ATOM      7  C   UNL     1       0.971  10.907  18.814  0.00  0.00    +0.000 A 
ATOM      8  S   UNL     1       1.959   9.914  17.820  0.00  0.00    +0.000 S 
ATOM      9  H   UNL     1       2.935   7.511  17.730  0.00  0.00    +0.000 HD
ENDROOT
BRANCH   6  10
ATOM     10  C   UNL     1      -0.144  10.798  21.070  0.00  0.00    +0.000 A 
ATOM     11  C   UNL     1      -0.356  10.104  22.271  0.00  0.00    +0.000 A 
ATOM     12  C   UNL     1      -1.141  10.660  23.286  0.00  0.00    +0.000 A 
ATOM     13  C   UNL     1      -1.722  11.915  23.114  0.00  0.00    +0.000 A 
ATOM     14  C   UNL     1      -1.520  12.615  21.928  0.00  0.00    +0.000 A 
ATOM     15  C   UNL     1      -0.739  12.058  20.911  0.00  0.00    +0.000 A 
ENDBRANCH   6  10
BRANCH   1  16
ATOM     16  C   UNL     1       3.087   5.131  18.781  0.00  0.00    +0.000 C 
ATOM     17  C   UNL     1       2.343   3.800  18.836  0.00  0.00    +0.000 C 
BRANCH  16  18
ATOM     18  O   UNL     1       4.297   5.048  19.550  0.00  0.00    +0.000 OA
BRANCH  18  19
ATOM     19  C   UNL     1       5.174   4.079  19.136  0.00  0.00    +0.000 C 
ATOM     20  O   UNL     1       5.330   3.012  19.712  0.00  0.00    +0.000 OA
BRANCH  19  24
ATOM     21  C   UNL     1       6.978   4.810  14.404  0.00  0.00    +0.000 C 
ATOM     22  C   UNL     1       6.664   4.758  15.844  0.00  0.00    +0.000 A 
ATOM     23  C   UNL     1       5.681   4.144  16.588  0.00  0.00    +0.000 A 
ATOM     24  C   UNL     1       5.924   4.476  17.957  0.00  0.00    +0.000 A 
ATOM     25  C   UNL     1       7.055   5.278  17.941  0.00  0.00    +0.000 A 
ATOM     26  C   UNL     1       7.863   5.969  18.971  0.00  0.00    +0.000 C 
ATOM     27  O   UNL     1       7.500   5.449  16.663  0.00  0.00    +0.000 OA
ENDBRANCH  19  24
ENDBRANCH  18  19
ENDBRANCH  16  18
ENDBRANCH   1  16
TORSDOF 5
ENDMDL
