MODEL 1
REMARK VINA RESULT:      -7.5      0.000      0.000
REMARK  Name = 
REMARK  11 active torsions:
REMARK  status: ('A' for Active; 'I' for Inactive)
REMARK    1  A    between atoms: C_1  and  C_2
REMARK    2  A    between atoms: C_2  and  O_3
REMARK    3  A    between atoms: O_3  and  C_4
REMARK    4  A    between atoms: C_4  and  C_6
REMARK    5  A    between atoms: C_9  and  N_10
REMARK    6  A    between atoms: C_11  and  C_13
REMARK    7  A    between atoms: C_17  and  C_18
REMARK    8  A    between atoms: N_20  and  C_21
REMARK    9  A    between atoms: C_21  and  C_22
REMARK   10  A    between atoms: C_22  and  C_23
REMARK   11  A    between atoms: C_22  and  O_24
REMARK                            x       y       z     vdW  Elec       q    Type
REMARK                         _______ _______ _______ _____ _____    ______ ____
ROOT
ATOM      1  N   UNL     1       2.785   6.161  19.749  0.00  0.00    +0.000 N 
ATOM      2  C   UNL     1       2.478   4.974  19.094  0.00  0.00    +0.000 C 
ATOM      3  O   UNL     1       1.642   4.859  18.208  0.00  0.00    +0.000 OA
ATOM      4  H   UNL     1       3.456   6.126  20.503  0.00  0.00    +0.000 HD
ENDROOT
BRANCH   1   8
ATOM      5  C   UNL     1       1.171  10.005  19.049  0.00  0.00    +0.000 A 
ATOM      6  C   UNL     1       1.884   9.355  18.037  0.00  0.00    +0.000 A 
ATOM      7  C   UNL     1       2.409   8.084  18.250  0.00  0.00    +0.000 A 
ATOM      8  C   UNL     1       2.235   7.434  19.473  0.00  0.00    +0.000 A 
ATOM      9  C   UNL     1       1.491   8.072  20.475  0.00  0.00    +0.000 A 
ATOM     10  C   UNL     1       0.957   9.357  20.265  0.00  0.00    +0.000 A 
BRANCH   5  11
ATOM     11  C   UNL     1       0.572  11.338  18.791  0.00  0.00    +0.000 C 
ATOM     12  O   UNL     1       1.211  12.330  18.491  0.00  0.00    +0.000 OA
BRANCH  11  13
ATOM     13  O   UNL     1      -0.760  11.262  19.031  0.00  0.00    +0.000 OA
BRANCH  13  15
ATOM     14  C   UNL     1      -2.231  11.094  17.166  0.00  0.00    +0.000 C 
ATOM     15  C   UNL     1      -1.605  12.039  18.178  0.00  0.00    +0.000 C 
ENDBRANCH  13  15
ENDBRANCH  11  13
ENDBRANCH   5  11
ENDBRANCH   1   8
BRANCH   2  16
ATOM     16  C   UNL     1       3.304   3.855  19.475  0.00  0.00    +0.000 A 
ATOM     17  N   UNL     1       2.918   2.766  20.223  0.00  0.00    +0.000 N 
ATOM     18  C   UNL     1       4.030   2.027  20.507  0.00  0.00    +0.000 A 
ATOM     19  N   UNL     1       5.112   2.568  20.002  0.00  0.00    +0.000 NA
ATOM     20  C   UNL     1       4.676   3.701  19.325  0.00  0.00    +0.000 A 
ATOM     21  H   UNL     1       1.992   2.590  20.585  0.00  0.00    +0.000 HD
BRANCH  20  22
ATOM     22  C   UNL     1       5.589   4.572  18.583  0.00  0.00    +0.000 C 
ATOM     23  O   UNL     1       5.729   5.766  18.820  0.00  0.00    +0.000 OA
ATOM     24  N   UNL     1       6.219   3.931  17.538  0.00  0.00    +0.000 N 
ATOM     25  H   UNL     1       5.967   2.959  17.385  0.00  0.00    +0.000 HD
BRANCH  24  26
ATOM     26  C   UNL     1       7.209   4.582  16.697  0.00  0.00    +0.000 C 
BRANCH  26  27
ATOM     27  C   UNL     1       6.731   4.829  15.254  0.00  0.00    +0.000 C 
ATOM     28  C   UNL     1       5.484   5.699  15.188  0.00  0.00    +0.000 C 
BRANCH  27  29
ATOM     29  O   UNL     1       7.740   5.433  14.450  0.00  0.00    +0.000 OA
ATOM     30  H   UNL     1       7.322   6.161  13.953  0.00  0.00    +0.000 HD
ENDBRANCH  27  29
ENDBRANCH  26  27
ENDBRANCH  24  26
ENDBRANCH  20  22
ENDBRANCH   2  16
TORSDOF 9
ENDMDL
MODEL 2
REMARK VINA RESULT:      -7.5      1.266      1.376
REMARK  Name = 
REMARK  11 active torsions:
REMARK  status: ('A' for Active; 'I' for Inactive)
REMARK    1  A    between atoms: C_1  and  C_2
REMARK    2  A    between atoms: C_2  and  O_3
REMARK    3  A    between atoms: O_3  and  C_4
REMARK    4  A    between atoms: C_4  and  C_6
REMARK    5  A    between atoms: C_9  and  N_10
REMARK    6  A    between atoms: C_11  and  C_13
REMARK    7  A    between atoms: C_17  and  C_18
REMARK    8  A    between atoms: N_20  and  C_21
REMARK    9  A    between atoms: C_21  and  C_22
REMARK   10  A    between atoms: C_22  and  C_23
REMARK   11  A    between atoms: C_22  and  O_24
REMARK                            x       y       z     vdW  Elec       q    Type
REMARK                         _______ _______ _______ _____ _____    ______ ____
ROOT
ATOM      1  N   UNL     1       2.920   5.918  19.889  0.00  0.00    +0.000 N 
ATOM      2  C   UNL     1       2.283   4.686  19.984  0.00  0.00    +0.000 C 
ATOM      3  O   UNL     1       1.076   4.511  19.878  0.00  0.00    +0.000 OA
ATOM      4  H   UNL     1       3.917   5.949  20.047  0.00  0.00    +0.000 HD
ENDROOT
BRANCH   1   8
ATOM      5  C   UNL     1       1.112   9.667  19.152  0.00  0.00    +0.000 A 
ATOM      6  C   UNL     1       1.776   9.000  18.119  0.00  0.00    +0.000 A 
ATOM      7  C   UNL     1       2.364   7.759  18.345  0.00  0.00    +0.000 A 
ATOM      8  C   UNL     1       2.302   7.157  19.602  0.00  0.00    +0.000 A 
ATOM      9  C   UNL     1       1.607   7.811  20.628  0.00  0.00    +0.000 A 
ATOM     10  C   UNL     1       1.010   9.065  20.406  0.00  0.00    +0.000 A 
BRANCH   5  11
ATOM     11  C   UNL     1       0.445  10.965  18.884  0.00  0.00    +0.000 C 
ATOM     12  O   UNL     1       1.035  11.998  18.621  0.00  0.00    +0.000 OA
BRANCH  11  13
ATOM     13  O   UNL     1      -0.888  10.808  19.071  0.00  0.00    +0.000 OA
BRANCH  13  15
ATOM     14  C   UNL     1      -1.903   9.931  17.102  0.00  0.00    +0.000 C 
ATOM     15  C   UNL     1      -1.731  11.166  17.971  0.00  0.00    +0.000 C 
ENDBRANCH  13  15
ENDBRANCH  11  13
ENDBRANCH   5  11
ENDBRANCH   1   8
BRANCH   2  16
ATOM     16  C   UNL     1       3.178   3.564  20.132  0.00  0.00    +0.000 A 
ATOM     17  N   UNL     1       3.094   2.564  21.073  0.00  0.00    +0.000 N 
ATOM     18  C   UNL     1       4.221   1.799  20.986  0.00  0.00    +0.000 A 
ATOM     19  N   UNL     1       5.035   2.241  20.057  0.00  0.00    +0.000 NA
ATOM     20  C   UNL     1       4.387   3.332  19.488  0.00  0.00    +0.000 A 
ATOM     21  H   UNL     1       2.374   2.466  21.774  0.00  0.00    +0.000 HD
BRANCH  20  22
ATOM     22  C   UNL     1       4.958   4.090  18.374  0.00  0.00    +0.000 C 
ATOM     23  O   UNL     1       4.322   4.408  17.375  0.00  0.00    +0.000 OA
ATOM     24  N   UNL     1       6.304   4.345  18.526  0.00  0.00    +0.000 N 
ATOM     25  H   UNL     1       6.745   3.966  19.357  0.00  0.00    +0.000 HD
BRANCH  24  26
ATOM     26  C   UNL     1       7.069   5.129  17.571  0.00  0.00    +0.000 C 
BRANCH  26  27
ATOM     27  C   UNL     1       6.597   6.589  17.448  0.00  0.00    +0.000 C 
ATOM     28  C   UNL     1       7.735   7.589  17.588  0.00  0.00    +0.000 C 
BRANCH  27  29
ATOM     29  O   UNL     1       5.935   6.837  16.210  0.00  0.00    +0.000 OA
ATOM     30  H   UNL     1       5.882   7.804  16.096  0.00  0.00    +0.000 HD
ENDBRANCH  27  29
ENDBRANCH  26  27
ENDBRANCH  24  26
ENDBRANCH  20  22
ENDBRANCH   2  16
TORSDOF 9
ENDMDL
MODEL 3
REMARK VINA RESULT:      -7.4      0.859      1.422
REMARK  Name = 
REMARK  11 active torsions:
REMARK  status: ('A' for Active; 'I' for Inactive)
REMARK    1  A    between atoms: C_1  and  C_2
REMARK    2  A    between atoms: C_2  and  O_3
REMARK    3  A    between atoms: O_3  and  C_4
REMARK    4  A    between atoms: C_4  and  C_6
REMARK    5  A    between atoms: C_9  and  N_10
REMARK    6  A    between atoms: C_11  and  C_13
REMARK    7  A    between atoms: C_17  and  C_18
REMARK    8  A    between atoms: N_20  and  C_21
REMARK    9  A    between atoms: C_21  and  C_22
REMARK   10  A    between atoms: C_22  and  C_23
REMARK   11  A    between atoms: C_22  and  O_24
REMARK                            x       y       z     vdW  Elec       q    Type
REMARK                         _______ _______ _______ _____ _____    ______ ____
ROOT
ATOM      1  N   UNL     1       2.766   6.150  19.779  0.00  0.00    +0.000 N 
ATOM      2  C   UNL     1       2.455   4.972  19.109  0.00  0.00    +0.000 C 
ATOM      3  O   UNL     1       1.598   4.864  18.242  0.00  0.00    +0.000 OA
ATOM      4  H   UNL     1       3.456   6.107  20.515  0.00  0.00    +0.000 HD
ENDROOT
BRANCH   1   8
ATOM      5  C   UNL     1       1.094   9.987  19.192  0.00  0.00    +0.000 A 
ATOM      6  C   UNL     1       1.790   9.365  18.152  0.00  0.00    +0.000 A 
ATOM      7  C   UNL     1       2.334   8.096  18.327  0.00  0.00    +0.000 A 
ATOM      8  C   UNL     1       2.195   7.421  19.541  0.00  0.00    +0.000 A 
ATOM      9  C   UNL     1       1.469   8.031  20.572  0.00  0.00    +0.000 A 
ATOM     10  C   UNL     1       0.916   9.313  20.400  0.00  0.00    +0.000 A 
BRANCH   5  11
ATOM     11  C   UNL     1       0.475  11.318  18.975  0.00  0.00    +0.000 C 
ATOM     12  O   UNL     1      -0.537  11.505  18.324  0.00  0.00    +0.000 OA
BRANCH  11  13
ATOM     13  O   UNL     1       1.271  12.258  19.541  0.00  0.00    +0.000 OA
BRANCH  13  15
ATOM     14  C   UNL     1       2.614  13.627  18.129  0.00  0.00    +0.000 C 
ATOM     15  C   UNL     1       1.306  13.534  18.896  0.00  0.00    +0.000 C 
ENDBRANCH  13  15
ENDBRANCH  11  13
ENDBRANCH   5  11
ENDBRANCH   1   8
BRANCH   2  16
ATOM     16  C   UNL     1       3.302   3.854  19.448  0.00  0.00    +0.000 A 
ATOM     17  N   UNL     1       2.944   2.741  20.173  0.00  0.00    +0.000 N 
ATOM     18  C   UNL     1       4.069   2.011  20.421  0.00  0.00    +0.000 A 
ATOM     19  N   UNL     1       5.136   2.580  19.912  0.00  0.00    +0.000 NA
ATOM     20  C   UNL     1       4.674   3.724  19.272  0.00  0.00    +0.000 A 
ATOM     21  H   UNL     1       2.026   2.544  20.545  0.00  0.00    +0.000 HD
BRANCH  20  22
ATOM     22  C   UNL     1       5.562   4.626  18.538  0.00  0.00    +0.000 C 
ATOM     23  O   UNL     1       5.637   5.830  18.756  0.00  0.00    +0.000 OA
ATOM     24  N   UNL     1       6.253   3.999  17.523  0.00  0.00    +0.000 N 
ATOM     25  H   UNL     1       6.054   3.013  17.383  0.00  0.00    +0.000 HD
BRANCH  24  26
ATOM     26  C   UNL     1       7.232   4.683  16.697  0.00  0.00    +0.000 C 
BRANCH  26  27
ATOM     27  C   UNL     1       6.966   4.556  15.186  0.00  0.00    +0.000 C 
ATOM     28  C   UNL     1       5.502   4.763  14.827  0.00  0.00    +0.000 C 
BRANCH  27  29
ATOM     29  O   UNL     1       7.747   5.474  14.424  0.00  0.00    +0.000 OA
ATOM     30  H   UNL     1       8.684   5.304  14.635  0.00  0.00    +0.000 HD
ENDBRANCH  27  29
ENDBRANCH  26  27
ENDBRANCH  24  26
ENDBRANCH  20  22
ENDBRANCH   2  16
TORSDOF 9
ENDMDL
MODEL 4
REMARK VINA RESULT:      -7.3      1.149      1.586
REMARK  Name = 
REMARK  11 active torsions:
REMARK  status: ('A' for Active; 'I' for Inactive)
REMARK    1  A    between atoms: C_1  and  C_2
REMARK    2  A    between atoms: C_2  and  O_3
REMARK    3  A    between atoms: O_3  and  C_4
REMARK    4  A    between atoms: C_4  and  C_6
REMARK    5  A    between atoms: C_9  and  N_10
REMARK    6  A    between atoms: C_11  and  C_13
REMARK    7  A    between atoms: C_17  and  C_18
REMARK    8  A    between atoms: N_20  and  C_21
REMARK    9  A    between atoms: C_21  and  C_22
REMARK   10  A    between atoms: C_22  and  C_23
REMARK   11  A    between atoms: C_22  and  O_24
REMARK                            x       y       z     vdW  Elec       q    Type
REMARK                         _______ _______ _______ _____ _____    ______ ____
ROOT
ATOM      1  N   UNL     1       2.718   5.943  20.090  0.00  0.00    +0.000 N 
ATOM      2  C   UNL     1       2.387   4.756  19.446  0.00  0.00    +0.000 C 
ATOM      3  O   UNL     1       1.536   4.647  18.573  0.00  0.00    +0.000 OA
ATOM      4  H   UNL     1       3.400   5.903  20.834  0.00  0.00    +0.000 HD
ENDROOT
BRANCH   1   8
ATOM      5  C   UNL     1       1.076   9.721  19.144  0.00  0.00    +0.000 A 
ATOM      6  C   UNL     1       0.892   9.183  20.421  0.00  0.00    +0.000 A 
ATOM      7  C   UNL     1       1.439   7.946  20.750  0.00  0.00    +0.000 A 
ATOM      8  C   UNL     1       2.180   7.220  19.815  0.00  0.00    +0.000 A 
ATOM      9  C   UNL     1       2.392   7.776  18.547  0.00  0.00    +0.000 A 
ATOM     10  C   UNL     1       1.843   9.026  18.209  0.00  0.00    +0.000 A 
BRANCH   5  11
ATOM     11  C   UNL     1       0.532  11.063  18.824  0.00  0.00    +0.000 C 
ATOM     12  O   UNL     1       1.216  12.038  18.571  0.00  0.00    +0.000 OA
BRANCH  11  13
ATOM     13  O   UNL     1      -0.817  11.019  18.951  0.00  0.00    +0.000 OA
BRANCH  13  15
ATOM     14  C   UNL     1      -2.855  11.259  17.742  0.00  0.00    +0.000 C 
ATOM     15  C   UNL     1      -1.544  10.496  17.835  0.00  0.00    +0.000 C 
ENDBRANCH  13  15
ENDBRANCH  11  13
ENDBRANCH   5  11
ENDBRANCH   1   8
BRANCH   2  16
ATOM     16  C   UNL     1       3.204   3.628  19.821  0.00  0.00    +0.000 A 
ATOM     17  N   UNL     1       2.950   2.727  20.830  0.00  0.00    +0.000 N 
ATOM     18  C   UNL     1       4.044   1.925  20.973  0.00  0.00    +0.000 A 
ATOM     19  N   UNL     1       4.995   2.249  20.131  0.00  0.00    +0.000 NA
ATOM     20  C   UNL     1       4.479   3.298  19.378  0.00  0.00    +0.000 A 
ATOM     21  H   UNL     1       2.137   2.720  21.430  0.00  0.00    +0.000 HD
BRANCH  20  22
ATOM     22  C   UNL     1       5.228   3.926  18.289  0.00  0.00    +0.000 C 
ATOM     23  O   UNL     1       4.829   3.974  17.131  0.00  0.00    +0.000 OA
ATOM     24  N   UNL     1       6.465   4.391  18.681  0.00  0.00    +0.000 N 
ATOM     25  H   UNL     1       6.724   4.227  19.649  0.00  0.00    +0.000 HD
BRANCH  24  26
ATOM     26  C   UNL     1       7.361   5.099  17.783  0.00  0.00    +0.000 C 
BRANCH  26  27
ATOM     27  C   UNL     1       6.805   6.447  17.288  0.00  0.00    +0.000 C 
ATOM     28  C   UNL     1       7.744   7.610  17.573  0.00  0.00    +0.000 C 
BRANCH  27  29
ATOM     29  O   UNL     1       6.525   6.432  15.891  0.00  0.00    +0.000 OA
ATOM     30  H   UNL     1       6.462   5.498  15.616  0.00  0.00    +0.000 HD
ENDBRANCH  27  29
ENDBRANCH  26  27
ENDBRANCH  24  26
ENDBRANCH  20  22
ENDBRANCH   2  16
TORSDOF 9
ENDMDL
MODEL 5
REMARK VINA RESULT:      -7.3      0.862      1.333
REMARK  Name = 
REMARK  11 active torsions:
REMARK  status: ('A' for Active; 'I' for Inactive)
REMARK    1  A    between atoms: C_1  and  C_2
REMARK    2  A    between atoms: C_2  and  O_3
REMARK    3  A    between atoms: O_3  and  C_4
REMARK    4  A    between atoms: C_4  and  C_6
REMARK    5  A    between atoms: C_9  and  N_10
REMARK    6  A    between atoms: C_11  and  C_13
REMARK    7  A    between atoms: C_17  and  C_18
REMARK    8  A    between atoms: N_20  and  C_21
REMARK    9  A    between atoms: C_21  and  C_22
REMARK   10  A    between atoms: C_22  and  C_23
REMARK   11  A    between atoms: C_22  and  O_24
REMARK                            x       y       z     vdW  Elec       q    Type
REMARK                         _______ _______ _______ _____ _____    ______ ____
ROOT
ATOM      1  N   UNL     1       2.740   6.160  20.125  0.00  0.00    +0.000 N 
ATOM      2  C   UNL     1       2.251   4.909  19.766  0.00  0.00    +0.000 C 
ATOM      3  O   UNL     1       1.115   4.689  19.366  0.00  0.00    +0.000 OA
ATOM      4  H   UNL     1       3.679   6.213  20.494  0.00  0.00    +0.000 HD
ENDROOT
BRANCH   1   8
ATOM      5  C   UNL     1       0.615   9.793  19.742  0.00  0.00    +0.000 A 
ATOM      6  C   UNL     1       0.581   9.092  20.950  0.00  0.00    +0.000 A 
ATOM      7  C   UNL     1       1.287   7.902  21.094  0.00  0.00    +0.000 A 
ATOM      8  C   UNL     1       2.041   7.385  20.039  0.00  0.00    +0.000 A 
ATOM      9  C   UNL     1       2.101   8.106  18.839  0.00  0.00    +0.000 A 
ATOM     10  C   UNL     1       1.390   9.311  18.688  0.00  0.00    +0.000 A 
BRANCH   5  11
ATOM     11  C   UNL     1      -0.101  11.087  19.619  0.00  0.00    +0.000 C 
ATOM     12  O   UNL     1      -0.374  11.812  20.558  0.00  0.00    +0.000 OA
BRANCH  11  13
ATOM     13  O   UNL     1      -0.457  11.258  18.322  0.00  0.00    +0.000 OA
BRANCH  13  15
ATOM     14  C   UNL     1      -2.078   9.940  17.177  0.00  0.00    +0.000 C 
ATOM     15  C   UNL     1      -1.856  11.178  18.031  0.00  0.00    +0.000 C 
ENDBRANCH  13  15
ENDBRANCH  11  13
ENDBRANCH   5  11
ENDBRANCH   1   8
BRANCH   2  16
ATOM     16  C   UNL     1       3.233   3.852  19.810  0.00  0.00    +0.000 A 
ATOM     17  N   UNL     1       3.202   2.735  20.612  0.00  0.00    +0.000 N 
ATOM     18  C   UNL     1       4.392   2.080  20.479  0.00  0.00    +0.000 A 
ATOM     19  N   UNL     1       5.196   2.703  19.650  0.00  0.00    +0.000 NA
ATOM     20  C   UNL     1       4.478   3.803  19.196  0.00  0.00    +0.000 A 
ATOM     21  H   UNL     1       2.470   2.489  21.263  0.00  0.00    +0.000 HD
BRANCH  20  22
ATOM     22  C   UNL     1       5.019   4.742  18.214  0.00  0.00    +0.000 C 
ATOM     23  O   UNL     1       4.434   5.757  17.852  0.00  0.00    +0.000 OA
ATOM     24  N   UNL     1       6.221   4.332  17.677  0.00  0.00    +0.000 N 
ATOM     25  H   UNL     1       6.575   3.435  17.994  0.00  0.00    +0.000 HD
BRANCH  24  26
ATOM     26  C   UNL     1       6.971   5.131  16.723  0.00  0.00    +0.000 C 
BRANCH  26  27
ATOM     27  C   UNL     1       6.972   4.553  15.296  0.00  0.00    +0.000 C 
ATOM     28  C   UNL     1       5.573   4.425  14.711  0.00  0.00    +0.000 C 
BRANCH  27  29
ATOM     29  O   UNL     1       7.761   5.333  14.401  0.00  0.00    +0.000 OA
ATOM     30  H   UNL     1       7.754   4.882  13.536  0.00  0.00    +0.000 HD
ENDBRANCH  27  29
ENDBRANCH  26  27
ENDBRANCH  24  26
ENDBRANCH  20  22
ENDBRANCH   2  16
TORSDOF 9
ENDMDL
MODEL 6
REMARK VINA RESULT:      -7.3      1.379      2.170
REMARK  Name = 
REMARK  11 active torsions:
REMARK  status: ('A' for Active; 'I' for Inactive)
REMARK    1  A    between atoms: C_1  and  C_2
REMARK    2  A    between atoms: C_2  and  O_3
REMARK    3  A    between atoms: O_3  and  C_4
REMARK    4  A    between atoms: C_4  and  C_6
REMARK    5  A    between atoms: C_9  and  N_10
REMARK    6  A    between atoms: C_11  and  C_13
REMARK    7  A    between atoms: C_17  and  C_18
REMARK    8  A    between atoms: N_20  and  C_21
REMARK    9  A    between atoms: C_21  and  C_22
REMARK   10  A    between atoms: C_22  and  C_23
REMARK   11  A    between atoms: C_22  and  O_24
REMARK                            x       y       z     vdW  Elec       q    Type
REMARK                         _______ _______ _______ _____ _____    ______ ____
ROOT
ATOM      1  N   UNL     1       2.885   5.924  20.009  0.00  0.00    +0.000 N 
ATOM      2  C   UNL     1       2.238   4.693  19.997  0.00  0.00    +0.000 C 
ATOM      3  O   UNL     1       1.042   4.532  19.795  0.00  0.00    +0.000 OA
ATOM      4  H   UNL     1       3.868   5.940  20.241  0.00  0.00    +0.000 HD
ENDROOT
BRANCH   1   8
ATOM      5  C   UNL     1       1.086   9.634  19.077  0.00  0.00    +0.000 A 
ATOM      6  C   UNL     1       0.963   9.105  20.365  0.00  0.00    +0.000 A 
ATOM      7  C   UNL     1       1.562   7.891  20.689  0.00  0.00    +0.000 A 
ATOM      8  C   UNL     1       2.295   7.180  19.738  0.00  0.00    +0.000 A 
ATOM      9  C   UNL     1       2.446   7.727  18.458  0.00  0.00    +0.000 A 
ATOM     10  C   UNL     1       1.844   8.954  18.124  0.00  0.00    +0.000 A 
BRANCH   5  11
ATOM     11  C   UNL     1       0.486  10.954  18.761  0.00  0.00    +0.000 C 
ATOM     12  O   UNL     1      -0.701  11.207  18.853  0.00  0.00    +0.000 OA
BRANCH  11  13
ATOM     13  O   UNL     1       1.463  11.763  18.283  0.00  0.00    +0.000 OA
BRANCH  13  15
ATOM     14  C   UNL     1       1.513  14.092  18.780  0.00  0.00    +0.000 C 
ATOM     15  C   UNL     1       2.005  12.717  19.201  0.00  0.00    +0.000 C 
ENDBRANCH  13  15
ENDBRANCH  11  13
ENDBRANCH   5  11
ENDBRANCH   1   8
BRANCH   2  16
ATOM     16  C   UNL     1       3.116   3.560  20.156  0.00  0.00    +0.000 A 
ATOM     17  N   UNL     1       3.042   2.592  21.131  0.00  0.00    +0.000 N 
ATOM     18  C   UNL     1       4.151   1.802  21.037  0.00  0.00    +0.000 A 
ATOM     19  N   UNL     1       4.944   2.198  20.070  0.00  0.00    +0.000 NA
ATOM     20  C   UNL     1       4.301   3.282  19.485  0.00  0.00    +0.000 A 
ATOM     21  H   UNL     1       2.341   2.531  21.857  0.00  0.00    +0.000 HD
BRANCH  20  22
ATOM     22  C   UNL     1       4.852   3.992  18.330  0.00  0.00    +0.000 C 
ATOM     23  O   UNL     1       4.162   4.475  17.439  0.00  0.00    +0.000 OA
ATOM     24  N   UNL     1       6.230   3.997  18.305  0.00  0.00    +0.000 N 
ATOM     25  H   UNL     1       6.698   3.498  19.054  0.00  0.00    +0.000 HD
BRANCH  24  26
ATOM     26  C   UNL     1       6.996   4.688  17.282  0.00  0.00    +0.000 C 
BRANCH  26  27
ATOM     27  C   UNL     1       7.150   6.199  17.537  0.00  0.00    +0.000 C 
ATOM     28  C   UNL     1       7.978   6.504  18.777  0.00  0.00    +0.000 C 
BRANCH  27  29
ATOM     29  O   UNL     1       7.740   6.873  16.429  0.00  0.00    +0.000 OA
ATOM     30  H   UNL     1       7.207   6.661  15.640  0.00  0.00    +0.000 HD
ENDBRANCH  27  29
ENDBRANCH  26  27
ENDBRANCH  24  26
ENDBRANCH  20  22
ENDBRANCH   2  16
TORSDOF 9
ENDMDL
MODEL 7
REMARK VINA RESULT:      -7.3      0.980      1.884
REMARK  Name = 
REMARK  11 active torsions:
REMARK  status: ('A' for Active; 'I' for Inactive)
REMARK    1  A    between atoms: C_1  and  C_2
REMARK    2  A    between atoms: C_2  and  O_3
REMARK    3  A    between atoms: O_3  and  C_4
REMARK    4  A    between atoms: C_4  and  C_6
REMARK    5  A    between atoms: C_9  and  N_10
REMARK    6  A    between atoms: C_11  and  C_13
REMARK    7  A    between atoms: C_17  and  C_18
REMARK    8  A    between atoms: N_20  and  C_21
REMARK    9  A    between atoms: C_21  and  C_22
REMARK   10  A    between atoms: C_22  and  C_23
REMARK   11  A    between atoms: C_22  and  O_24
REMARK                            x       y       z     vdW  Elec       q    Type
REMARK                         _______ _______ _______ _____ _____    ______ ____
ROOT
ATOM      1  N   UNL     1       2.752   6.235  19.812  0.00  0.00    +0.000 N 
ATOM      2  C   UNL     1       2.465   5.074  19.102  0.00  0.00    +0.000 C 
ATOM      3  O   UNL     1       1.633   4.986  18.209  0.00  0.00    +0.000 OA
ATOM      4  H   UNL     1       3.422   6.176  20.565  0.00  0.00    +0.000 HD
ENDROOT
BRANCH   1   8
ATOM      5  C   UNL     1       1.018  10.010  19.028  0.00  0.00    +0.000 A 
ATOM      6  C   UNL     1       0.836   9.406  20.276  0.00  0.00    +0.000 A 
ATOM      7  C   UNL     1       1.413   8.170  20.552  0.00  0.00    +0.000 A 
ATOM      8  C   UNL     1       2.182   7.510  19.592  0.00  0.00    +0.000 A 
ATOM      9  C   UNL     1       2.391   8.131  18.354  0.00  0.00    +0.000 A 
ATOM     10  C   UNL     1       1.812   9.381  18.069  0.00  0.00    +0.000 A 
BRANCH   5  11
ATOM     11  C   UNL     1       0.441  11.351  18.766  0.00  0.00    +0.000 C 
ATOM     12  O   UNL     1      -0.753  11.588  18.723  0.00  0.00    +0.000 OA
BRANCH  11  13
ATOM     13  O   UNL     1       1.457  12.210  18.506  0.00  0.00    +0.000 OA
BRANCH  13  15
ATOM     14  C   UNL     1       2.634  13.930  19.659  0.00  0.00    +0.000 C 
ATOM     15  C   UNL     1       1.313  13.539  19.017  0.00  0.00    +0.000 C 
ENDBRANCH  13  15
ENDBRANCH  11  13
ENDBRANCH   5  11
ENDBRANCH   1   8
BRANCH   2  16
ATOM     16  C   UNL     1       3.308   3.952  19.435  0.00  0.00    +0.000 A 
ATOM     17  N   UNL     1       2.963   2.864  20.204  0.00  0.00    +0.000 N 
ATOM     18  C   UNL     1       4.087   2.121  20.423  0.00  0.00    +0.000 A 
ATOM     19  N   UNL     1       5.139   2.659  19.855  0.00  0.00    +0.000 NA
ATOM     20  C   UNL     1       4.669   3.794  19.204  0.00  0.00    +0.000 A 
ATOM     21  H   UNL     1       2.059   2.692  20.620  0.00  0.00    +0.000 HD
BRANCH  20  22
ATOM     22  C   UNL     1       5.539   4.661  18.410  0.00  0.00    +0.000 C 
ATOM     23  O   UNL     1       5.555   5.882  18.512  0.00  0.00    +0.000 OA
ATOM     24  N   UNL     1       6.286   3.971  17.479  0.00  0.00    +0.000 N 
ATOM     25  H   UNL     1       6.135   2.969  17.430  0.00  0.00    +0.000 HD
BRANCH  24  26
ATOM     26  C   UNL     1       7.260   4.618  16.616  0.00  0.00    +0.000 C 
BRANCH  26  27
ATOM     27  C   UNL     1       6.681   5.082  15.266  0.00  0.00    +0.000 C 
ATOM     28  C   UNL     1       5.882   3.994  14.564  0.00  0.00    +0.000 C 
BRANCH  27  29
ATOM     29  O   UNL     1       5.848   6.229  15.406  0.00  0.00    +0.000 OA
ATOM     30  H   UNL     1       5.990   6.586  16.302  0.00  0.00    +0.000 HD
ENDBRANCH  27  29
ENDBRANCH  26  27
ENDBRANCH  24  26
ENDBRANCH  20  22
ENDBRANCH   2  16
TORSDOF 9
ENDMDL
MODEL 8
REMARK VINA RESULT:      -7.3      1.942      3.963
REMARK  Name = 
REMARK  11 active torsions:
REMARK  status: ('A' for Active; 'I' for Inactive)
REMARK    1  A    between atoms: C_1  and  C_2
REMARK    2  A    between atoms: C_2  and  O_3
REMARK    3  A    between atoms: O_3  and  C_4
REMARK    4  A    between atoms: C_4  and  C_6
REMARK    5  A    between atoms: C_9  and  N_10
REMARK    6  A    between atoms: C_11  and  C_13
REMARK    7  A    between atoms: C_17  and  C_18
REMARK    8  A    between atoms: N_20  and  C_21
REMARK    9  A    between atoms: C_21  and  C_22
REMARK   10  A    between atoms: C_22  and  C_23
REMARK   11  A    between atoms: C_22  and  O_24
REMARK                            x       y       z     vdW  Elec       q    Type
REMARK                         _______ _______ _______ _____ _____    ______ ____
ROOT
ATOM      1  N   UNL     1       3.547   6.583  17.385  0.00  0.00    +0.000 N 
ATOM      2  C   UNL     1       4.917   6.690  17.170  0.00  0.00    +0.000 C 
ATOM      3  O   UNL     1       5.626   7.588  17.605  0.00  0.00    +0.000 OA
ATOM      4  H   UNL     1       3.056   5.826  16.932  0.00  0.00    +0.000 HD
ENDROOT
BRANCH   1   8
ATOM      5  C   UNL     1       1.260   9.141  19.853  0.00  0.00    +0.000 A 
ATOM      6  C   UNL     1       1.512   9.498  18.526  0.00  0.00    +0.000 A 
ATOM      7  C   UNL     1       2.252   8.659  17.698  0.00  0.00    +0.000 A 
ATOM      8  C   UNL     1       2.756   7.447  18.175  0.00  0.00    +0.000 A 
ATOM      9  C   UNL     1       2.474   7.075  19.496  0.00  0.00    +0.000 A 
ATOM     10  C   UNL     1       1.726   7.918  20.337  0.00  0.00    +0.000 A 
BRANCH   5  11
ATOM     11  C   UNL     1       0.426  10.021  20.709  0.00  0.00    +0.000 C 
ATOM     12  O   UNL     1       0.749  10.405  21.818  0.00  0.00    +0.000 OA
BRANCH  11  13
ATOM     13  O   UNL     1      -0.756  10.233  20.080  0.00  0.00    +0.000 OA
BRANCH  13  15
ATOM     14  C   UNL     1      -1.375  11.961  18.563  0.00  0.00    +0.000 C 
ATOM     15  C   UNL     1      -1.214  11.587  20.027  0.00  0.00    +0.000 C 
ENDBRANCH  13  15
ENDBRANCH  11  13
ENDBRANCH   5  11
ENDBRANCH   1   8
BRANCH   2  16
ATOM     16  C   UNL     1       5.494   5.582  16.449  0.00  0.00    +0.000 A 
ATOM     17  N   UNL     1       6.166   5.642  15.250  0.00  0.00    +0.000 N 
ATOM     18  C   UNL     1       6.395   4.366  14.824  0.00  0.00    +0.000 A 
ATOM     19  N   UNL     1       5.909   3.482  15.662  0.00  0.00    +0.000 NA
ATOM     20  C   UNL     1       5.364   4.222  16.705  0.00  0.00    +0.000 A 
ATOM     21  H   UNL     1       6.370   6.479  14.724  0.00  0.00    +0.000 HD
BRANCH  20  22
ATOM     22  C   UNL     1       4.748   3.595  17.875  0.00  0.00    +0.000 C 
ATOM     23  O   UNL     1       5.247   3.614  18.994  0.00  0.00    +0.000 OA
ATOM     24  N   UNL     1       3.588   2.915  17.576  0.00  0.00    +0.000 N 
ATOM     25  H   UNL     1       3.310   2.900  16.600  0.00  0.00    +0.000 HD
BRANCH  24  26
ATOM     26  C   UNL     1       2.776   2.260  18.588  0.00  0.00    +0.000 C 
BRANCH  26  27
ATOM     27  C   UNL     1       1.345   2.818  18.691  0.00  0.00    +0.000 C 
ATOM     28  C   UNL     1       1.062   3.470  20.036  0.00  0.00    +0.000 C 
BRANCH  27  29
ATOM     29  O   UNL     1       1.063   3.767  17.666  0.00  0.00    +0.000 OA
ATOM     30  H   UNL     1       0.940   4.634  18.097  0.00  0.00    +0.000 HD
ENDBRANCH  27  29
ENDBRANCH  26  27
ENDBRANCH  24  26
ENDBRANCH  20  22
ENDBRANCH   2  16
TORSDOF 9
ENDMDL
MODEL 9
REMARK VINA RESULT:      -7.2      2.019      4.008
REMARK  Name = 
REMARK  11 active torsions:
REMARK  status: ('A' for Active; 'I' for Inactive)
REMARK    1  A    between atoms: C_1  and  C_2
REMARK    2  A    between atoms: C_2  and  O_3
REMARK    3  A    between atoms: O_3  and  C_4
REMARK    4  A    between atoms: C_4  and  C_6
REMARK    5  A    between atoms: C_9  and  N_10
REMARK    6  A    between atoms: C_11  and  C_13
REMARK    7  A    between atoms: C_17  and  C_18
REMARK    8  A    between atoms: N_20  and  C_21
REMARK    9  A    between atoms: C_21  and  C_22
REMARK   10  A    between atoms: C_22  and  C_23
REMARK   11  A    between atoms: C_22  and  O_24
REMARK                            x       y       z     vdW  Elec       q    Type
REMARK                         _______ _______ _______ _____ _____    ______ ____
ROOT
ATOM      1  N   UNL     1       3.605   6.449  17.476  0.00  0.00    +0.000 N 
ATOM      2  C   UNL     1       4.918   6.648  17.062  0.00  0.00    +0.000 C 
ATOM      3  O   UNL     1       5.583   7.648  17.298  0.00  0.00    +0.000 OA
ATOM      4  H   UNL     1       3.137   5.606  17.176  0.00  0.00    +0.000 HD
ENDROOT
BRANCH   1   8
ATOM      5  C   UNL     1       1.241   9.104  19.763  0.00  0.00    +0.000 A 
ATOM      6  C   UNL     1       1.699   7.913  20.333  0.00  0.00    +0.000 A 
ATOM      7  C   UNL     1       2.489   7.036  19.596  0.00  0.00    +0.000 A 
ATOM      8  C   UNL     1       2.840   7.328  18.277  0.00  0.00    +0.000 A 
ATOM      9  C   UNL     1       2.409   8.538  17.717  0.00  0.00    +0.000 A 
ATOM     10  C   UNL     1       1.611   9.428  18.457  0.00  0.00    +0.000 A 
BRANCH   5  11
ATOM     11  C   UNL     1       0.443  10.054  20.577  0.00  0.00    +0.000 C 
ATOM     12  O   UNL     1       0.881  10.683  21.523  0.00  0.00    +0.000 OA
BRANCH  11  13
ATOM     13  O   UNL     1      -0.839  10.019  20.139  0.00  0.00    +0.000 OA
BRANCH  13  15
ATOM     14  C   UNL     1      -1.966  10.610  18.125  0.00  0.00    +0.000 C 
ATOM     15  C   UNL     1      -1.280  11.144  19.371  0.00  0.00    +0.000 C 
ENDBRANCH  13  15
ENDBRANCH  11  13
ENDBRANCH   5  11
ENDBRANCH   1   8
BRANCH   2  16
ATOM     16  C   UNL     1       5.504   5.517  16.385  0.00  0.00    +0.000 A 
ATOM     17  N   UNL     1       6.289   5.553  15.255  0.00  0.00    +0.000 N 
ATOM     18  C   UNL     1       6.494   4.270  14.836  0.00  0.00    +0.000 A 
ATOM     19  N   UNL     1       5.887   3.405  15.613  0.00  0.00    +0.000 NA
ATOM     20  C   UNL     1       5.283   4.165  16.609  0.00  0.00    +0.000 A 
ATOM     21  H   UNL     1       6.584   6.383  14.761  0.00  0.00    +0.000 HD
BRANCH  20  22
ATOM     22  C   UNL     1       4.529   3.561  17.708  0.00  0.00    +0.000 C 
ATOM     23  O   UNL     1       4.878   3.618  18.882  0.00  0.00    +0.000 OA
ATOM     24  N   UNL     1       3.426   2.853  17.282  0.00  0.00    +0.000 N 
ATOM     25  H   UNL     1       3.277   2.807  16.279  0.00  0.00    +0.000 HD
BRANCH  24  26
ATOM     26  C   UNL     1       2.498   2.214  18.200  0.00  0.00    +0.000 C 
BRANCH  26  27
ATOM     27  C   UNL     1       1.218   3.030  18.457  0.00  0.00    +0.000 C 
ATOM     28  C   UNL     1       1.084   3.473  19.907  0.00  0.00    +0.000 C 
BRANCH  27  29
ATOM     29  O   UNL     1       1.145   4.187  17.628  0.00  0.00    +0.000 OA
ATOM     30  H   UNL     1       1.859   4.120  16.968  0.00  0.00    +0.000 HD
ENDBRANCH  27  29
ENDBRANCH  26  27
ENDBRANCH  24  26
ENDBRANCH  20  22
ENDBRANCH   2  16
TORSDOF 9
ENDMDL
