MODEL 1
REMARK VINA RESULT:      -6.7      0.000      0.000
REMARK  Name = 
REMARK  6 active torsions:
REMARK  status: ('A' for Active; 'I' for Inactive)
REMARK    1  A    between atoms: C_1  and  C_2
REMARK    2  A    between atoms: N_4  and  C_5
REMARK    3  A    between atoms: C_14  and  C_16
REMARK    4  A    between atoms: C_21  and  C_22
REMARK    5  A    between atoms: N_24  and  C_25
REMARK    6  A    between atoms: C_25  and  C_26
REMARK                            x       y       z     vdW  Elec       q    Type
REMARK                         _______ _______ _______ _____ _____    ______ ____
ROOT
ATOM      1  C   UNL     1      -0.793  10.454  21.909  0.00  0.00    +0.000 C 
ATOM      2  C   UNL     1      -1.167  11.380  20.743  0.00  0.00    +0.000 C 
ATOM      3  C   UNL     1      -0.744  10.753  19.386  0.00  0.00    +0.000 C 
ATOM      4  N   UNL     1       0.731  10.656  19.307  0.00  0.00    +0.000 N 
ATOM      5  C   UNL     1       1.432  11.948  19.500  0.00  0.00    +0.000 C 
ATOM      6  C   UNL     1       0.911  12.708  20.751  0.00  0.00    +0.000 C 
ATOM      7  N   UNL     1      -0.569  12.726  20.854  0.00  0.00    +0.000 N 
ATOM      8  C   UNL     1      -1.249  13.944  20.803  0.00  0.00    +0.000 C 
ATOM      9  O   UNL     1      -0.608  14.998  20.727  0.00  0.00    +0.000 OA
ENDROOT
BRANCH   4  10
ATOM     10  C   UNL     1       1.366   9.448  19.075  0.00  0.00    +0.000 A 
ATOM     11  C   UNL     1       1.461   8.455  20.069  0.00  0.00    +0.000 A 
ATOM     12  C   UNL     1       2.160   7.254  19.880  0.00  0.00    +0.000 A 
ATOM     13  C   UNL     1       2.777   6.995  18.667  0.00  0.00    +0.000 A 
ATOM     14  C   UNL     1       2.683   7.936  17.649  0.00  0.00    +0.000 A 
ATOM     15  C   UNL     1       1.989   9.139  17.854  0.00  0.00    +0.000 A 
ENDBRANCH   4  10
BRANCH   8  16
ATOM     16  C   UNL     1      -2.807  14.004  20.911  0.00  0.00    +0.000 C 
ATOM     17  C   UNL     1      -3.393  15.388  21.242  0.00  0.00    +0.000 C 
ATOM     18  C   UNL     1      -3.278  15.822  22.695  0.00  0.00    +0.000 C 
ATOM     19  C   UNL     1      -3.590  14.754  23.732  0.00  0.00    +0.000 C 
ATOM     20  C   UNL     1      -3.085  13.360  23.386  0.00  0.00    +0.000 C 
ATOM     21  C   UNL     1      -3.372  12.949  21.931  0.00  0.00    +0.000 C 
BRANCH  21  22
ATOM     22  C   UNL     1      -4.881  12.683  21.722  0.00  0.00    +0.000 C 
ATOM     23  O   UNL     1      -5.660  12.510  22.657  0.00  0.00    +0.000 OA
ATOM     24  N   UNL     1      -5.310  12.678  20.405  0.00  0.00    +0.000 N 
ATOM     25  H   UNL     1      -4.641  12.773  19.652  0.00  0.00    +0.000 HD
BRANCH  24  26
ATOM     26  C   UNL     1      -6.661  12.289  20.039  0.00  0.00    +0.000 C 
ATOM     27  C   UNL     1      -7.218  12.779  18.707  0.00  0.00    +0.000 C 
ATOM     28  C   UNL     1      -7.739  13.352  19.979  0.00  0.00    +0.000 C 
BRANCH  26  29
ATOM     29  C   UNL     1      -7.046  10.935  20.435  0.00  0.00    +0.000 C 
ATOM     30  N   UNL     1      -7.394   9.884  20.771  0.00  0.00    +0.000 NA
ENDBRANCH  26  29
ENDBRANCH  24  26
ENDBRANCH  21  22
ENDBRANCH   8  16
TORSDOF 5
ENDMDL
MODEL 2
REMARK VINA RESULT:      -6.5      1.593      1.958
REMARK  Name = 
REMARK  6 active torsions:
REMARK  status: ('A' for Active; 'I' for Inactive)
REMARK    1  A    between atoms: C_1  and  C_2
REMARK    2  A    between atoms: N_4  and  C_5
REMARK    3  A    between atoms: C_14  and  C_16
REMARK    4  A    between atoms: C_21  and  C_22
REMARK    5  A    between atoms: N_24  and  C_25
REMARK    6  A    between atoms: C_25  and  C_26
REMARK                            x       y       z     vdW  Elec       q    Type
REMARK                         _______ _______ _______ _____ _____    ______ ____
ROOT
ATOM      1  C   UNL     1      -0.694  10.787  22.156  0.00  0.00    +0.000 C 
ATOM      2  C   UNL     1      -1.213  11.585  20.952  0.00  0.00    +0.000 C 
ATOM      3  C   UNL     1      -0.870  10.858  19.623  0.00  0.00    +0.000 C 
ATOM      4  N   UNL     1       0.596  10.823  19.424  0.00  0.00    +0.000 N 
ATOM      5  C   UNL     1       1.240  12.157  19.443  0.00  0.00    +0.000 C 
ATOM      6  C   UNL     1       0.784  13.003  20.663  0.00  0.00    +0.000 C 
ATOM      7  N   UNL     1      -0.682  12.961  20.893  0.00  0.00    +0.000 N 
ATOM      8  C   UNL     1      -1.428  14.138  20.796  0.00  0.00    +0.000 C 
ATOM      9  O   UNL     1      -0.853  15.209  20.573  0.00  0.00    +0.000 OA
ENDROOT
BRANCH   4  10
ATOM     10  C   UNL     1       1.274   9.628  19.243  0.00  0.00    +0.000 A 
ATOM     11  C   UNL     1       1.898   9.306  18.022  0.00  0.00    +0.000 A 
ATOM     12  C   UNL     1       2.528   8.075  17.792  0.00  0.00    +0.000 A 
ATOM     13  C   UNL     1       2.576   7.123  18.798  0.00  0.00    +0.000 A 
ATOM     14  C   UNL     1       1.999   7.412  20.027  0.00  0.00    +0.000 A 
ATOM     15  C   UNL     1       1.362   8.645  20.241  0.00  0.00    +0.000 A 
ENDBRANCH   4  10
BRANCH   8  16
ATOM     16  C   UNL     1      -2.973  14.134  21.034  0.00  0.00    +0.000 C 
ATOM     17  C   UNL     1      -3.647  15.518  21.002  0.00  0.00    +0.000 C 
ATOM     18  C   UNL     1      -3.460  16.370  22.247  0.00  0.00    +0.000 C 
ATOM     19  C   UNL     1      -3.600  15.643  23.575  0.00  0.00    +0.000 C 
ATOM     20  C   UNL     1      -3.006  14.242  23.603  0.00  0.00    +0.000 C 
ATOM     21  C   UNL     1      -3.366  13.400  22.367  0.00  0.00    +0.000 C 
BRANCH  21  22
ATOM     22  C   UNL     1      -4.859  12.995  22.392  0.00  0.00    +0.000 C 
ATOM     23  O   UNL     1      -5.360  12.256  21.548  0.00  0.00    +0.000 OA
ATOM     24  N   UNL     1      -5.597  13.499  23.450  0.00  0.00    +0.000 N 
ATOM     25  H   UNL     1      -5.173  14.145  24.103  0.00  0.00    +0.000 HD
BRANCH  24  26
ATOM     26  C   UNL     1      -7.038  13.339  23.526  0.00  0.00    +0.000 C 
ATOM     27  C   UNL     1      -7.916  14.315  22.750  0.00  0.00    +0.000 C 
ATOM     28  C   UNL     1      -7.857  14.399  24.236  0.00  0.00    +0.000 C 
BRANCH  26  29
ATOM     29  C   UNL     1      -7.507  11.955  23.575  0.00  0.00    +0.000 C 
ATOM     30  N   UNL     1      -7.860  10.857  23.663  0.00  0.00    +0.000 NA
ENDBRANCH  26  29
ENDBRANCH  24  26
ENDBRANCH  21  22
ENDBRANCH   8  16
TORSDOF 5
ENDMDL
MODEL 3
REMARK VINA RESULT:      -6.5      0.666      1.162
REMARK  Name = 
REMARK  6 active torsions:
REMARK  status: ('A' for Active; 'I' for Inactive)
REMARK    1  A    between atoms: C_1  and  C_2
REMARK    2  A    between atoms: N_4  and  C_5
REMARK    3  A    between atoms: C_14  and  C_16
REMARK    4  A    between atoms: C_21  and  C_22
REMARK    5  A    between atoms: N_24  and  C_25
REMARK    6  A    between atoms: C_25  and  C_26
REMARK                            x       y       z     vdW  Elec       q    Type
REMARK                         _______ _______ _______ _____ _____    ______ ____
ROOT
ATOM      1  C   UNL     1      -0.506  10.875  22.171  0.00  0.00    +0.000 C 
ATOM      2  C   UNL     1      -1.106  11.613  20.966  0.00  0.00    +0.000 C 
ATOM      3  C   UNL     1      -0.840  10.826  19.653  0.00  0.00    +0.000 C 
ATOM      4  N   UNL     1       0.611  10.791  19.365  0.00  0.00    +0.000 N 
ATOM      5  C   UNL     1       1.242  12.129  19.281  0.00  0.00    +0.000 C 
ATOM      6  C   UNL     1       0.856  13.028  20.488  0.00  0.00    +0.000 C 
ATOM      7  N   UNL     1      -0.592  12.988  20.810  0.00  0.00    +0.000 N 
ATOM      8  C   UNL     1      -1.354  14.154  20.706  0.00  0.00    +0.000 C 
ATOM      9  O   UNL     1      -0.804  15.217  20.398  0.00  0.00    +0.000 OA
ENDROOT
BRANCH   4  10
ATOM     10  C   UNL     1       1.288   9.594  19.197  0.00  0.00    +0.000 A 
ATOM     11  C   UNL     1       1.916   9.260  17.982  0.00  0.00    +0.000 A 
ATOM     12  C   UNL     1       2.546   8.026  17.765  0.00  0.00    +0.000 A 
ATOM     13  C   UNL     1       2.587   7.083  18.779  0.00  0.00    +0.000 A 
ATOM     14  C   UNL     1       2.005   7.383  20.003  0.00  0.00    +0.000 A 
ATOM     15  C   UNL     1       1.369   8.619  20.204  0.00  0.00    +0.000 A 
ENDBRANCH   4  10
BRANCH   8  16
ATOM     16  C   UNL     1      -2.881  14.152  21.041  0.00  0.00    +0.000 C 
ATOM     17  C   UNL     1      -3.529  15.542  21.172  0.00  0.00    +0.000 C 
ATOM     18  C   UNL     1      -3.247  16.279  22.472  0.00  0.00    +0.000 C 
ATOM     19  C   UNL     1      -3.319  15.440  23.738  0.00  0.00    +0.000 C 
ATOM     20  C   UNL     1      -2.753  14.034  23.606  0.00  0.00    +0.000 C 
ATOM     21  C   UNL     1      -3.205  13.309  22.327  0.00  0.00    +0.000 C 
BRANCH  21  22
ATOM     22  C   UNL     1      -4.701  12.925  22.412  0.00  0.00    +0.000 C 
ATOM     23  O   UNL     1      -5.196  12.400  23.408  0.00  0.00    +0.000 OA
ATOM     24  N   UNL     1      -5.463  13.234  21.298  0.00  0.00    +0.000 N 
ATOM     25  H   UNL     1      -5.022  13.619  20.473  0.00  0.00    +0.000 HD
BRANCH  24  26
ATOM     26  C   UNL     1      -6.841  12.797  21.163  0.00  0.00    +0.000 C 
ATOM     27  C   UNL     1      -7.836  13.739  20.496  0.00  0.00    +0.000 C 
ATOM     28  C   UNL     1      -7.916  13.503  21.964  0.00  0.00    +0.000 C 
BRANCH  26  29
ATOM     29  C   UNL     1      -7.015  11.374  20.877  0.00  0.00    +0.000 C 
ATOM     30  N   UNL     1      -7.189  10.260  20.614  0.00  0.00    +0.000 NA
ENDBRANCH  26  29
ENDBRANCH  24  26
ENDBRANCH  21  22
ENDBRANCH   8  16
TORSDOF 5
ENDMDL
MODEL 4
REMARK VINA RESULT:      -6.3      1.140      1.532
REMARK  Name = 
REMARK  6 active torsions:
REMARK  status: ('A' for Active; 'I' for Inactive)
REMARK    1  A    between atoms: C_1  and  C_2
REMARK    2  A    between atoms: N_4  and  C_5
REMARK    3  A    between atoms: C_14  and  C_16
REMARK    4  A    between atoms: C_21  and  C_22
REMARK    5  A    between atoms: N_24  and  C_25
REMARK    6  A    between atoms: C_25  and  C_26
REMARK                            x       y       z     vdW  Elec       q    Type
REMARK                         _______ _______ _______ _____ _____    ______ ____
ROOT
ATOM      1  C   UNL     1      -0.248  10.607  22.227  0.00  0.00    +0.000 C 
ATOM      2  C   UNL     1      -0.890  11.380  21.067  0.00  0.00    +0.000 C 
ATOM      3  C   UNL     1      -0.672  10.633  19.723  0.00  0.00    +0.000 C 
ATOM      4  N   UNL     1       0.768  10.607  19.382  0.00  0.00    +0.000 N 
ATOM      5  C   UNL     1       1.396  11.948  19.316  0.00  0.00    +0.000 C 
ATOM      6  C   UNL     1       1.054  12.810  20.561  0.00  0.00    +0.000 C 
ATOM      7  N   UNL     1      -0.382  12.759  20.934  0.00  0.00    +0.000 N 
ATOM      8  C   UNL     1      -1.146  13.927  20.892  0.00  0.00    +0.000 C 
ATOM      9  O   UNL     1      -0.607  15.000  20.597  0.00  0.00    +0.000 OA
ENDROOT
BRANCH   4  10
ATOM     10  C   UNL     1       1.438   9.416  19.154  0.00  0.00    +0.000 A 
ATOM     11  C   UNL     1       2.036   9.126  17.913  0.00  0.00    +0.000 A 
ATOM     12  C   UNL     1       2.657   7.900  17.636  0.00  0.00    +0.000 A 
ATOM     13  C   UNL     1       2.720   6.920  18.613  0.00  0.00    +0.000 A 
ATOM     14  C   UNL     1       2.168   7.176  19.862  0.00  0.00    +0.000 A 
ATOM     15  C   UNL     1       1.540   8.404  20.123  0.00  0.00    +0.000 A 
ENDBRANCH   4  10
BRANCH   8  16
ATOM     16  C   UNL     1      -2.660  13.914  21.281  0.00  0.00    +0.000 C 
ATOM     17  C   UNL     1      -3.340  15.295  21.329  0.00  0.00    +0.000 C 
ATOM     18  C   UNL     1      -3.034  16.136  22.558  0.00  0.00    +0.000 C 
ATOM     19  C   UNL     1      -3.040  15.397  23.886  0.00  0.00    +0.000 C 
ATOM     20  C   UNL     1      -2.441  13.998  23.842  0.00  0.00    +0.000 C 
ATOM     21  C   UNL     1      -2.918  13.166  22.639  0.00  0.00    +0.000 C 
BRANCH  21  22
ATOM     22  C   UNL     1      -4.399  12.754  22.807  0.00  0.00    +0.000 C 
ATOM     23  O   UNL     1      -4.834  12.251  23.841  0.00  0.00    +0.000 OA
ATOM     24  N   UNL     1      -5.219  13.012  21.722  0.00  0.00    +0.000 N 
ATOM     25  H   UNL     1      -4.826  13.380  20.865  0.00  0.00    +0.000 HD
BRANCH  24  26
ATOM     26  C   UNL     1      -6.592  12.542  21.667  0.00  0.00    +0.000 C 
ATOM     27  C   UNL     1      -6.919  11.371  20.747  0.00  0.00    +0.000 C 
ATOM     28  C   UNL     1      -7.384  12.740  20.390  0.00  0.00    +0.000 C 
BRANCH  26  29
ATOM     29  C   UNL     1      -7.311  12.577  22.939  0.00  0.00    +0.000 C 
ATOM     30  N   UNL     1      -7.914  12.569  23.927  0.00  0.00    +0.000 NA
ENDBRANCH  26  29
ENDBRANCH  24  26
ENDBRANCH  21  22
ENDBRANCH   8  16
TORSDOF 5
ENDMDL
MODEL 5
REMARK VINA RESULT:      -6.3      1.218      1.330
REMARK  Name = 
REMARK  6 active torsions:
REMARK  status: ('A' for Active; 'I' for Inactive)
REMARK    1  A    between atoms: C_1  and  C_2
REMARK    2  A    between atoms: N_4  and  C_5
REMARK    3  A    between atoms: C_14  and  C_16
REMARK    4  A    between atoms: C_21  and  C_22
REMARK    5  A    between atoms: N_24  and  C_25
REMARK    6  A    between atoms: C_25  and  C_26
REMARK                            x       y       z     vdW  Elec       q    Type
REMARK                         _______ _______ _______ _____ _____    ______ ____
ROOT
ATOM      1  C   UNL     1      -1.069  11.141  22.259  0.00  0.00    +0.000 C 
ATOM      2  C   UNL     1      -1.368  12.024  21.040  0.00  0.00    +0.000 C 
ATOM      3  C   UNL     1      -0.978  11.294  19.725  0.00  0.00    +0.000 C 
ATOM      4  N   UNL     1       0.486  11.091  19.669  0.00  0.00    +0.000 N 
ATOM      5  C   UNL     1       1.274  12.340  19.799  0.00  0.00    +0.000 C 
ATOM      6  C   UNL     1       0.797  13.203  20.999  0.00  0.00    +0.000 C 
ATOM      7  N   UNL     1      -0.679  13.329  21.082  0.00  0.00    +0.000 N 
ATOM      8  C   UNL     1      -1.271  14.586  20.956  0.00  0.00    +0.000 C 
ATOM      9  O   UNL     1      -0.558  15.588  20.829  0.00  0.00    +0.000 OA
ENDROOT
BRANCH   4  10
ATOM     10  C   UNL     1       1.038   9.830  19.511  0.00  0.00    +0.000 A 
ATOM     11  C   UNL     1       1.095   8.906  20.573  0.00  0.00    +0.000 A 
ATOM     12  C   UNL     1       1.712   7.652  20.457  0.00  0.00    +0.000 A 
ATOM     13  C   UNL     1       2.280   7.269  19.253  0.00  0.00    +0.000 A 
ATOM     14  C   UNL     1       2.220   8.138  18.172  0.00  0.00    +0.000 A 
ATOM     15  C   UNL     1       1.608   9.395  18.304  0.00  0.00    +0.000 A 
ENDBRANCH   4  10
BRANCH   8  16
ATOM     16  C   UNL     1      -2.823  14.760  21.042  0.00  0.00    +0.000 C 
ATOM     17  C   UNL     1      -3.339  16.194  20.827  0.00  0.00    +0.000 C 
ATOM     18  C   UNL     1      -3.170  17.138  22.006  0.00  0.00    +0.000 C 
ATOM     19  C   UNL     1      -3.504  16.559  23.372  0.00  0.00    +0.000 C 
ATOM     20  C   UNL     1      -3.069  15.115  23.577  0.00  0.00    +0.000 C 
ATOM     21  C   UNL     1      -3.408  14.198  22.389  0.00  0.00    +0.000 C 
BRANCH  21  22
ATOM     22  C   UNL     1      -4.932  13.948  22.304  0.00  0.00    +0.000 C 
ATOM     23  O   UNL     1      -5.754  14.656  22.882  0.00  0.00    +0.000 OA
ATOM     24  N   UNL     1      -5.320  12.883  21.508  0.00  0.00    +0.000 N 
ATOM     25  H   UNL     1      -4.623  12.286  21.084  0.00  0.00    +0.000 HD
BRANCH  24  26
ATOM     26  C   UNL     1      -6.698  12.426  21.454  0.00  0.00    +0.000 C 
ATOM     27  C   UNL     1      -7.154  11.653  20.222  0.00  0.00    +0.000 C 
ATOM     28  C   UNL     1      -7.636  13.045  20.437  0.00  0.00    +0.000 C 
BRANCH  26  29
ATOM     29  C   UNL     1      -7.256  11.985  22.730  0.00  0.00    +0.000 C 
ATOM     30  N   UNL     1      -7.648  11.626  23.758  0.00  0.00    +0.000 NA
ENDBRANCH  26  29
ENDBRANCH  24  26
ENDBRANCH  21  22
ENDBRANCH   8  16
TORSDOF 5
ENDMDL
MODEL 6
REMARK VINA RESULT:      -6.1      9.988     12.483
REMARK  Name = 
REMARK  6 active torsions:
REMARK  status: ('A' for Active; 'I' for Inactive)
REMARK    1  A    between atoms: C_1  and  C_2
REMARK    2  A    between atoms: N_4  and  C_5
REMARK    3  A    between atoms: C_14  and  C_16
REMARK    4  A    between atoms: C_21  and  C_22
REMARK    5  A    between atoms: N_24  and  C_25
REMARK    6  A    between atoms: C_25  and  C_26
REMARK                            x       y       z     vdW  Elec       q    Type
REMARK                         _______ _______ _______ _____ _____    ______ ____
ROOT
ATOM      1  C   UNL     1       5.949  13.097  23.197  0.00  0.00    +0.000 C 
ATOM      2  C   UNL     1       7.469  13.017  23.392  0.00  0.00    +0.000 C 
ATOM      3  C   UNL     1       7.834  11.909  24.418  0.00  0.00    +0.000 C 
ATOM      4  N   UNL     1       7.320  12.266  25.758  0.00  0.00    +0.000 N 
ATOM      5  C   UNL     1       7.791  13.580  26.255  0.00  0.00    +0.000 C 
ATOM      6  C   UNL     1       7.619  14.697  25.190  0.00  0.00    +0.000 C 
ATOM      7  N   UNL     1       8.068  14.292  23.835  0.00  0.00    +0.000 N 
ATOM      8  C   UNL     1       9.129  14.967  23.230  0.00  0.00    +0.000 C 
ATOM      9  O   UNL     1       9.649  15.929  23.806  0.00  0.00    +0.000 OA
ENDROOT
BRANCH   4  10
ATOM     10  C   UNL     1       6.471  11.423  26.458  0.00  0.00    +0.000 A 
ATOM     11  C   UNL     1       6.808  10.915  27.727  0.00  0.00    +0.000 A 
ATOM     12  C   UNL     1       5.999  10.006  28.422  0.00  0.00    +0.000 A 
ATOM     13  C   UNL     1       4.799   9.586  27.871  0.00  0.00    +0.000 A 
ATOM     14  C   UNL     1       4.414  10.085  26.634  0.00  0.00    +0.000 A 
ATOM     15  C   UNL     1       5.239  10.988  25.944  0.00  0.00    +0.000 A 
ENDBRANCH   4  10
BRANCH   8  16
ATOM     16  C   UNL     1       9.628  14.571  21.802  0.00  0.00    +0.000 C 
ATOM     17  C   UNL     1      10.758  15.447  21.233  0.00  0.00    +0.000 C 
ATOM     18  C   UNL     1      10.334  16.808  20.704  0.00  0.00    +0.000 C 
ATOM     19  C   UNL     1       9.058  16.830  19.878  0.00  0.00    +0.000 C 
ATOM     20  C   UNL     1       7.955  15.911  20.382  0.00  0.00    +0.000 C 
ATOM     21  C   UNL     1       8.453  14.505  20.760  0.00  0.00    +0.000 C 
BRANCH  21  22
ATOM     22  C   UNL     1       8.836  13.699  19.497  0.00  0.00    +0.000 C 
ATOM     23  O   UNL     1       8.292  13.874  18.408  0.00  0.00    +0.000 OA
ATOM     24  N   UNL     1       9.856  12.777  19.663  0.00  0.00    +0.000 N 
ATOM     25  H   UNL     1      10.251  12.617  20.580  0.00  0.00    +0.000 HD
BRANCH  24  26
ATOM     26  C   UNL     1      10.220  11.838  18.617  0.00  0.00    +0.000 C 
ATOM     27  C   UNL     1      11.700  11.578  18.362  0.00  0.00    +0.000 C 
ATOM     28  C   UNL     1      10.908  12.358  17.371  0.00  0.00    +0.000 C 
BRANCH  26  29
ATOM     29  C   UNL     1       9.335  10.681  18.486  0.00  0.00    +0.000 C 
ATOM     30  N   UNL     1       8.643   9.755  18.435  0.00  0.00    +0.000 NA
ENDBRANCH  26  29
ENDBRANCH  24  26
ENDBRANCH  21  22
ENDBRANCH   8  16
TORSDOF 5
ENDMDL
MODEL 7
REMARK VINA RESULT:      -6.1      7.128     11.541
REMARK  Name = 
REMARK  6 active torsions:
REMARK  status: ('A' for Active; 'I' for Inactive)
REMARK    1  A    between atoms: C_1  and  C_2
REMARK    2  A    between atoms: N_4  and  C_5
REMARK    3  A    between atoms: C_14  and  C_16
REMARK    4  A    between atoms: C_21  and  C_22
REMARK    5  A    between atoms: N_24  and  C_25
REMARK    6  A    between atoms: C_25  and  C_26
REMARK                            x       y       z     vdW  Elec       q    Type
REMARK                         _______ _______ _______ _____ _____    ______ ____
ROOT
ATOM      1  C   UNL     1       5.403  17.115  19.958  0.00  0.00    +0.000 C 
ATOM      2  C   UNL     1       5.039  15.660  20.284  0.00  0.00    +0.000 C 
ATOM      3  C   UNL     1       3.877  15.168  19.377  0.00  0.00    +0.000 C 
ATOM      4  N   UNL     1       2.641  15.923  19.680  0.00  0.00    +0.000 N 
ATOM      5  C   UNL     1       2.227  15.857  21.101  0.00  0.00    +0.000 C 
ATOM      6  C   UNL     1       3.408  16.161  22.063  0.00  0.00    +0.000 C 
ATOM      7  N   UNL     1       4.661  15.456  21.696  0.00  0.00    +0.000 N 
ATOM      8  C   UNL     1       5.211  14.525  22.579  0.00  0.00    +0.000 C 
ATOM      9  O   UNL     1       4.679  14.337  23.678  0.00  0.00    +0.000 OA
ENDROOT
BRANCH   4  10
ATOM     10  C   UNL     1       1.958  16.620  18.697  0.00  0.00    +0.000 A 
ATOM     11  C   UNL     1       2.594  17.060  17.520  0.00  0.00    +0.000 A 
ATOM     12  C   UNL     1       1.942  17.828  16.545  0.00  0.00    +0.000 A 
ATOM     13  C   UNL     1       0.608  18.166  16.707  0.00  0.00    +0.000 A 
ATOM     14  C   UNL     1      -0.065  17.727  17.840  0.00  0.00    +0.000 A 
ATOM     15  C   UNL     1       0.602  16.967  18.814  0.00  0.00    +0.000 A 
ENDBRANCH   4  10
BRANCH   8  16
ATOM     16  C   UNL     1       6.532  13.765  22.229  0.00  0.00    +0.000 C 
ATOM     17  C   UNL     1       6.819  12.516  23.081  0.00  0.00    +0.000 C 
ATOM     18  C   UNL     1       7.347  12.783  24.482  0.00  0.00    +0.000 C 
ATOM     19  C   UNL     1       8.406  13.867  24.596  0.00  0.00    +0.000 C 
ATOM     20  C   UNL     1       8.180  15.078  23.702  0.00  0.00    +0.000 C 
ATOM     21  C   UNL     1       7.787  14.710  22.261  0.00  0.00    +0.000 C 
BRANCH  21  22
ATOM     22  C   UNL     1       8.991  14.109  21.498  0.00  0.00    +0.000 C 
ATOM     23  O   UNL     1      10.156  14.307  21.837  0.00  0.00    +0.000 OA
ATOM     24  N   UNL     1       8.673  13.306  20.416  0.00  0.00    +0.000 N 
ATOM     25  H   UNL     1       7.709  13.201  20.128  0.00  0.00    +0.000 HD
BRANCH  24  26
ATOM     26  C   UNL     1       9.689  12.800  19.510  0.00  0.00    +0.000 C 
ATOM     27  C   UNL     1       9.551  11.373  18.994  0.00  0.00    +0.000 C 
ATOM     28  C   UNL     1      10.613  11.697  19.986  0.00  0.00    +0.000 C 
BRANCH  26  29
ATOM     29  C   UNL     1      10.213  13.778  18.557  0.00  0.00    +0.000 C 
ATOM     30  N   UNL     1      10.610  14.521  17.764  0.00  0.00    +0.000 NA
ENDBRANCH  26  29
ENDBRANCH  24  26
ENDBRANCH  21  22
ENDBRANCH   8  16
TORSDOF 5
ENDMDL
MODEL 8
REMARK VINA RESULT:      -6.0      1.576      2.116
REMARK  Name = 
REMARK  6 active torsions:
REMARK  status: ('A' for Active; 'I' for Inactive)
REMARK    1  A    between atoms: C_1  and  C_2
REMARK    2  A    between atoms: N_4  and  C_5
REMARK    3  A    between atoms: C_14  and  C_16
REMARK    4  A    between atoms: C_21  and  C_22
REMARK    5  A    between atoms: N_24  and  C_25
REMARK    6  A    between atoms: C_25  and  C_26
REMARK                            x       y       z     vdW  Elec       q    Type
REMARK                         _______ _______ _______ _____ _____    ______ ____
ROOT
ATOM      1  C   UNL     1      -0.569  10.582  22.004  0.00  0.00    +0.000 C 
ATOM      2  C   UNL     1      -1.003  11.416  20.792  0.00  0.00    +0.000 C 
ATOM      3  C   UNL     1      -0.668  10.676  19.468  0.00  0.00    +0.000 C 
ATOM      4  N   UNL     1       0.798  10.551  19.310  0.00  0.00    +0.000 N 
ATOM      5  C   UNL     1       1.522  11.844  19.356  0.00  0.00    +0.000 C 
ATOM      6  C   UNL     1       1.084  12.710  20.569  0.00  0.00    +0.000 C 
ATOM      7  N   UNL     1      -0.387  12.757  20.757  0.00  0.00    +0.000 N 
ATOM      8  C   UNL     1      -1.056  13.978  20.647  0.00  0.00    +0.000 C 
ATOM      9  O   UNL     1      -0.411  15.013  20.447  0.00  0.00    +0.000 OA
ENDROOT
BRANCH   4  10
ATOM     10  C   UNL     1       1.407   9.318  19.140  0.00  0.00    +0.000 A 
ATOM     11  C   UNL     1       1.927   8.912  17.896  0.00  0.00    +0.000 A 
ATOM     12  C   UNL     1       2.483   7.643  17.682  0.00  0.00    +0.000 A 
ATOM     13  C   UNL     1       2.558   6.735  18.726  0.00  0.00    +0.000 A 
ATOM     14  C   UNL     1       2.082   7.106  19.977  0.00  0.00    +0.000 A 
ATOM     15  C   UNL     1       1.518   8.377  20.175  0.00  0.00    +0.000 A 
ENDBRANCH   4  10
BRANCH   8  16
ATOM     16  C   UNL     1      -2.605  14.068  20.842  0.00  0.00    +0.000 C 
ATOM     17  C   UNL     1      -3.175  15.495  20.929  0.00  0.00    +0.000 C 
ATOM     18  C   UNL     1      -2.969  16.207  22.258  0.00  0.00    +0.000 C 
ATOM     19  C   UNL     1      -3.207  15.367  23.503  0.00  0.00    +0.000 C 
ATOM     20  C   UNL     1      -2.718  13.929  23.407  0.00  0.00    +0.000 C 
ATOM     21  C   UNL     1      -3.096  13.240  22.085  0.00  0.00    +0.000 C 
BRANCH  21  22
ATOM     22  C   UNL     1      -4.614  12.949  22.030  0.00  0.00    +0.000 C 
ATOM     23  O   UNL     1      -5.117  12.205  21.190  0.00  0.00    +0.000 OA
ATOM     24  N   UNL     1      -5.376  13.562  23.011  0.00  0.00    +0.000 N 
ATOM     25  H   UNL     1      -4.945  14.208  23.659  0.00  0.00    +0.000 HD
BRANCH  24  26
ATOM     26  C   UNL     1      -6.827  13.513  22.998  0.00  0.00    +0.000 C 
ATOM     27  C   UNL     1      -7.563  13.567  24.332  0.00  0.00    +0.000 C 
ATOM     28  C   UNL     1      -7.525  12.292  23.564  0.00  0.00    +0.000 C 
BRANCH  26  29
ATOM     29  C   UNL     1      -7.462  14.219  21.887  0.00  0.00    +0.000 C 
ATOM     30  N   UNL     1      -7.916  14.794  20.991  0.00  0.00    +0.000 NA
ENDBRANCH  26  29
ENDBRANCH  24  26
ENDBRANCH  21  22
ENDBRANCH   8  16
TORSDOF 5
ENDMDL
MODEL 9
REMARK VINA RESULT:      -5.8      6.564     11.177
REMARK  Name = 
REMARK  6 active torsions:
REMARK  status: ('A' for Active; 'I' for Inactive)
REMARK    1  A    between atoms: C_1  and  C_2
REMARK    2  A    between atoms: N_4  and  C_5
REMARK    3  A    between atoms: C_14  and  C_16
REMARK    4  A    between atoms: C_21  and  C_22
REMARK    5  A    between atoms: N_24  and  C_25
REMARK    6  A    between atoms: C_25  and  C_26
REMARK                            x       y       z     vdW  Elec       q    Type
REMARK                         _______ _______ _______ _____ _____    ______ ____
ROOT
ATOM      1  C   UNL     1       2.776  12.953  17.922  0.00  0.00    +0.000 C 
ATOM      2  C   UNL     1       3.243  13.891  19.044  0.00  0.00    +0.000 C 
ATOM      3  C   UNL     1       2.190  13.949  20.184  0.00  0.00    +0.000 C 
ATOM      4  N   UNL     1       0.941  14.573  19.694  0.00  0.00    +0.000 N 
ATOM      5  C   UNL     1       1.128  15.925  19.117  0.00  0.00    +0.000 C 
ATOM      6  C   UNL     1       2.300  15.964  18.099  0.00  0.00    +0.000 C 
ATOM      7  N   UNL     1       3.518  15.264  18.578  0.00  0.00    +0.000 N 
ATOM      8  C   UNL     1       4.697  15.987  18.768  0.00  0.00    +0.000 C 
ATOM      9  O   UNL     1       4.729  17.190  18.485  0.00  0.00    +0.000 OA
ENDROOT
BRANCH   4  10
ATOM     10  C   UNL     1      -0.278  13.919  19.779  0.00  0.00    +0.000 A 
ATOM     11  C   UNL     1      -1.168  14.144  20.846  0.00  0.00    +0.000 A 
ATOM     12  C   UNL     1      -2.374  13.443  20.991  0.00  0.00    +0.000 A 
ATOM     13  C   UNL     1      -2.742  12.497  20.048  0.00  0.00    +0.000 A 
ATOM     14  C   UNL     1      -1.907  12.266  18.963  0.00  0.00    +0.000 A 
ATOM     15  C   UNL     1      -0.697  12.968  18.835  0.00  0.00    +0.000 A 
ENDBRANCH   4  10
BRANCH   8  16
ATOM     16  C   UNL     1       6.001  15.285  19.269  0.00  0.00    +0.000 C 
ATOM     17  C   UNL     1       6.380  15.565  20.734  0.00  0.00    +0.000 C 
ATOM     18  C   UNL     1       7.010  16.922  21.004  0.00  0.00    +0.000 C 
ATOM     19  C   UNL     1       8.053  17.380  19.997  0.00  0.00    +0.000 C 
ATOM     20  C   UNL     1       7.733  17.044  18.547  0.00  0.00    +0.000 C 
ATOM     21  C   UNL     1       7.236  15.601  18.348  0.00  0.00    +0.000 C 
BRANCH  21  22
ATOM     22  C   UNL     1       8.388  14.590  18.548  0.00  0.00    +0.000 C 
ATOM     23  O   UNL     1       8.376  13.736  19.433  0.00  0.00    +0.000 OA
ATOM     24  N   UNL     1       9.433  14.688  17.645  0.00  0.00    +0.000 N 
ATOM     25  H   UNL     1       9.443  15.430  16.958  0.00  0.00    +0.000 HD
BRANCH  24  26
ATOM     26  C   UNL     1      10.655  13.917  17.796  0.00  0.00    +0.000 C 
ATOM     27  C   UNL     1      11.343  13.398  16.539  0.00  0.00    +0.000 C 
ATOM     28  C   UNL     1      10.641  12.444  17.440  0.00  0.00    +0.000 C 
BRANCH  26  29
ATOM     29  C   UNL     1      11.538  14.360  18.874  0.00  0.00    +0.000 C 
ATOM     30  N   UNL     1      12.201  14.695  19.761  0.00  0.00    +0.000 NA
ENDBRANCH  26  29
ENDBRANCH  24  26
ENDBRANCH  21  22
ENDBRANCH   8  16
TORSDOF 5
ENDMDL
