MODEL 1
REMARK VINA RESULT:      -8.2      0.000      0.000
REMARK  Name = 
REMARK  6 active torsions:
REMARK  status: ('A' for Active; 'I' for Inactive)
REMARK    1  A    between atoms: N_1  and  N_2
REMARK    2  A    between atoms: C_3  and  C_4
REMARK    3  A    between atoms: C_4  and  C_5
REMARK    4  A    between atoms: C_13  and  S_14
REMARK    5  A    between atoms: S_14  and  C_15
REMARK    6  A    between atoms: C_15  and  C_16
REMARK                            x       y       z     vdW  Elec       q    Type
REMARK                         _______ _______ _______ _____ _____    ______ ____
ROOT
ATOM      1  S   UNL     1       2.952   5.315  19.973  0.00  0.00    +0.000 S 
ENDROOT
BRANCH   1   6
ATOM      2  N   UNL     1       1.911   7.854  19.757  0.00  0.00    +0.000 N 
ATOM      3  C   UNL     1       1.814   8.828  18.786  0.00  0.00    +0.000 A 
ATOM      4  N   UNL     1       2.376   8.376  17.676  0.00  0.00    +0.000 NA
ATOM      5  N   UNL     1       2.872   7.110  17.921  0.00  0.00    +0.000 NA
ATOM      6  C   UNL     1       2.600   6.814  19.171  0.00  0.00    +0.000 A 
BRANCH   2   7
ATOM      7  N   UNL     1       1.487   7.933  21.125  0.00  0.00    +0.000 N 
ATOM      8  H   UNL     1       0.875   8.719  21.309  0.00  0.00    +0.000 HD
ATOM      9  H   UNL     1       2.322   8.063  21.712  0.00  0.00    +0.000 HD
ENDBRANCH   2   7
BRANCH   3  10
ATOM     10  C   UNL     1       1.297  10.211  19.006  0.00  0.00    +0.000 C 
BRANCH  10  11
ATOM     11  C   UNL     1      -0.178  10.429  18.731  0.00  0.00    +0.000 A 
ATOM     12  C   UNL     1      -0.899  11.398  19.448  0.00  0.00    +0.000 A 
ATOM     13  C   UNL     1      -2.221  11.704  19.108  0.00  0.00    +0.000 A 
ATOM     14  C   UNL     1      -2.840  11.047  18.048  0.00  0.00    +0.000 A 
ATOM     15  C   UNL     1      -2.143  10.072  17.338  0.00  0.00    +0.000 A 
ATOM     16  C   UNL     1      -0.822   9.763  17.677  0.00  0.00    +0.000 A 
ENDBRANCH  10  11
ENDBRANCH   3  10
ENDBRANCH   1   6
BRANCH   1  17
ATOM     17  C   UNL     1       4.691   5.025  19.528  0.00  0.00    +0.000 C 
BRANCH  17  18
ATOM     18  C   UNL     1       4.851   4.542  18.094  0.00  0.00    +0.000 C 
ATOM     19  O   UNL     1       4.224   3.569  17.669  0.00  0.00    +0.000 OA
ATOM     20  N   UNL     1       5.794   5.271  17.364  0.00  0.00    +0.000 N 
ATOM     21  C   UNL     1       6.042   4.972  16.044  0.00  0.00    +0.000 A 
ATOM     22  N   UNL     1       5.414   4.092  15.300  0.00  0.00    +0.000 NA
ATOM     23  C   UNL     1       6.029   4.108  14.080  0.00  0.00    +0.000 A 
ATOM     24  C   UNL     1       5.756   3.345  12.938  0.00  0.00    +0.000 A 
ATOM     25  C   UNL     1       6.551   3.532  11.803  0.00  0.00    +0.000 A 
ATOM     26  C   UNL     1       7.597   4.459  11.809  0.00  0.00    +0.000 A 
ATOM     27  C   UNL     1       7.876   5.241  12.942  0.00  0.00    +0.000 A 
ATOM     28  C   UNL     1       7.062   5.036  14.060  0.00  0.00    +0.000 A 
ATOM     29  N   UNL     1       7.025   5.598  15.315  0.00  0.00    +0.000 N 
ATOM     30  H   UNL     1       6.329   6.000  17.815  0.00  0.00    +0.000 HD
ATOM     31  H   UNL     1       7.638   6.329  15.644  0.00  0.00    +0.000 HD
ENDBRANCH  17  18
ENDBRANCH   1  17
TORSDOF 6
ENDMDL
MODEL 2
REMARK VINA RESULT:      -8.2      5.949      8.274
REMARK  Name = 
REMARK  6 active torsions:
REMARK  status: ('A' for Active; 'I' for Inactive)
REMARK    1  A    between atoms: N_1  and  N_2
REMARK    2  A    between atoms: C_3  and  C_4
REMARK    3  A    between atoms: C_4  and  C_5
REMARK    4  A    between atoms: C_13  and  S_14
REMARK    5  A    between atoms: S_14  and  C_15
REMARK    6  A    between atoms: C_15  and  C_16
REMARK                            x       y       z     vdW  Elec       q    Type
REMARK                         _______ _______ _______ _____ _____    ______ ____
ROOT
ATOM      1  S   UNL     1       7.244   6.414  16.673  0.00  0.00    +0.000 S 
ENDROOT
BRANCH   1   6
ATOM      2  N   UNL     1       5.146   4.645  16.894  0.00  0.00    +0.000 N 
ATOM      3  C   UNL     1       3.821   4.689  17.276  0.00  0.00    +0.000 A 
ATOM      4  N   UNL     1       3.519   5.934  17.608  0.00  0.00    +0.000 NA
ATOM      5  N   UNL     1       4.654   6.711  17.474  0.00  0.00    +0.000 NA
ATOM      6  C   UNL     1       5.622   5.927  17.058  0.00  0.00    +0.000 A 
BRANCH   2   7
ATOM      7  N   UNL     1       5.910   3.494  16.509  0.00  0.00    +0.000 N 
ATOM      8  H   UNL     1       5.336   2.718  16.200  0.00  0.00    +0.000 HD
ATOM      9  H   UNL     1       6.434   3.167  17.331  0.00  0.00    +0.000 HD
ENDBRANCH   2   7
BRANCH   3  10
ATOM     10  C   UNL     1       2.932   3.500  17.430  0.00  0.00    +0.000 C 
BRANCH  10  11
ATOM     11  C   UNL     1       2.475   3.181  18.839  0.00  0.00    +0.000 A 
ATOM     12  C   UNL     1       3.412   2.859  19.835  0.00  0.00    +0.000 A 
ATOM     13  C   UNL     1       3.016   2.700  21.167  0.00  0.00    +0.000 A 
ATOM     14  C   UNL     1       1.680   2.861  21.523  0.00  0.00    +0.000 A 
ATOM     15  C   UNL     1       0.736   3.164  20.543  0.00  0.00    +0.000 A 
ATOM     16  C   UNL     1       1.129   3.322  19.211  0.00  0.00    +0.000 A 
ENDBRANCH  10  11
ENDBRANCH   3  10
ENDBRANCH   1   6
BRANCH   1  17
ATOM     17  C   UNL     1       7.817   7.158  18.231  0.00  0.00    +0.000 C 
BRANCH  17  18
ATOM     18  C   UNL     1       8.120   8.642  18.087  0.00  0.00    +0.000 C 
ATOM     19  O   UNL     1       7.680   9.300  17.143  0.00  0.00    +0.000 OA
ATOM     20  N   UNL     1       8.965   9.134  19.085  0.00  0.00    +0.000 N 
ATOM     21  C   UNL     1       9.320  10.464  19.110  0.00  0.00    +0.000 A 
ATOM     22  N   UNL     1       8.880  11.415  18.321  0.00  0.00    +0.000 NA
ATOM     23  C   UNL     1       9.541  12.555  18.683  0.00  0.00    +0.000 A 
ATOM     24  C   UNL     1       9.449  13.844  18.144  0.00  0.00    +0.000 A 
ATOM     25  C   UNL     1      10.257  14.853  18.680  0.00  0.00    +0.000 A 
ATOM     26  C   UNL     1      11.137  14.578  19.731  0.00  0.00    +0.000 A 
ATOM     27  C   UNL     1      11.231  13.295  20.291  0.00  0.00    +0.000 A 
ATOM     28  C   UNL     1      10.409  12.308  19.738  0.00  0.00    +0.000 A 
ATOM     29  N   UNL     1      10.222  10.973  20.013  0.00  0.00    +0.000 N 
ATOM     30  H   UNL     1       9.353   8.507  19.775  0.00  0.00    +0.000 HD
ATOM     31  H   UNL     1      10.692  10.458  20.742  0.00  0.00    +0.000 HD
ENDBRANCH  17  18
ENDBRANCH   1  17
TORSDOF 6
ENDMDL
MODEL 3
REMARK VINA RESULT:      -8.1      3.113      4.044
REMARK  Name = 
REMARK  6 active torsions:
REMARK  status: ('A' for Active; 'I' for Inactive)
REMARK    1  A    between atoms: N_1  and  N_2
REMARK    2  A    between atoms: C_3  and  C_4
REMARK    3  A    between atoms: C_4  and  C_5
REMARK    4  A    between atoms: C_13  and  S_14
REMARK    5  A    between atoms: S_14  and  C_15
REMARK    6  A    between atoms: C_15  and  C_16
REMARK                            x       y       z     vdW  Elec       q    Type
REMARK                         _______ _______ _______ _____ _____    ______ ____
ROOT
ATOM      1  S   UNL     1       1.393   2.116  18.872  0.00  0.00    +0.000 S 
ENDROOT
BRANCH   1   6
ATOM      2  N   UNL     1       1.907   4.640  19.842  0.00  0.00    +0.000 N 
ATOM      3  C   UNL     1       2.044   5.913  19.328  0.00  0.00    +0.000 A 
ATOM      4  N   UNL     1       1.864   5.861  18.017  0.00  0.00    +0.000 NA
ATOM      5  N   UNL     1       1.636   4.546  17.658  0.00  0.00    +0.000 NA
ATOM      6  C   UNL     1       1.676   3.825  18.755  0.00  0.00    +0.000 A 
BRANCH   2   7
ATOM      7  N   UNL     1       2.074   4.221  21.203  0.00  0.00    +0.000 N 
ATOM      8  H   UNL     1       1.215   3.896  21.630  0.00  0.00    +0.000 HD
ATOM      9  H   UNL     1       2.389   5.033  21.751  0.00  0.00    +0.000 HD
ENDBRANCH   2   7
BRANCH   3  10
ATOM     10  C   UNL     1       2.474   7.112  20.106  0.00  0.00    +0.000 C 
BRANCH  10  11
ATOM     11  C   UNL     1       1.472   8.245  20.203  0.00  0.00    +0.000 A 
ATOM     12  C   UNL     1       0.723   8.434  21.377  0.00  0.00    +0.000 A 
ATOM     13  C   UNL     1      -0.099   9.555  21.529  0.00  0.00    +0.000 A 
ATOM     14  C   UNL     1      -0.185  10.503  20.512  0.00  0.00    +0.000 A 
ATOM     15  C   UNL     1       0.539  10.320  19.335  0.00  0.00    +0.000 A 
ATOM     16  C   UNL     1       1.360   9.199  19.180  0.00  0.00    +0.000 A 
ENDBRANCH  10  11
ENDBRANCH   3  10
ENDBRANCH   1   6
BRANCH   1  17
ATOM     17  C   UNL     1       3.063   1.422  18.683  0.00  0.00    +0.000 C 
BRANCH  17  18
ATOM     18  C   UNL     1       4.153   2.450  18.950  0.00  0.00    +0.000 C 
ATOM     19  O   UNL     1       4.787   2.456  20.006  0.00  0.00    +0.000 OA
ATOM     20  N   UNL     1       4.303   3.380  17.917  0.00  0.00    +0.000 N 
ATOM     21  C   UNL     1       5.261   4.365  17.995  0.00  0.00    +0.000 A 
ATOM     22  N   UNL     1       6.169   4.513  18.930  0.00  0.00    +0.000 NA
ATOM     23  C   UNL     1       6.864   5.647  18.618  0.00  0.00    +0.000 A 
ATOM     24  C   UNL     1       7.924   6.256  19.301  0.00  0.00    +0.000 A 
ATOM     25  C   UNL     1       8.461   7.440  18.784  0.00  0.00    +0.000 A 
ATOM     26  C   UNL     1       7.949   8.003  17.612  0.00  0.00    +0.000 A 
ATOM     27  C   UNL     1       6.896   7.398  16.908  0.00  0.00    +0.000 A 
ATOM     28  C   UNL     1       6.382   6.214  17.445  0.00  0.00    +0.000 A 
ATOM     29  N   UNL     1       5.382   5.356  17.050  0.00  0.00    +0.000 N 
ATOM     30  H   UNL     1       3.681   3.357  17.121  0.00  0.00    +0.000 HD
ATOM     31  H   UNL     1       4.821   5.459  16.218  0.00  0.00    +0.000 HD
ENDBRANCH  17  18
ENDBRANCH   1  17
TORSDOF 6
ENDMDL
MODEL 4
REMARK VINA RESULT:      -8.1      4.349      8.202
REMARK  Name = 
REMARK  6 active torsions:
REMARK  status: ('A' for Active; 'I' for Inactive)
REMARK    1  A    between atoms: N_1  and  N_2
REMARK    2  A    between atoms: C_3  and  C_4
REMARK    3  A    between atoms: C_4  and  C_5
REMARK    4  A    between atoms: C_13  and  S_14
REMARK    5  A    between atoms: S_14  and  C_15
REMARK    6  A    between atoms: C_15  and  C_16
REMARK                            x       y       z     vdW  Elec       q    Type
REMARK                         _______ _______ _______ _____ _____    ______ ____
ROOT
ATOM      1  S   UNL     1       6.911   4.525  17.258  0.00  0.00    +0.000 S 
ENDROOT
BRANCH   1   6
ATOM      2  N   UNL     1       7.929   6.748  18.523  0.00  0.00    +0.000 N 
ATOM      3  C   UNL     1       8.062   8.094  18.252  0.00  0.00    +0.000 A 
ATOM      4  N   UNL     1       7.539   8.339  17.061  0.00  0.00    +0.000 NA
ATOM      5  N   UNL     1       7.085   7.148  16.528  0.00  0.00    +0.000 NA
ATOM      6  C   UNL     1       7.335   6.203  17.406  0.00  0.00    +0.000 A 
BRANCH   2   7
ATOM      7  N   UNL     1       8.403   6.033  19.672  0.00  0.00    +0.000 N 
ATOM      8  H   UNL     1       8.737   6.641  20.411  0.00  0.00    +0.000 HD
ATOM      9  H   UNL     1       9.200   5.452  19.382  0.00  0.00    +0.000 HD
ENDBRANCH   2   7
BRANCH   3  10
ATOM     10  C   UNL     1       8.807   9.071  19.100  0.00  0.00    +0.000 C 
BRANCH  10  11
ATOM     11  C   UNL     1       9.177  10.386  18.444  0.00  0.00    +0.000 A 
ATOM     12  C   UNL     1       8.177  11.271  18.010  0.00  0.00    +0.000 A 
ATOM     13  C   UNL     1       8.505  12.544  17.532  0.00  0.00    +0.000 A 
ATOM     14  C   UNL     1       9.835  12.950  17.480  0.00  0.00    +0.000 A 
ATOM     15  C   UNL     1      10.841  12.077  17.892  0.00  0.00    +0.000 A 
ATOM     16  C   UNL     1      10.515  10.803  18.369  0.00  0.00    +0.000 A 
ENDBRANCH  10  11
ENDBRANCH   3  10
ENDBRANCH   1   6
BRANCH   1  17
ATOM     17  C   UNL     1       5.181   4.600  16.702  0.00  0.00    +0.000 C 
BRANCH  17  18
ATOM     18  C   UNL     1       4.269   5.256  17.729  0.00  0.00    +0.000 C 
ATOM     19  O   UNL     1       3.936   4.671  18.761  0.00  0.00    +0.000 OA
ATOM     20  N   UNL     1       3.833   6.528  17.350  0.00  0.00    +0.000 N 
ATOM     21  C   UNL     1       3.017   7.264  18.179  0.00  0.00    +0.000 A 
ATOM     22  N   UNL     1       2.633   6.951  19.393  0.00  0.00    +0.000 NA
ATOM     23  C   UNL     1       1.799   7.952  19.806  0.00  0.00    +0.000 A 
ATOM     24  C   UNL     1       1.108   8.091  21.015  0.00  0.00    +0.000 A 
ATOM     25  C   UNL     1       0.287   9.209  21.193  0.00  0.00    +0.000 A 
ATOM     26  C   UNL     1       0.159  10.167  20.183  0.00  0.00    +0.000 A 
ATOM     27  C   UNL     1       0.855  10.050  18.970  0.00  0.00    +0.000 A 
ATOM     28  C   UNL     1       1.671   8.924  18.822  0.00  0.00    +0.000 A 
ATOM     29  N   UNL     1       2.486   8.477  17.808  0.00  0.00    +0.000 N 
ATOM     30  H   UNL     1       4.083   6.901  16.445  0.00  0.00    +0.000 HD
ATOM     31  H   UNL     1       2.642   8.955  16.933  0.00  0.00    +0.000 HD
ENDBRANCH  17  18
ENDBRANCH   1  17
TORSDOF 6
ENDMDL
MODEL 5
REMARK VINA RESULT:      -8.1      6.690      9.062
REMARK  Name = 
REMARK  6 active torsions:
REMARK  status: ('A' for Active; 'I' for Inactive)
REMARK    1  A    between atoms: N_1  and  N_2
REMARK    2  A    between atoms: C_3  and  C_4
REMARK    3  A    between atoms: C_4  and  C_5
REMARK    4  A    between atoms: C_13  and  S_14
REMARK    5  A    between atoms: S_14  and  C_15
REMARK    6  A    between atoms: C_15  and  C_16
REMARK                            x       y       z     vdW  Elec       q    Type
REMARK                         _______ _______ _______ _____ _____    ______ ____
ROOT
ATOM      1  S   UNL     1       8.167   7.423  18.551  0.00  0.00    +0.000 S 
ENDROOT
BRANCH   1   6
ATOM      2  N   UNL     1       6.733   5.170  17.882  0.00  0.00    +0.000 N 
ATOM      3  C   UNL     1       6.243   4.588  16.732  0.00  0.00    +0.000 A 
ATOM      4  N   UNL     1       6.582   5.342  15.698  0.00  0.00    +0.000 NA
ATOM      5  N   UNL     1       7.274   6.442  16.167  0.00  0.00    +0.000 NA
ATOM      6  C   UNL     1       7.348   6.334  17.474  0.00  0.00    +0.000 A 
BRANCH   2   7
ATOM      7  N   UNL     1       6.556   4.727  19.234  0.00  0.00    +0.000 N 
ATOM      8  H   UNL     1       5.906   5.299  19.761  0.00  0.00    +0.000 HD
ATOM      9  H   UNL     1       7.464   4.792  19.714  0.00  0.00    +0.000 HD
ENDBRANCH   2   7
BRANCH   3  10
ATOM     10  C   UNL     1       5.351   3.391  16.689  0.00  0.00    +0.000 C 
BRANCH  10  11
ATOM     11  C   UNL     1       3.989   3.544  17.336  0.00  0.00    +0.000 A 
ATOM     12  C   UNL     1       3.393   4.810  17.449  0.00  0.00    +0.000 A 
ATOM     13  C   UNL     1       2.082   4.946  17.916  0.00  0.00    +0.000 A 
ATOM     14  C   UNL     1       1.348   3.819  18.275  0.00  0.00    +0.000 A 
ATOM     15  C   UNL     1       1.931   2.557  18.184  0.00  0.00    +0.000 A 
ATOM     16  C   UNL     1       3.242   2.419  17.719  0.00  0.00    +0.000 A 
ENDBRANCH  10  11
ENDBRANCH   3  10
ENDBRANCH   1   6
BRANCH   1  17
ATOM     17  C   UNL     1       7.885   9.042  17.770  0.00  0.00    +0.000 C 
BRANCH  17  18
ATOM     18  C   UNL     1       8.740  10.140  18.386  0.00  0.00    +0.000 C 
ATOM     19  O   UNL     1       9.366   9.958  19.431  0.00  0.00    +0.000 OA
ATOM     20  N   UNL     1       8.688  11.345  17.680  0.00  0.00    +0.000 N 
ATOM     21  C   UNL     1       9.422  12.432  18.096  0.00  0.00    +0.000 A 
ATOM     22  N   UNL     1      10.286  12.474  19.082  0.00  0.00    +0.000 NA
ATOM     23  C   UNL     1      10.730  13.764  19.154  0.00  0.00    +0.000 A 
ATOM     24  C   UNL     1      11.645  14.341  20.043  0.00  0.00    +0.000 A 
ATOM     25  C   UNL     1      11.922  15.706  19.925  0.00  0.00    +0.000 A 
ATOM     26  C   UNL     1      11.298  16.479  18.942  0.00  0.00    +0.000 A 
ATOM     27  C   UNL     1      10.388  15.914  18.035  0.00  0.00    +0.000 A 
ATOM     28  C   UNL     1      10.133  14.546  18.173  0.00  0.00    +0.000 A 
ATOM     29  N   UNL     1       9.330  13.662  17.490  0.00  0.00    +0.000 N 
ATOM     30  H   UNL     1       8.080  11.436  16.879  0.00  0.00    +0.000 HD
ATOM     31  H   UNL     1       8.754  13.895  16.695  0.00  0.00    +0.000 HD
ENDBRANCH  17  18
ENDBRANCH   1  17
TORSDOF 6
ENDMDL
MODEL 6
REMARK VINA RESULT:      -8.1      6.277      8.803
REMARK  Name = 
REMARK  6 active torsions:
REMARK  status: ('A' for Active; 'I' for Inactive)
REMARK    1  A    between atoms: N_1  and  N_2
REMARK    2  A    between atoms: C_3  and  C_4
REMARK    3  A    between atoms: C_4  and  C_5
REMARK    4  A    between atoms: C_13  and  S_14
REMARK    5  A    between atoms: S_14  and  C_15
REMARK    6  A    between atoms: C_15  and  C_16
REMARK                            x       y       z     vdW  Elec       q    Type
REMARK                         _______ _______ _______ _____ _____    ______ ____
ROOT
ATOM      1  S   UNL     1       7.949   6.790  18.529  0.00  0.00    +0.000 S 
ENDROOT
BRANCH   1   6
ATOM      2  N   UNL     1       5.705   5.536  17.545  0.00  0.00    +0.000 N 
ATOM      3  C   UNL     1       5.421   4.520  16.657  0.00  0.00    +0.000 A 
ATOM      4  N   UNL     1       6.561   4.043  16.182  0.00  0.00    +0.000 NA
ATOM      5  N   UNL     1       7.602   4.765  16.735  0.00  0.00    +0.000 NA
ATOM      6  C   UNL     1       7.077   5.662  17.538  0.00  0.00    +0.000 A 
BRANCH   2   7
ATOM      7  N   UNL     1       4.775   6.368  18.252  0.00  0.00    +0.000 N 
ATOM      8  H   UNL     1       4.479   5.975  19.138  0.00  0.00    +0.000 HD
ATOM      9  H   UNL     1       3.929   6.466  17.674  0.00  0.00    +0.000 HD
ENDBRANCH   2   7
BRANCH   3  10
ATOM     10  C   UNL     1       4.052   4.134  16.202  0.00  0.00    +0.000 C 
BRANCH  10  11
ATOM     11  C   UNL     1       3.169   3.454  17.229  0.00  0.00    +0.000 A 
ATOM     12  C   UNL     1       3.614   2.304  17.900  0.00  0.00    +0.000 A 
ATOM     13  C   UNL     1       2.868   1.751  18.946  0.00  0.00    +0.000 A 
ATOM     14  C   UNL     1       1.669   2.340  19.337  0.00  0.00    +0.000 A 
ATOM     15  C   UNL     1       1.206   3.473  18.670  0.00  0.00    +0.000 A 
ATOM     16  C   UNL     1       1.949   4.026  17.623  0.00  0.00    +0.000 A 
ENDBRANCH  10  11
ENDBRANCH   3  10
ENDBRANCH   1   6
BRANCH   1  17
ATOM     17  C   UNL     1       7.744   8.355  17.625  0.00  0.00    +0.000 C 
BRANCH  17  18
ATOM     18  C   UNL     1       8.521   9.499  18.262  0.00  0.00    +0.000 C 
ATOM     19  O   UNL     1       9.179   9.335  19.291  0.00  0.00    +0.000 OA
ATOM     20  N   UNL     1       8.362  10.716  17.594  0.00  0.00    +0.000 N 
ATOM     21  C   UNL     1       9.015  11.846  18.032  0.00  0.00    +0.000 A 
ATOM     22  N   UNL     1       9.891  11.926  19.006  0.00  0.00    +0.000 NA
ATOM     23  C   UNL     1      10.234  13.244  19.111  0.00  0.00    +0.000 A 
ATOM     24  C   UNL     1      11.117  13.865  20.002  0.00  0.00    +0.000 A 
ATOM     25  C   UNL     1      11.284  15.251  19.924  0.00  0.00    +0.000 A 
ATOM     26  C   UNL     1      10.582  16.001  18.975  0.00  0.00    +0.000 A 
ATOM     27  C   UNL     1       9.703  15.393  18.065  0.00  0.00    +0.000 A 
ATOM     28  C   UNL     1       9.559  14.006  18.165  0.00  0.00    +0.000 A 
ATOM     29  N   UNL     1       8.815  13.082  17.467  0.00  0.00    +0.000 N 
ATOM     30  H   UNL     1       7.733  10.783  16.806  0.00  0.00    +0.000 HD
ATOM     31  H   UNL     1       8.209  13.292  16.689  0.00  0.00    +0.000 HD
ENDBRANCH  17  18
ENDBRANCH   1  17
TORSDOF 6
ENDMDL
MODEL 7
REMARK VINA RESULT:      -8.0      6.843      9.140
REMARK  Name = 
REMARK  6 active torsions:
REMARK  status: ('A' for Active; 'I' for Inactive)
REMARK    1  A    between atoms: N_1  and  N_2
REMARK    2  A    between atoms: C_3  and  C_4
REMARK    3  A    between atoms: C_4  and  C_5
REMARK    4  A    between atoms: C_13  and  S_14
REMARK    5  A    between atoms: S_14  and  C_15
REMARK    6  A    between atoms: C_15  and  C_16
REMARK                            x       y       z     vdW  Elec       q    Type
REMARK                         _______ _______ _______ _____ _____    ______ ____
ROOT
ATOM      1  S   UNL     1       7.710   8.638  17.562  0.00  0.00    +0.000 S 
ENDROOT
BRANCH   1   6
ATOM      2  N   UNL     1       6.283   6.368  16.941  0.00  0.00    +0.000 N 
ATOM      3  C   UNL     1       6.177   5.078  17.417  0.00  0.00    +0.000 A 
ATOM      4  N   UNL     1       6.990   4.942  18.453  0.00  0.00    +0.000 NA
ATOM      5  N   UNL     1       7.656   6.137  18.647  0.00  0.00    +0.000 NA
ATOM      6  C   UNL     1       7.235   6.977  17.730  0.00  0.00    +0.000 A 
BRANCH   2   7
ATOM      7  N   UNL     1       5.628   6.938  15.800  0.00  0.00    +0.000 N 
ATOM      8  H   UNL     1       6.099   7.759  15.437  0.00  0.00    +0.000 HD
ATOM      9  H   UNL     1       4.687   7.240  16.089  0.00  0.00    +0.000 HD
ENDBRANCH   2   7
BRANCH   3  10
ATOM     10  C   UNL     1       5.392   3.985  16.770  0.00  0.00    +0.000 C 
BRANCH  10  11
ATOM     11  C   UNL     1       3.995   3.752  17.309  0.00  0.00    +0.000 A 
ATOM     12  C   UNL     1       3.593   2.467  17.711  0.00  0.00    +0.000 A 
ATOM     13  C   UNL     1       2.359   2.267  18.339  0.00  0.00    +0.000 A 
ATOM     14  C   UNL     1       1.510   3.345  18.574  0.00  0.00    +0.000 A 
ATOM     15  C   UNL     1       1.889   4.623  18.167  0.00  0.00    +0.000 A 
ATOM     16  C   UNL     1       3.121   4.826  17.538  0.00  0.00    +0.000 A 
ENDBRANCH  10  11
ENDBRANCH   3  10
ENDBRANCH   1   6
BRANCH   1  17
ATOM     17  C   UNL     1       8.935   8.838  18.891  0.00  0.00    +0.000 C 
BRANCH  17  18
ATOM     18  C   UNL     1       9.256  10.300  19.170  0.00  0.00    +0.000 C 
ATOM     19  O   UNL     1       9.086  10.794  20.286  0.00  0.00    +0.000 OA
ATOM     20  N   UNL     1       9.697  10.995  18.041  0.00  0.00    +0.000 N 
ATOM     21  C   UNL     1      10.048  12.324  18.130  0.00  0.00    +0.000 A 
ATOM     22  N   UNL     1      10.108  13.055  19.217  0.00  0.00    +0.000 NA
ATOM     23  C   UNL     1      10.454  14.315  18.817  0.00  0.00    +0.000 A 
ATOM     24  C   UNL     1      10.634  15.473  19.583  0.00  0.00    +0.000 A 
ATOM     25  C   UNL     1      10.970  16.663  18.930  0.00  0.00    +0.000 A 
ATOM     26  C   UNL     1      11.122  16.695  17.540  0.00  0.00    +0.000 A 
ATOM     27  C   UNL     1      10.958  15.541  16.759  0.00  0.00    +0.000 A 
ATOM     28  C   UNL     1      10.627  14.365  17.439  0.00  0.00    +0.000 A 
ATOM     29  N   UNL     1      10.395  13.072  17.031  0.00  0.00    +0.000 N 
ATOM     30  H   UNL     1       9.724  10.536  17.142  0.00  0.00    +0.000 HD
ATOM     31  H   UNL     1      10.450  12.744  16.078  0.00  0.00    +0.000 HD
ENDBRANCH  17  18
ENDBRANCH   1  17
TORSDOF 6
ENDMDL
MODEL 8
REMARK VINA RESULT:      -8.0      6.333      8.718
REMARK  Name = 
REMARK  6 active torsions:
REMARK  status: ('A' for Active; 'I' for Inactive)
REMARK    1  A    between atoms: N_1  and  N_2
REMARK    2  A    between atoms: C_3  and  C_4
REMARK    3  A    between atoms: C_4  and  C_5
REMARK    4  A    between atoms: C_13  and  S_14
REMARK    5  A    between atoms: S_14  and  C_15
REMARK    6  A    between atoms: C_15  and  C_16
REMARK                            x       y       z     vdW  Elec       q    Type
REMARK                         _______ _______ _______ _____ _____    ______ ____
ROOT
ATOM      1  S   UNL     1       7.750   7.018  18.326  0.00  0.00    +0.000 S 
ENDROOT
BRANCH   1   6
ATOM      2  N   UNL     1       5.857   5.076  17.860  0.00  0.00    +0.000 N 
ATOM      3  C   UNL     1       4.600   5.003  17.297  0.00  0.00    +0.000 A 
ATOM      4  N   UNL     1       4.256   6.209  16.873  0.00  0.00    +0.000 NA
ATOM      5  N   UNL     1       5.276   7.089  17.182  0.00  0.00    +0.000 NA
ATOM      6  C   UNL     1       6.220   6.403  17.782  0.00  0.00    +0.000 A 
BRANCH   2   7
ATOM      7  N   UNL     1       6.596   4.024  18.495  0.00  0.00    +0.000 N 
ATOM      8  H   UNL     1       7.231   3.546  17.866  0.00  0.00    +0.000 HD
ATOM      9  H   UNL     1       5.925   3.320  18.832  0.00  0.00    +0.000 HD
ENDBRANCH   2   7
BRANCH   3  10
ATOM     10  C   UNL     1       3.723   3.795  17.307  0.00  0.00    +0.000 C 
BRANCH  10  11
ATOM     11  C   UNL     1       2.737   3.689  18.454  0.00  0.00    +0.000 A 
ATOM     12  C   UNL     1       1.555   2.945  18.309  0.00  0.00    +0.000 A 
ATOM     13  C   UNL     1       0.708   2.726  19.400  0.00  0.00    +0.000 A 
ATOM     14  C   UNL     1       1.031   3.245  20.651  0.00  0.00    +0.000 A 
ATOM     15  C   UNL     1       2.193   3.998  20.807  0.00  0.00    +0.000 A 
ATOM     16  C   UNL     1       3.040   4.221  19.717  0.00  0.00    +0.000 A 
ENDBRANCH  10  11
ENDBRANCH   3  10
ENDBRANCH   1   6
BRANCH   1  17
ATOM     17  C   UNL     1       7.901   8.580  17.406  0.00  0.00    +0.000 C 
BRANCH  17  18
ATOM     18  C   UNL     1       8.546   9.682  18.233  0.00  0.00    +0.000 C 
ATOM     19  O   UNL     1       8.991   9.462  19.361  0.00  0.00    +0.000 OA
ATOM     20  N   UNL     1       8.526  10.930  17.607  0.00  0.00    +0.000 N 
ATOM     21  C   UNL     1       9.088  12.029  18.216  0.00  0.00    +0.000 A 
ATOM     22  N   UNL     1       9.760  12.052  19.342  0.00  0.00    +0.000 NA
ATOM     23  C   UNL     1      10.083  13.360  19.574  0.00  0.00    +0.000 A 
ATOM     24  C   UNL     1      10.780  13.926  20.648  0.00  0.00    +0.000 A 
ATOM     25  C   UNL     1      10.967  15.312  20.669  0.00  0.00    +0.000 A 
ATOM     26  C   UNL     1      10.466  16.114  19.640  0.00  0.00    +0.000 A 
ATOM     27  C   UNL     1       9.776  15.561  18.549  0.00  0.00    +0.000 A 
ATOM     28  C   UNL     1       9.608  14.173  18.553  0.00  0.00    +0.000 A 
ATOM     29  N   UNL     1       9.008  13.293  17.682  0.00  0.00    +0.000 N 
ATOM     30  H   UNL     1       8.062  11.043  16.716  0.00  0.00    +0.000 HD
ATOM     31  H   UNL     1       8.565  13.547  16.812  0.00  0.00    +0.000 HD
ENDBRANCH  17  18
ENDBRANCH   1  17
TORSDOF 6
ENDMDL
MODEL 9
REMARK VINA RESULT:      -7.8      4.410      8.511
REMARK  Name = 
REMARK  6 active torsions:
REMARK  status: ('A' for Active; 'I' for Inactive)
REMARK    1  A    between atoms: N_1  and  N_2
REMARK    2  A    between atoms: C_3  and  C_4
REMARK    3  A    between atoms: C_4  and  C_5
REMARK    4  A    between atoms: C_13  and  S_14
REMARK    5  A    between atoms: S_14  and  C_15
REMARK    6  A    between atoms: C_15  and  C_16
REMARK                            x       y       z     vdW  Elec       q    Type
REMARK                         _______ _______ _______ _____ _____    ______ ____
ROOT
ATOM      1  S   UNL     1       6.753   4.512  17.346  0.00  0.00    +0.000 S 
ENDROOT
BRANCH   1   6
ATOM      2  N   UNL     1       7.296   7.211  17.358  0.00  0.00    +0.000 N 
ATOM      3  C   UNL     1       8.017   8.094  18.134  0.00  0.00    +0.000 A 
ATOM      4  N   UNL     1       8.591   7.421  19.119  0.00  0.00    +0.000 NA
ATOM      5  N   UNL     1       8.226   6.092  19.011  0.00  0.00    +0.000 NA
ATOM      6  C   UNL     1       7.443   5.982  17.963  0.00  0.00    +0.000 A 
BRANCH   2   7
ATOM      7  N   UNL     1       6.475   7.510  16.221  0.00  0.00    +0.000 N 
ATOM      8  H   UNL     1       6.910   7.269  15.338  0.00  0.00    +0.000 HD
ATOM      9  H   UNL     1       6.310   8.526  16.203  0.00  0.00    +0.000 HD
ENDBRANCH   2   7
BRANCH   3  10
ATOM     10  C   UNL     1       8.018   9.578  17.970  0.00  0.00    +0.000 C 
BRANCH  10  11
ATOM     11  C   UNL     1       9.155  10.327  18.635  0.00  0.00    +0.000 A 
ATOM     12  C   UNL     1      10.189  10.883  17.864  0.00  0.00    +0.000 A 
ATOM     13  C   UNL     1      11.166  11.693  18.452  0.00  0.00    +0.000 A 
ATOM     14  C   UNL     1      11.124  11.960  19.818  0.00  0.00    +0.000 A 
ATOM     15  C   UNL     1      10.113  11.403  20.599  0.00  0.00    +0.000 A 
ATOM     16  C   UNL     1       9.136  10.591  20.014  0.00  0.00    +0.000 A 
ENDBRANCH  10  11
ENDBRANCH   3  10
ENDBRANCH   1   6
BRANCH   1  17
ATOM     17  C   UNL     1       5.229   4.347  18.324  0.00  0.00    +0.000 C 
BRANCH  17  18
ATOM     18  C   UNL     1       4.297   5.539  18.152  0.00  0.00    +0.000 C 
ATOM     19  O   UNL     1       4.191   6.122  17.072  0.00  0.00    +0.000 OA
ATOM     20  N   UNL     1       3.645   5.907  19.332  0.00  0.00    +0.000 N 
ATOM     21  C   UNL     1       2.752   6.954  19.341  0.00  0.00    +0.000 A 
ATOM     22  N   UNL     1       2.337   7.650  18.308  0.00  0.00    +0.000 NA
ATOM     23  C   UNL     1       1.498   8.609  18.800  0.00  0.00    +0.000 A 
ATOM     24  C   UNL     1       0.805   9.617  18.119  0.00  0.00    +0.000 A 
ATOM     25  C   UNL     1       0.015  10.503  18.858  0.00  0.00    +0.000 A 
ATOM     26  C   UNL     1      -0.080  10.385  20.248  0.00  0.00    +0.000 A 
ATOM     27  C   UNL     1       0.598   9.372  20.945  0.00  0.00    +0.000 A 
ATOM     28  C   UNL     1       1.377   8.499  20.179  0.00  0.00    +0.000 A 
ATOM     29  N   UNL     1       2.160   7.412  20.494  0.00  0.00    +0.000 N 
ATOM     30  H   UNL     1       3.855   5.429  20.197  0.00  0.00    +0.000 HD
ATOM     31  H   UNL     1       2.291   7.038  21.421  0.00  0.00    +0.000 HD
ENDBRANCH  17  18
ENDBRANCH   1  17
TORSDOF 6
ENDMDL
