MODEL 1
REMARK VINA RESULT:      -7.7      0.000      0.000
REMARK  Name = 
REMARK  7 active torsions:
REMARK  status: ('A' for Active; 'I' for Inactive)
REMARK    1  A    between atoms: C_1  and  C_2
REMARK    2  A    between atoms: C_5  and  C_6
REMARK    3  A    between atoms: C_14  and  N_15
REMARK    4  A    between atoms: C_17  and  C_18
REMARK    5  A    between atoms: C_17  and  C_19
REMARK    6  A    between atoms: C_23  and  N_24
REMARK    7  A    between atoms: C_32  and  C_33
REMARK                            x       y       z     vdW  Elec       q    Type
REMARK                         _______ _______ _______ _____ _____    ______ ____
ROOT
ATOM      1  N   UNL     1      -4.241  12.390  19.808  0.00  0.00    +0.000 N 
ATOM      2  C   UNL     1      -5.411  11.475  19.812  0.00  0.00    +0.000 C 
ATOM      3  C   UNL     1      -6.668  12.236  20.192  0.00  0.00    +0.000 C 
ATOM      4  C   UNL     1      -7.331  12.952  19.017  0.00  0.00    +0.000 C 
ATOM      5  C   UNL     1      -7.638  11.269  20.885  0.00  0.00    +0.000 C 
ATOM      6  C   UNL     1      -6.022  13.227  21.108  0.00  0.00    +0.000 A 
ATOM      7  C   UNL     1      -6.714  13.891  22.112  0.00  0.00    +0.000 A 
ATOM      8  C   UNL     1      -6.007  14.739  22.929  0.00  0.00    +0.000 A 
ATOM      9  C   UNL     1      -4.641  15.033  22.733  0.00  0.00    +0.000 A 
ATOM     10  C   UNL     1      -3.945  14.307  21.656  0.00  0.00    +0.000 A 
ATOM     11  C   UNL     1      -4.634  13.365  20.841  0.00  0.00    +0.000 A 
ENDROOT
BRANCH   1  21
ATOM     12  C   UNL     1      -2.668  10.012  15.564  0.00  0.00    +0.000 C 
ATOM     13  C   UNL     1      -2.490  10.651  16.917  0.00  0.00    +0.000 A 
ATOM     14  N   UNL     1      -1.304  10.318  17.449  0.00  0.00    +0.000 NA
ATOM     15  C   UNL     1      -0.987  10.654  18.675  0.00  0.00    +0.000 A 
ATOM     16  C   UNL     1       0.241  10.162  19.136  0.00  0.00    +0.000 A 
ATOM     17  C   UNL     1       0.632  10.359  20.466  0.00  0.00    +0.000 A 
ATOM     18  C   UNL     1      -0.172  11.097  21.304  0.00  0.00    +0.000 A 
ATOM     19  C   UNL     1      -1.357  11.661  20.807  0.00  0.00    +0.000 A 
ATOM     20  C   UNL     1      -1.868  11.431  19.492  0.00  0.00    +0.000 A 
ATOM     21  C   UNL     1      -3.184  11.875  18.925  0.00  0.00    +0.000 A 
ATOM     22  C   UNL     1      -3.462  11.446  17.591  0.00  0.00    +0.000 A 
ATOM     23  C   UNL     1      -4.772  11.634  16.886  0.00  0.00    +0.000 C 
BRANCH  16  24
ATOM     24  C   UNL     1       1.222   9.420  18.250  0.00  0.00    +0.000 C 
ATOM     25  F   UNL     1       0.734   8.527  17.349  0.00  0.00    +0.000 F 
ATOM     26  F   UNL     1       1.979  10.294  17.515  0.00  0.00    +0.000 F 
ATOM     27  F   UNL     1       2.138   8.715  18.988  0.00  0.00    +0.000 F 
ENDBRANCH  16  24
ENDBRANCH   1  21
BRANCH   9  28
ATOM     28  N   UNL     1      -4.075  15.921  23.682  0.00  0.00    +0.000 N 
ATOM     29  C   UNL     1      -4.895  16.749  24.580  0.00  0.00    +0.000 C 
ATOM     30  C   UNL     1      -4.078  17.986  25.037  0.00  0.00    +0.000 C 
ATOM     31  O   UNL     1      -2.856  17.622  25.698  0.00  0.00    +0.000 OA
ATOM     32  C   UNL     1      -2.024  16.896  24.790  0.00  0.00    +0.000 C 
ATOM     33  C   UNL     1      -2.737  15.616  24.278  0.00  0.00    +0.000 C 
ENDBRANCH   9  28
TORSDOF 3
ENDMDL
MODEL 2
REMARK VINA RESULT:      -7.5      0.624      1.223
REMARK  Name = 
REMARK  7 active torsions:
REMARK  status: ('A' for Active; 'I' for Inactive)
REMARK    1  A    between atoms: C_1  and  C_2
REMARK    2  A    between atoms: C_5  and  C_6
REMARK    3  A    between atoms: C_14  and  N_15
REMARK    4  A    between atoms: C_17  and  C_18
REMARK    5  A    between atoms: C_17  and  C_19
REMARK    6  A    between atoms: C_23  and  N_24
REMARK    7  A    between atoms: C_32  and  C_33
REMARK                            x       y       z     vdW  Elec       q    Type
REMARK                         _______ _______ _______ _____ _____    ______ ____
ROOT
ATOM      1  N   UNL     1      -4.453  12.529  19.844  0.00  0.00    +0.000 N 
ATOM      2  C   UNL     1      -5.526  11.506  19.947  0.00  0.00    +0.000 C 
ATOM      3  C   UNL     1      -6.853  12.172  20.268  0.00  0.00    +0.000 C 
ATOM      4  C   UNL     1      -7.586  12.704  19.039  0.00  0.00    +0.000 C 
ATOM      5  C   UNL     1      -7.719  11.184  21.060  0.00  0.00    +0.000 C 
ATOM      6  C   UNL     1      -6.307  13.305  21.079  0.00  0.00    +0.000 A 
ATOM      7  C   UNL     1      -7.059  13.988  22.024  0.00  0.00    +0.000 A 
ATOM      8  C   UNL     1      -6.439  14.976  22.750  0.00  0.00    +0.000 A 
ATOM      9  C   UNL     1      -5.109  15.384  22.512  0.00  0.00    +0.000 A 
ATOM     10  C   UNL     1      -4.347  14.633  21.499  0.00  0.00    +0.000 A 
ATOM     11  C   UNL     1      -4.939  13.553  20.784  0.00  0.00    +0.000 A 
ENDROOT
BRANCH   1  21
ATOM     12  C   UNL     1      -2.667  10.187  15.664  0.00  0.00    +0.000 C 
ATOM     13  C   UNL     1      -2.554  10.832  17.021  0.00  0.00    +0.000 A 
ATOM     14  N   UNL     1      -1.381  10.529  17.597  0.00  0.00    +0.000 NA
ATOM     15  C   UNL     1      -1.117  10.875  18.834  0.00  0.00    +0.000 A 
ATOM     16  C   UNL     1       0.105  10.415  19.340  0.00  0.00    +0.000 A 
ATOM     17  C   UNL     1       0.442  10.623  20.683  0.00  0.00    +0.000 A 
ATOM     18  C   UNL     1      -0.410  11.341  21.489  0.00  0.00    +0.000 A 
ATOM     19  C   UNL     1      -1.590  11.875  20.949  0.00  0.00    +0.000 A 
ATOM     20  C   UNL     1      -2.048  11.631  19.616  0.00  0.00    +0.000 A 
ATOM     21  C   UNL     1      -3.353  12.040  19.001  0.00  0.00    +0.000 A 
ATOM     22  C   UNL     1      -3.571  11.602  17.658  0.00  0.00    +0.000 A 
ATOM     23  C   UNL     1      -4.859  11.756  16.905  0.00  0.00    +0.000 C 
BRANCH  16  24
ATOM     24  C   UNL     1       1.136   9.697  18.492  0.00  0.00    +0.000 C 
ATOM     25  F   UNL     1       2.042  10.442  17.805  0.00  0.00    +0.000 F 
ATOM     26  F   UNL     1       1.883   8.835  19.251  0.00  0.00    +0.000 F 
ATOM     27  F   UNL     1       0.547   8.896  17.548  0.00  0.00    +0.000 F 
ENDBRANCH  16  24
ENDBRANCH   1  21
BRANCH   9  28
ATOM     28  N   UNL     1      -4.633  16.410  23.366  0.00  0.00    +0.000 N 
ATOM     29  C   UNL     1      -3.287  16.990  23.235  0.00  0.00    +0.000 C 
ATOM     30  C   UNL     1      -2.850  17.600  24.592  0.00  0.00    +0.000 C 
ATOM     31  O   UNL     1      -3.764  18.604  25.061  0.00  0.00    +0.000 OA
ATOM     32  C   UNL     1      -5.048  18.012  25.275  0.00  0.00    +0.000 C 
ATOM     33  C   UNL     1      -5.599  17.381  23.968  0.00  0.00    +0.000 C 
ENDBRANCH   9  28
TORSDOF 3
ENDMDL
MODEL 3
REMARK VINA RESULT:      -7.2      4.440      6.428
REMARK  Name = 
REMARK  7 active torsions:
REMARK  status: ('A' for Active; 'I' for Inactive)
REMARK    1  A    between atoms: C_1  and  C_2
REMARK    2  A    between atoms: C_5  and  C_6
REMARK    3  A    between atoms: C_14  and  N_15
REMARK    4  A    between atoms: C_17  and  C_18
REMARK    5  A    between atoms: C_17  and  C_19
REMARK    6  A    between atoms: C_23  and  N_24
REMARK    7  A    between atoms: C_32  and  C_33
REMARK                            x       y       z     vdW  Elec       q    Type
REMARK                         _______ _______ _______ _____ _____    ______ ____
ROOT
ATOM      1  N   UNL     1      -1.543  15.620  21.251  0.00  0.00    +0.000 N 
ATOM      2  C   UNL     1      -1.712  16.473  22.456  0.00  0.00    +0.000 C 
ATOM      3  C   UNL     1      -2.277  15.652  23.602  0.00  0.00    +0.000 C 
ATOM      4  C   UNL     1      -1.216  14.887  24.390  0.00  0.00    +0.000 C 
ATOM      5  C   UNL     1      -3.099  16.576  24.510  0.00  0.00    +0.000 C 
ATOM      6  C   UNL     1      -3.094  14.708  22.777  0.00  0.00    +0.000 A 
ATOM      7  C   UNL     1      -4.192  14.023  23.278  0.00  0.00    +0.000 A 
ATOM      8  C   UNL     1      -4.902  13.224  22.415  0.00  0.00    +0.000 A 
ATOM      9  C   UNL     1      -4.510  12.999  21.078  0.00  0.00    +0.000 A 
ATOM     10  C   UNL     1      -3.338  13.745  20.587  0.00  0.00    +0.000 A 
ATOM     11  C   UNL     1      -2.627  14.640  21.437  0.00  0.00    +0.000 A 
ENDROOT
BRANCH   1  21
ATOM     12  C   UNL     1      -0.090  18.183  17.073  0.00  0.00    +0.000 C 
ATOM     13  C   UNL     1       0.128  17.339  18.301  0.00  0.00    +0.000 A 
ATOM     14  N   UNL     1       1.342  16.767  18.277  0.00  0.00    +0.000 NA
ATOM     15  C   UNL     1       1.701  15.887  19.180  0.00  0.00    +0.000 A 
ATOM     16  C   UNL     1       2.957  15.300  18.983  0.00  0.00    +0.000 A 
ATOM     17  C   UNL     1       3.397  14.265  19.816  0.00  0.00    +0.000 A 
ATOM     18  C   UNL     1       2.612  13.869  20.874  0.00  0.00    +0.000 A 
ATOM     19  C   UNL     1       1.395  14.526  21.117  0.00  0.00    +0.000 A 
ATOM     20  C   UNL     1       0.836  15.527  20.261  0.00  0.00    +0.000 A 
ATOM     21  C   UNL     1      -0.512  16.177  20.364  0.00  0.00    +0.000 A 
ATOM     22  C   UNL     1      -0.834  17.105  19.327  0.00  0.00    +0.000 A 
ATOM     23  C   UNL     1      -2.175  17.749  19.139  0.00  0.00    +0.000 C 
BRANCH  16  24
ATOM     24  C   UNL     1       3.918  15.743  17.896  0.00  0.00    +0.000 C 
ATOM     25  F   UNL     1       4.452  16.991  17.974  0.00  0.00    +0.000 F 
ATOM     26  F   UNL     1       4.993  14.898  17.817  0.00  0.00    +0.000 F 
ATOM     27  F   UNL     1       3.343  15.679  16.654  0.00  0.00    +0.000 F 
ENDBRANCH  16  24
ENDBRANCH   1  21
BRANCH   9  28
ATOM     28  N   UNL     1      -5.370  12.155  20.334  0.00  0.00    +0.000 N 
ATOM     29  C   UNL     1      -6.745  11.848  20.759  0.00  0.00    +0.000 C 
ATOM     30  C   UNL     1      -7.198  10.506  20.129  0.00  0.00    +0.000 C 
ATOM     31  O   UNL     1      -7.131  10.525  18.694  0.00  0.00    +0.000 OA
ATOM     32  C   UNL     1      -5.776  10.730  18.286  0.00  0.00    +0.000 C 
ATOM     33  C   UNL     1      -5.218  12.066  18.847  0.00  0.00    +0.000 C 
ENDBRANCH   9  28
TORSDOF 3
ENDMDL
MODEL 4
REMARK VINA RESULT:      -7.2      2.463      3.936
REMARK  Name = 
REMARK  7 active torsions:
REMARK  status: ('A' for Active; 'I' for Inactive)
REMARK    1  A    between atoms: C_1  and  C_2
REMARK    2  A    between atoms: C_5  and  C_6
REMARK    3  A    between atoms: C_14  and  N_15
REMARK    4  A    between atoms: C_17  and  C_18
REMARK    5  A    between atoms: C_17  and  C_19
REMARK    6  A    between atoms: C_23  and  N_24
REMARK    7  A    between atoms: C_32  and  C_33
REMARK                            x       y       z     vdW  Elec       q    Type
REMARK                         _______ _______ _______ _____ _____    ______ ____
ROOT
ATOM      1  N   UNL     1      -3.756  13.496  21.602  0.00  0.00    +0.000 N 
ATOM      2  C   UNL     1      -4.475  12.577  22.521  0.00  0.00    +0.000 C 
ATOM      3  C   UNL     1      -4.818  13.296  23.814  0.00  0.00    +0.000 C 
ATOM      4  C   UNL     1      -6.109  14.108  23.742  0.00  0.00    +0.000 C 
ATOM      5  C   UNL     1      -4.860  12.266  24.952  0.00  0.00    +0.000 C 
ATOM      6  C   UNL     1      -3.631  14.206  23.847  0.00  0.00    +0.000 A 
ATOM      7  C   UNL     1      -3.148  14.775  25.017  0.00  0.00    +0.000 A 
ATOM      8  C   UNL     1      -2.018  15.553  24.938  0.00  0.00    +0.000 A 
ATOM      9  C   UNL     1      -1.390  15.870  23.715  0.00  0.00    +0.000 A 
ATOM     10  C   UNL     1      -1.936  15.246  22.497  0.00  0.00    +0.000 A 
ATOM     11  C   UNL     1      -3.060  14.374  22.558  0.00  0.00    +0.000 A 
ENDROOT
BRANCH   1  21
ATOM     12  C   UNL     1      -6.660  12.249  17.582  0.00  0.00    +0.000 C 
ATOM     13  C   UNL     1      -5.364  12.395  18.338  0.00  0.00    +0.000 A 
ATOM     14  N   UNL     1      -4.390  11.676  17.758  0.00  0.00    +0.000 NA
ATOM     15  C   UNL     1      -3.210  11.551  18.315  0.00  0.00    +0.000 A 
ATOM     16  C   UNL     1      -2.319  10.698  17.651  0.00  0.00    +0.000 A 
ATOM     17  C   UNL     1      -1.073  10.395  18.213  0.00  0.00    +0.000 A 
ATOM     18  C   UNL     1      -0.701  10.993  19.394  0.00  0.00    +0.000 A 
ATOM     19  C   UNL     1      -1.565  11.916  20.005  0.00  0.00    +0.000 A 
ATOM     20  C   UNL     1      -2.887  12.208  19.544  0.00  0.00    +0.000 A 
ATOM     21  C   UNL     1      -3.924  13.066  20.206  0.00  0.00    +0.000 A 
ATOM     22  C   UNL     1      -5.189  13.130  19.547  0.00  0.00    +0.000 A 
ATOM     23  C   UNL     1      -6.414  13.792  20.105  0.00  0.00    +0.000 C 
BRANCH  16  24
ATOM     24  C   UNL     1      -2.618  10.073  16.302  0.00  0.00    +0.000 C 
ATOM     25  F   UNL     1      -2.843  10.896  15.243  0.00  0.00    +0.000 F 
ATOM     26  F   UNL     1      -1.598   9.249  15.905  0.00  0.00    +0.000 F 
ATOM     27  F   UNL     1      -3.716   9.255  16.356  0.00  0.00    +0.000 F 
ENDBRANCH  16  24
ENDBRANCH   1  21
BRANCH   9  28
ATOM     28  N   UNL     1      -0.229  16.675  23.827  0.00  0.00    +0.000 N 
ATOM     29  C   UNL     1       0.239  17.549  22.739  0.00  0.00    +0.000 C 
ATOM     30  C   UNL     1       1.759  17.810  22.899  0.00  0.00    +0.000 C 
ATOM     31  O   UNL     1       2.082  18.404  24.167  0.00  0.00    +0.000 OA
ATOM     32  C   UNL     1       1.710  17.508  25.218  0.00  0.00    +0.000 C 
ATOM     33  C   UNL     1       0.192  17.188  25.169  0.00  0.00    +0.000 C 
ENDBRANCH   9  28
TORSDOF 3
ENDMDL
MODEL 5
REMARK VINA RESULT:      -7.1      2.879      4.736
REMARK  Name = 
REMARK  7 active torsions:
REMARK  status: ('A' for Active; 'I' for Inactive)
REMARK    1  A    between atoms: C_1  and  C_2
REMARK    2  A    between atoms: C_5  and  C_6
REMARK    3  A    between atoms: C_14  and  N_15
REMARK    4  A    between atoms: C_17  and  C_18
REMARK    5  A    between atoms: C_17  and  C_19
REMARK    6  A    between atoms: C_23  and  N_24
REMARK    7  A    between atoms: C_32  and  C_33
REMARK                            x       y       z     vdW  Elec       q    Type
REMARK                         _______ _______ _______ _____ _____    ______ ____
ROOT
ATOM      1  N   UNL     1      -2.258  12.870  21.723  0.00  0.00    +0.000 N 
ATOM      2  C   UNL     1      -3.193  12.266  22.707  0.00  0.00    +0.000 C 
ATOM      3  C   UNL     1      -3.843  13.352  23.545  0.00  0.00    +0.000 C 
ATOM      4  C   UNL     1      -5.068  13.985  22.888  0.00  0.00    +0.000 C 
ATOM      5  C   UNL     1      -4.178  12.773  24.926  0.00  0.00    +0.000 C 
ATOM      6  C   UNL     1      -2.695  14.312  23.538  0.00  0.00    +0.000 A 
ATOM      7  C   UNL     1      -2.516  15.283  24.513  0.00  0.00    +0.000 A 
ATOM      8  C   UNL     1      -1.396  16.075  24.437  0.00  0.00    +0.000 A 
ATOM      9  C   UNL     1      -0.479  16.006  23.367  0.00  0.00    +0.000 A 
ATOM     10  C   UNL     1      -0.706  14.962  22.353  0.00  0.00    +0.000 A 
ATOM     11  C   UNL     1      -1.817  14.076  22.446  0.00  0.00    +0.000 A 
ENDROOT
BRANCH   1  21
ATOM     12  C   UNL     1       0.691  10.385  18.366  0.00  0.00    +0.000 C 
ATOM     13  C   UNL     1      -0.615  10.879  18.933  0.00  0.00    +0.000 A 
ATOM     14  N   UNL     1      -1.596  10.784  18.022  0.00  0.00    +0.000 NA
ATOM     15  C   UNL     1      -2.790  11.274  18.251  0.00  0.00    +0.000 A 
ATOM     16  C   UNL     1      -3.690  11.191  17.181  0.00  0.00    +0.000 A 
ATOM     17  C   UNL     1      -4.955  11.784  17.268  0.00  0.00    +0.000 A 
ATOM     18  C   UNL     1      -5.335  12.397  18.440  0.00  0.00    +0.000 A 
ATOM     19  C   UNL     1      -4.459  12.397  19.536  0.00  0.00    +0.000 A 
ATOM     20  C   UNL     1      -3.120  11.895  19.498  0.00  0.00    +0.000 A 
ATOM     21  C   UNL     1      -2.074  11.979  20.569  0.00  0.00    +0.000 A 
ATOM     22  C   UNL     1      -0.794  11.442  20.230  0.00  0.00    +0.000 A 
ATOM     23  C   UNL     1       0.437  11.560  21.079  0.00  0.00    +0.000 C 
BRANCH  16  24
ATOM     24  C   UNL     1      -3.381  10.453  15.893  0.00  0.00    +0.000 C 
ATOM     25  F   UNL     1      -2.316  10.860  15.153  0.00  0.00    +0.000 F 
ATOM     26  F   UNL     1      -3.165   9.121  16.129  0.00  0.00    +0.000 F 
ATOM     27  F   UNL     1      -4.444  10.477  15.028  0.00  0.00    +0.000 F 
ENDBRANCH  16  24
ENDBRANCH   1  21
BRANCH   9  28
ATOM     28  N   UNL     1       0.624  16.891  23.463  0.00  0.00    +0.000 N 
ATOM     29  C   UNL     1       1.229  17.269  24.750  0.00  0.00    +0.000 C 
ATOM     30  C   UNL     1       1.955  18.631  24.604  0.00  0.00    +0.000 C 
ATOM     31  O   UNL     1       2.968  18.605  23.584  0.00  0.00    +0.000 OA
ATOM     32  C   UNL     1       2.359  18.329  22.320  0.00  0.00    +0.000 C 
ATOM     33  C   UNL     1       1.613  16.968  22.342  0.00  0.00    +0.000 C 
ENDBRANCH   9  28
TORSDOF 3
ENDMDL
MODEL 6
REMARK VINA RESULT:      -7.0      2.961      4.797
REMARK  Name = 
REMARK  7 active torsions:
REMARK  status: ('A' for Active; 'I' for Inactive)
REMARK    1  A    between atoms: C_1  and  C_2
REMARK    2  A    between atoms: C_5  and  C_6
REMARK    3  A    between atoms: C_14  and  N_15
REMARK    4  A    between atoms: C_17  and  C_18
REMARK    5  A    between atoms: C_17  and  C_19
REMARK    6  A    between atoms: C_23  and  N_24
REMARK    7  A    between atoms: C_32  and  C_33
REMARK                            x       y       z     vdW  Elec       q    Type
REMARK                         _______ _______ _______ _____ _____    ______ ____
ROOT
ATOM      1  N   UNL     1      -2.124  12.823  21.639  0.00  0.00    +0.000 N 
ATOM      2  C   UNL     1      -3.091  12.274  22.624  0.00  0.00    +0.000 C 
ATOM      3  C   UNL     1      -3.694  13.399  23.447  0.00  0.00    +0.000 C 
ATOM      4  C   UNL     1      -4.884  14.081  22.776  0.00  0.00    +0.000 C 
ATOM      5  C   UNL     1      -4.063  12.850  24.832  0.00  0.00    +0.000 C 
ATOM      6  C   UNL     1      -2.502  14.303  23.437  0.00  0.00    +0.000 A 
ATOM      7  C   UNL     1      -2.283  15.275  24.403  0.00  0.00    +0.000 A 
ATOM      8  C   UNL     1      -1.127  16.012  24.326  0.00  0.00    +0.000 A 
ATOM      9  C   UNL     1      -0.207  15.888  23.263  0.00  0.00    +0.000 A 
ATOM     10  C   UNL     1      -0.478  14.846  22.257  0.00  0.00    +0.000 A 
ATOM     11  C   UNL     1      -1.630  14.014  22.353  0.00  0.00    +0.000 A 
ENDROOT
BRANCH   1  21
ATOM     12  C   UNL     1       0.724  10.195  18.304  0.00  0.00    +0.000 C 
ATOM     13  C   UNL     1      -0.562  10.742  18.869  0.00  0.00    +0.000 A 
ATOM     14  N   UNL     1      -1.549  10.671  17.962  0.00  0.00    +0.000 NA
ATOM     15  C   UNL     1      -2.724  11.206  18.189  0.00  0.00    +0.000 A 
ATOM     16  C   UNL     1      -3.630  11.142  17.123  0.00  0.00    +0.000 A 
ATOM     17  C   UNL     1      -4.873  11.781  17.206  0.00  0.00    +0.000 A 
ATOM     18  C   UNL     1      -5.226  12.421  18.371  0.00  0.00    +0.000 A 
ATOM     19  C   UNL     1      -4.347  12.403  19.465  0.00  0.00    +0.000 A 
ATOM     20  C   UNL     1      -3.028  11.853  19.429  0.00  0.00    +0.000 A 
ATOM     21  C   UNL     1      -1.975  11.912  20.496  0.00  0.00    +0.000 A 
ATOM     22  C   UNL     1      -0.716  11.326  20.160  0.00  0.00    +0.000 A 
ATOM     23  C   UNL     1       0.521  11.410  21.003  0.00  0.00    +0.000 C 
BRANCH  16  24
ATOM     24  C   UNL     1      -3.352  10.378  15.842  0.00  0.00    +0.000 C 
ATOM     25  F   UNL     1      -4.371  10.201  14.960  0.00  0.00    +0.000 F 
ATOM     26  F   UNL     1      -2.353  10.976  15.121  0.00  0.00    +0.000 F 
ATOM     27  F   UNL     1      -2.880   9.117  16.098  0.00  0.00    +0.000 F 
ENDBRANCH  16  24
ENDBRANCH   1  21
BRANCH   9  28
ATOM     28  N   UNL     1       0.935  16.722  23.356  0.00  0.00    +0.000 N 
ATOM     29  C   UNL     1       2.071  16.618  22.427  0.00  0.00    +0.000 C 
ATOM     30  C   UNL     1       3.348  17.184  23.101  0.00  0.00    +0.000 C 
ATOM     31  O   UNL     1       3.188  18.550  23.516  0.00  0.00    +0.000 OA
ATOM     32  C   UNL     1       2.144  18.630  24.488  0.00  0.00    +0.000 C 
ATOM     33  C   UNL     1       0.801  18.104  23.914  0.00  0.00    +0.000 C 
ENDBRANCH   9  28
TORSDOF 3
ENDMDL
MODEL 7
REMARK VINA RESULT:      -7.0      2.164      4.185
REMARK  Name = 
REMARK  7 active torsions:
REMARK  status: ('A' for Active; 'I' for Inactive)
REMARK    1  A    between atoms: C_1  and  C_2
REMARK    2  A    between atoms: C_5  and  C_6
REMARK    3  A    between atoms: C_14  and  N_15
REMARK    4  A    between atoms: C_17  and  C_18
REMARK    5  A    between atoms: C_17  and  C_19
REMARK    6  A    between atoms: C_23  and  N_24
REMARK    7  A    between atoms: C_32  and  C_33
REMARK                            x       y       z     vdW  Elec       q    Type
REMARK                         _______ _______ _______ _____ _____    ______ ____
ROOT
ATOM      1  N   UNL     1      -3.874  13.512  21.920  0.00  0.00    +0.000 N 
ATOM      2  C   UNL     1      -5.224  13.098  22.380  0.00  0.00    +0.000 C 
ATOM      3  C   UNL     1      -5.985  14.299  22.914  0.00  0.00    +0.000 C 
ATOM      4  C   UNL     1      -6.689  15.113  21.830  0.00  0.00    +0.000 C 
ATOM      5  C   UNL     1      -6.969  13.819  23.989  0.00  0.00    +0.000 C 
ATOM      6  C   UNL     1      -4.806  15.051  23.446  0.00  0.00    +0.000 A 
ATOM      7  C   UNL     1      -4.907  16.002  24.452  0.00  0.00    +0.000 A 
ATOM      8  C   UNL     1      -3.750  16.592  24.901  0.00  0.00    +0.000 A 
ATOM      9  C   UNL     1      -2.487  16.342  24.323  0.00  0.00    +0.000 A 
ATOM     10  C   UNL     1      -2.425  15.327  23.257  0.00  0.00    +0.000 A 
ATOM     11  C   UNL     1      -3.596  14.643  22.823  0.00  0.00    +0.000 A 
ENDROOT
BRANCH   1  21
ATOM     12  C   UNL     1      -0.050  11.086  19.547  0.00  0.00    +0.000 C 
ATOM     13  C   UNL     1      -1.483  11.504  19.752  0.00  0.00    +0.000 A 
ATOM     14  N   UNL     1      -2.208  11.279  18.645  0.00  0.00    +0.000 NA
ATOM     15  C   UNL     1      -3.451  11.684  18.549  0.00  0.00    +0.000 A 
ATOM     16  C   UNL     1      -4.061  11.467  17.307  0.00  0.00    +0.000 A 
ATOM     17  C   UNL     1      -5.345  11.961  17.049  0.00  0.00    +0.000 A 
ATOM     18  C   UNL     1      -6.034  12.607  18.050  0.00  0.00    +0.000 A 
ATOM     19  C   UNL     1      -5.449  12.740  19.319  0.00  0.00    +0.000 A 
ATOM     20  C   UNL     1      -4.111  12.345  19.634  0.00  0.00    +0.000 A 
ATOM     21  C   UNL     1      -3.360  12.574  20.912  0.00  0.00    +0.000 A 
ATOM     22  C   UNL     1      -2.004  12.124  20.925  0.00  0.00    +0.000 A 
ATOM     23  C   UNL     1      -1.024  12.389  22.028  0.00  0.00    +0.000 C 
BRANCH  16  24
ATOM     24  C   UNL     1      -3.404  10.685  16.186  0.00  0.00    +0.000 C 
ATOM     25  F   UNL     1      -2.300  11.209  15.592  0.00  0.00    +0.000 F 
ATOM     26  F   UNL     1      -3.025   9.439  16.613  0.00  0.00    +0.000 F 
ATOM     27  F   UNL     1      -4.279  10.441  15.160  0.00  0.00    +0.000 F 
ENDBRANCH  16  24
ENDBRANCH   1  21
BRANCH   9  28
ATOM     28  N   UNL     1      -1.405  17.031  24.924  0.00  0.00    +0.000 N 
ATOM     29  C   UNL     1      -0.940  18.345  24.453  0.00  0.00    +0.000 C 
ATOM     30  C   UNL     1       0.540  18.553  24.864  0.00  0.00    +0.000 C 
ATOM     31  O   UNL     1       0.733  18.455  26.284  0.00  0.00    +0.000 OA
ATOM     32  C   UNL     1       0.368  17.143  26.722  0.00  0.00    +0.000 C 
ATOM     33  C   UNL     1      -1.113  16.830  26.378  0.00  0.00    +0.000 C 
ENDBRANCH   9  28
TORSDOF 3
ENDMDL
MODEL 8
REMARK VINA RESULT:      -6.9      4.803      8.689
REMARK  Name = 
REMARK  7 active torsions:
REMARK  status: ('A' for Active; 'I' for Inactive)
REMARK    1  A    between atoms: C_1  and  C_2
REMARK    2  A    between atoms: C_5  and  C_6
REMARK    3  A    between atoms: C_14  and  N_15
REMARK    4  A    between atoms: C_17  and  C_18
REMARK    5  A    between atoms: C_17  and  C_19
REMARK    6  A    between atoms: C_23  and  N_24
REMARK    7  A    between atoms: C_32  and  C_33
REMARK                            x       y       z     vdW  Elec       q    Type
REMARK                         _______ _______ _______ _____ _____    ______ ____
ROOT
ATOM      1  N   UNL     1      -1.005  14.236  20.948  0.00  0.00    +0.000 N 
ATOM      2  C   UNL     1      -0.256  15.515  20.856  0.00  0.00    +0.000 C 
ATOM      3  C   UNL     1       0.497  15.587  19.539  0.00  0.00    +0.000 C 
ATOM      4  C   UNL     1      -0.352  16.090  18.373  0.00  0.00    +0.000 C 
ATOM      5  C   UNL     1       1.753  16.445  19.737  0.00  0.00    +0.000 C 
ATOM      6  C   UNL     1       0.765  14.122  19.392  0.00  0.00    +0.000 A 
ATOM      7  C   UNL     1       1.806  13.617  18.627  0.00  0.00    +0.000 A 
ATOM      8  C   UNL     1       1.993  12.256  18.608  0.00  0.00    +0.000 A 
ATOM      9  C   UNL     1       1.120  11.354  19.252  0.00  0.00    +0.000 A 
ATOM     10  C   UNL     1       0.027  11.931  20.053  0.00  0.00    +0.000 A 
ATOM     11  C   UNL     1      -0.145  13.341  20.154  0.00  0.00    +0.000 A 
ENDROOT
BRANCH   1  21
ATOM     12  C   UNL     1      -2.996  14.841  25.618  0.00  0.00    +0.000 C 
ATOM     13  C   UNL     1      -3.047  14.575  24.136  0.00  0.00    +0.000 A 
ATOM     14  N   UNL     1      -4.225  14.033  23.790  0.00  0.00    +0.000 NA
ATOM     15  C   UNL     1      -4.446  13.600  22.572  0.00  0.00    +0.000 A 
ATOM     16  C   UNL     1      -5.682  12.973  22.371  0.00  0.00    +0.000 A 
ATOM     17  C   UNL     1      -5.982  12.368  21.145  0.00  0.00    +0.000 A 
ATOM     18  C   UNL     1      -5.076  12.450  20.112  0.00  0.00    +0.000 A 
ATOM     19  C   UNL     1      -3.879  13.158  20.296  0.00  0.00    +0.000 A 
ATOM     20  C   UNL     1      -3.460  13.723  21.542  0.00  0.00    +0.000 A 
ATOM     21  C   UNL     1      -2.146  14.370  21.864  0.00  0.00    +0.000 A 
ATOM     22  C   UNL     1      -1.978  14.792  23.219  0.00  0.00    +0.000 A 
ATOM     23  C   UNL     1      -0.698  15.313  23.802  0.00  0.00    +0.000 C 
BRANCH  16  24
ATOM     24  C   UNL     1      -6.767  12.921  23.429  0.00  0.00    +0.000 C 
ATOM     25  F   UNL     1      -6.418  12.590  24.700  0.00  0.00    +0.000 F 
ATOM     26  F   UNL     1      -7.407  14.128  23.536  0.00  0.00    +0.000 F 
ATOM     27  F   UNL     1      -7.761  12.039  23.092  0.00  0.00    +0.000 F 
ENDBRANCH  16  24
ENDBRANCH   1  21
BRANCH   9  28
ATOM     28  N   UNL     1       1.476   9.987  19.135  0.00  0.00    +0.000 N 
ATOM     29  C   UNL     1       1.030   8.965  20.095  0.00  0.00    +0.000 C 
ATOM     30  C   UNL     1       2.011   7.764  20.071  0.00  0.00    +0.000 C 
ATOM     31  O   UNL     1       2.128   7.179  18.764  0.00  0.00    +0.000 OA
ATOM     32  C   UNL     1       2.650   8.151  17.855  0.00  0.00    +0.000 C 
ATOM     33  C   UNL     1       1.732   9.401  17.782  0.00  0.00    +0.000 C 
ENDBRANCH   9  28
TORSDOF 3
ENDMDL
MODEL 9
REMARK VINA RESULT:      -6.8      4.768      7.062
REMARK  Name = 
REMARK  7 active torsions:
REMARK  status: ('A' for Active; 'I' for Inactive)
REMARK    1  A    between atoms: C_1  and  C_2
REMARK    2  A    between atoms: C_5  and  C_6
REMARK    3  A    between atoms: C_14  and  N_15
REMARK    4  A    between atoms: C_17  and  C_18
REMARK    5  A    between atoms: C_17  and  C_19
REMARK    6  A    between atoms: C_23  and  N_24
REMARK    7  A    between atoms: C_32  and  C_33
REMARK                            x       y       z     vdW  Elec       q    Type
REMARK                         _______ _______ _______ _____ _____    ______ ____
ROOT
ATOM      1  N   UNL     1      -1.794  11.956  19.718  0.00  0.00    +0.000 N 
ATOM      2  C   UNL     1      -1.426  10.756  18.924  0.00  0.00    +0.000 C 
ATOM      3  C   UNL     1       0.049  10.444  19.103  0.00  0.00    +0.000 C 
ATOM      4  C   UNL     1       0.354   9.615  20.349  0.00  0.00    +0.000 C 
ATOM      5  C   UNL     1       0.565   9.760  17.830  0.00  0.00    +0.000 C 
ATOM      6  C   UNL     1       0.522  11.851  19.286  0.00  0.00    +0.000 A 
ATOM      7  C   UNL     1       1.827  12.248  19.033  0.00  0.00    +0.000 A 
ATOM      8  C   UNL     1       2.138  13.578  19.181  0.00  0.00    +0.000 A 
ATOM      9  C   UNL     1       1.217  14.531  19.667  0.00  0.00    +0.000 A 
ATOM     10  C   UNL     1      -0.158  14.067  19.924  0.00  0.00    +0.000 A 
ATOM     11  C   UNL     1      -0.529  12.710  19.706  0.00  0.00    +0.000 A 
ENDROOT
BRANCH   1  21
ATOM     12  C   UNL     1      -6.714  12.376  18.392  0.00  0.00    +0.000 C 
ATOM     13  C   UNL     1      -5.568  12.242  19.361  0.00  0.00    +0.000 A 
ATOM     14  N   UNL     1      -5.959  12.549  20.607  0.00  0.00    +0.000 NA
ATOM     15  C   UNL     1      -5.099  12.627  21.593  0.00  0.00    +0.000 A 
ATOM     16  C   UNL     1      -5.626  13.048  22.820  0.00  0.00    +0.000 A 
ATOM     17  C   UNL     1      -4.784  13.280  23.914  0.00  0.00    +0.000 A 
ATOM     18  C   UNL     1      -3.437  13.029  23.795  0.00  0.00    +0.000 A 
ATOM     19  C   UNL     1      -2.931  12.522  22.588  0.00  0.00    +0.000 A 
ATOM     20  C   UNL     1      -3.709  12.345  21.400  0.00  0.00    +0.000 A 
ATOM     21  C   UNL     1      -3.229  11.945  20.037  0.00  0.00    +0.000 A 
ATOM     22  C   UNL     1      -4.226  11.908  19.014  0.00  0.00    +0.000 A 
ATOM     23  C   UNL     1      -3.951  11.693  17.555  0.00  0.00    +0.000 C 
BRANCH  16  24
ATOM     24  C   UNL     1      -7.109  13.257  23.058  0.00  0.00    +0.000 C 
ATOM     25  F   UNL     1      -7.917  12.165  23.111  0.00  0.00    +0.000 F 
ATOM     26  F   UNL     1      -7.329  13.924  24.234  0.00  0.00    +0.000 F 
ATOM     27  F   UNL     1      -7.666  14.065  22.100  0.00  0.00    +0.000 F 
ENDBRANCH  16  24
ENDBRANCH   1  21
BRANCH   9  28
ATOM     28  N   UNL     1       1.709  15.858  19.743  0.00  0.00    +0.000 N 
ATOM     29  C   UNL     1       3.144  16.177  19.670  0.00  0.00    +0.000 C 
ATOM     30  C   UNL     1       3.409  17.542  20.358  0.00  0.00    +0.000 C 
ATOM     31  O   UNL     1       2.647  18.608  19.769  0.00  0.00    +0.000 OA
ATOM     32  C   UNL     1       1.253  18.337  19.926  0.00  0.00    +0.000 C 
ATOM     33  C   UNL     1       0.864  16.992  19.254  0.00  0.00    +0.000 C 
ENDBRANCH   9  28
TORSDOF 3
ENDMDL
