MODEL 1
REMARK VINA RESULT:      -8.7      0.000      0.000
REMARK  Name = 
REMARK  7 active torsions:
REMARK  status: ('A' for Active; 'I' for Inactive)
REMARK    1  A    between atoms: C_2  and  C_4
REMARK    2  A    between atoms: C_4  and  C_5
REMARK    3  A    between atoms: C_5  and  N_6
REMARK    4  A    between atoms: C_7  and  C_9
REMARK    5  A    between atoms: C_10  and  C_11
REMARK    6  A    between atoms: N_13  and  C_14
REMARK    7  A    between atoms: C_14  and  C_15
REMARK                            x       y       z     vdW  Elec       q    Type
REMARK                         _______ _______ _______ _____ _____    ______ ____
ROOT
ATOM      1  C   UNL     1       3.738   5.423  19.731  0.00  0.00    +0.000 C 
ATOM      2  C   UNL     1       2.465   6.133  19.113  0.00  0.00    +0.000 C 
ATOM      3  C   UNL     1       1.416   4.974  19.086  0.00  0.00    +0.000 C 
ATOM      4  C   UNL     1       1.107   4.577  20.531  0.00  0.00    +0.000 C 
ATOM      5  C   UNL     1       2.207   3.984  21.032  0.00  0.00    +0.000 C 
ATOM      6  C   UNL     1       3.243   3.949  19.915  0.00  0.00    +0.000 C 
ATOM      7  C   UNL     1       2.327   3.827  18.715  0.00  0.00    +0.000 C 
ATOM      8  C   UNL     1       1.823   2.521  18.157  0.00  0.00    +0.000 C 
ATOM      9  C   UNL     1       2.740   3.399  17.333  0.00  0.00    +0.000 C 
ENDROOT
BRANCH   1  11
ATOM     10  N   UNL     1       4.813   6.305  17.725  0.00  0.00    +0.000 N 
ATOM     11  C   UNL     1       4.942   5.439  18.794  0.00  0.00    +0.000 C 
ATOM     12  O   UNL     1       5.936   4.739  18.960  0.00  0.00    +0.000 OA
ATOM     13  H   UNL     1       3.879   6.588  17.455  0.00  0.00    +0.000 HD
BRANCH  10  14
ATOM     14  C   UNL     1       5.904   6.483  16.774  0.00  0.00    +0.000 C 
BRANCH  14  15
ATOM     15  C   UNL     1       5.690   5.676  15.500  0.00  0.00    +0.000 C 
BRANCH  15  17
ATOM     16  N   UNL     1       6.407   3.631  14.416  0.00  0.00    +0.000 N 
ATOM     17  C   UNL     1       6.711   4.570  15.365  0.00  0.00    +0.000 C 
ATOM     18  O   UNL     1       7.738   4.479  16.022  0.00  0.00    +0.000 OA
ATOM     19  H   UNL     1       7.058   2.867  14.287  0.00  0.00    +0.000 HD
ATOM     20  H   UNL     1       5.570   3.655  13.851  0.00  0.00    +0.000 HD
ENDBRANCH  15  17
ENDBRANCH  14  15
ENDBRANCH  10  14
ENDBRANCH   1  11
BRANCH   2  21
ATOM     21  C   UNL     1       1.980   7.352  19.886  0.00  0.00    +0.000 C 
ATOM     22  O   UNL     1       1.747   7.340  21.092  0.00  0.00    +0.000 OA
ATOM     23  N   UNL     1       1.737   8.462  19.110  0.00  0.00    +0.000 N 
ATOM     24  H   UNL     1       1.875   8.425  18.108  0.00  0.00    +0.000 HD
BRANCH  23  25
ATOM     25  C   UNL     1       1.169   9.667  19.676  0.00  0.00    +0.000 C 
BRANCH  25  26
ATOM     26  C   UNL     1      -0.107  10.060  18.986  0.00  0.00    +0.000 A 
ATOM     27  C   UNL     1      -0.465   9.497  17.751  0.00  0.00    +0.000 A 
ATOM     28  C   UNL     1      -1.653   9.876  17.119  0.00  0.00    +0.000 A 
ATOM     29  C   UNL     1      -2.492  10.812  17.725  0.00  0.00    +0.000 A 
ATOM     30 BR   UNL     1      -4.099  11.325  16.872  0.00  0.00    +0.000 Br
ATOM     31  C   UNL     1      -2.158  11.369  18.956  0.00  0.00    +0.000 A 
ATOM     32  C   UNL     1      -0.971  10.985  19.573  0.00  0.00    +0.000 A 
ATOM     33  F   UNL     1      -0.661  11.522  20.761  0.00  0.00    +0.000 F 
ENDBRANCH  25  26
ENDBRANCH  23  25
ENDBRANCH   2  21
TORSDOF 7
ENDMDL
MODEL 2
REMARK VINA RESULT:      -8.4      1.539      1.724
REMARK  Name = 
REMARK  7 active torsions:
REMARK  status: ('A' for Active; 'I' for Inactive)
REMARK    1  A    between atoms: C_2  and  C_4
REMARK    2  A    between atoms: C_4  and  C_5
REMARK    3  A    between atoms: C_5  and  N_6
REMARK    4  A    between atoms: C_7  and  C_9
REMARK    5  A    between atoms: C_10  and  C_11
REMARK    6  A    between atoms: N_13  and  C_14
REMARK    7  A    between atoms: C_14  and  C_15
REMARK                            x       y       z     vdW  Elec       q    Type
REMARK                         _______ _______ _______ _____ _____    ______ ____
ROOT
ATOM      1  C   UNL     1       3.679   5.518  19.760  0.00  0.00    +0.000 C 
ATOM      2  C   UNL     1       2.386   6.189  19.140  0.00  0.00    +0.000 C 
ATOM      3  C   UNL     1       1.387   4.988  19.071  0.00  0.00    +0.000 C 
ATOM      4  C   UNL     1       1.075   4.546  20.503  0.00  0.00    +0.000 C 
ATOM      5  C   UNL     1       2.192   3.988  21.007  0.00  0.00    +0.000 C 
ATOM      6  C   UNL     1       3.244   4.022  19.904  0.00  0.00    +0.000 C 
ATOM      7  C   UNL     1       2.350   3.889  18.688  0.00  0.00    +0.000 C 
ATOM      8  C   UNL     1       1.909   2.576  18.094  0.00  0.00    +0.000 C 
ATOM      9  C   UNL     1       2.799   3.510  17.304  0.00  0.00    +0.000 C 
ENDROOT
BRANCH   1  11
ATOM     10  N   UNL     1       6.073   5.181  19.424  0.00  0.00    +0.000 N 
ATOM     11  C   UNL     1       4.894   5.606  18.842  0.00  0.00    +0.000 C 
ATOM     12  O   UNL     1       4.841   6.026  17.690  0.00  0.00    +0.000 OA
ATOM     13  H   UNL     1       6.124   5.170  20.435  0.00  0.00    +0.000 HD
BRANCH  10  14
ATOM     14  C   UNL     1       7.312   5.142  18.657  0.00  0.00    +0.000 C 
BRANCH  14  15
ATOM     15  C   UNL     1       8.129   6.417  18.823  0.00  0.00    +0.000 C 
BRANCH  15  17
ATOM     16  N   UNL     1       7.486   6.819  16.521  0.00  0.00    +0.000 N 
ATOM     17  C   UNL     1       7.862   7.398  17.704  0.00  0.00    +0.000 C 
ATOM     18  O   UNL     1       7.957   8.613  17.798  0.00  0.00    +0.000 OA
ATOM     19  H   UNL     1       7.298   7.431  15.739  0.00  0.00    +0.000 HD
ATOM     20  H   UNL     1       7.399   5.821  16.388  0.00  0.00    +0.000 HD
ENDBRANCH  15  17
ENDBRANCH  14  15
ENDBRANCH  10  14
ENDBRANCH   1  11
BRANCH   2  21
ATOM     21  C   UNL     1       1.840   7.368  19.933  0.00  0.00    +0.000 C 
ATOM     22  O   UNL     1       1.509   7.296  21.114  0.00  0.00    +0.000 OA
ATOM     23  N   UNL     1       1.664   8.519  19.198  0.00  0.00    +0.000 N 
ATOM     24  H   UNL     1       1.885   8.533  18.211  0.00  0.00    +0.000 HD
BRANCH  23  25
ATOM     25  C   UNL     1       1.052   9.696  19.778  0.00  0.00    +0.000 C 
BRANCH  25  26
ATOM     26  C   UNL     1      -0.201  10.090  19.048  0.00  0.00    +0.000 A 
ATOM     27  C   UNL     1      -0.510   9.543  17.793  0.00  0.00    +0.000 A 
ATOM     28  C   UNL     1      -1.677   9.924  17.124  0.00  0.00    +0.000 A 
ATOM     29  C   UNL     1      -2.544  10.844  17.713  0.00  0.00    +0.000 A 
ATOM     30 BR   UNL     1      -4.124  11.359  16.811  0.00  0.00    +0.000 Br
ATOM     31  C   UNL     1      -2.259  11.385  18.964  0.00  0.00    +0.000 A 
ATOM     32  C   UNL     1      -1.093  11.000  19.617  0.00  0.00    +0.000 A 
ATOM     33  F   UNL     1      -0.830  11.521  20.824  0.00  0.00    +0.000 F 
ENDBRANCH  25  26
ENDBRANCH  23  25
ENDBRANCH   2  21
TORSDOF 7
ENDMDL
MODEL 3
REMARK VINA RESULT:      -8.4      0.943      1.002
REMARK  Name = 
REMARK  7 active torsions:
REMARK  status: ('A' for Active; 'I' for Inactive)
REMARK    1  A    between atoms: C_2  and  C_4
REMARK    2  A    between atoms: C_4  and  C_5
REMARK    3  A    between atoms: C_5  and  N_6
REMARK    4  A    between atoms: C_7  and  C_9
REMARK    5  A    between atoms: C_10  and  C_11
REMARK    6  A    between atoms: N_13  and  C_14
REMARK    7  A    between atoms: C_14  and  C_15
REMARK                            x       y       z     vdW  Elec       q    Type
REMARK                         _______ _______ _______ _____ _____    ______ ____
ROOT
ATOM      1  C   UNL     1       3.853   5.868  19.373  0.00  0.00    +0.000 C 
ATOM      2  C   UNL     1       2.450   6.424  18.895  0.00  0.00    +0.000 C 
ATOM      3  C   UNL     1       1.544   5.151  18.971  0.00  0.00    +0.000 C 
ATOM      4  C   UNL     1       1.434   4.732  20.438  0.00  0.00    +0.000 C 
ATOM      5  C   UNL     1       2.641   4.272  20.819  0.00  0.00    +0.000 C 
ATOM      6  C   UNL     1       3.552   4.349  19.599  0.00  0.00    +0.000 C 
ATOM      7  C   UNL     1       2.536   4.115  18.501  0.00  0.00    +0.000 C 
ATOM      8  C   UNL     1       2.130   2.756  17.992  0.00  0.00    +0.000 C 
ATOM      9  C   UNL     1       2.850   3.728  17.082  0.00  0.00    +0.000 C 
ENDROOT
BRANCH   1  11
ATOM     10  N   UNL     1       6.131   5.388  18.640  0.00  0.00    +0.000 N 
ATOM     11  C   UNL     1       4.943   6.016  18.316  0.00  0.00    +0.000 C 
ATOM     12  O   UNL     1       4.792   6.645  17.274  0.00  0.00    +0.000 OA
ATOM     13  H   UNL     1       6.309   5.187  19.616  0.00  0.00    +0.000 HD
BRANCH  10  14
ATOM     14  C   UNL     1       7.250   5.383  17.705  0.00  0.00    +0.000 C 
BRANCH  14  15
ATOM     15  C   UNL     1       7.094   4.314  16.631  0.00  0.00    +0.000 C 
BRANCH  15  17
ATOM     16  N   UNL     1       5.612   4.928  14.815  0.00  0.00    +0.000 N 
ATOM     17  C   UNL     1       6.907   4.926  15.262  0.00  0.00    +0.000 C 
ATOM     18  O   UNL     1       7.803   5.395  14.574  0.00  0.00    +0.000 OA
ATOM     19  H   UNL     1       5.433   5.325  13.902  0.00  0.00    +0.000 HD
ATOM     20  H   UNL     1       4.838   4.548  15.340  0.00  0.00    +0.000 HD
ENDBRANCH  15  17
ENDBRANCH  14  15
ENDBRANCH  10  14
ENDBRANCH   1  11
BRANCH   2  21
ATOM     21  C   UNL     1       1.911   7.584  19.721  0.00  0.00    +0.000 C 
ATOM     22  O   UNL     1       1.685   7.510  20.926  0.00  0.00    +0.000 OA
ATOM     23  N   UNL     1       1.613   8.714  18.994  0.00  0.00    +0.000 N 
ATOM     24  H   UNL     1       1.748   8.726  17.991  0.00  0.00    +0.000 HD
BRANCH  23  25
ATOM     25  C   UNL     1       0.991   9.865  19.613  0.00  0.00    +0.000 C 
BRANCH  25  26
ATOM     26  C   UNL     1      -0.303  10.229  18.941  0.00  0.00    +0.000 A 
ATOM     27  C   UNL     1      -0.680   9.634  17.726  0.00  0.00    +0.000 A 
ATOM     28  C   UNL     1      -1.885   9.987  17.111  0.00  0.00    +0.000 A 
ATOM     29  C   UNL     1      -2.722  10.926  17.714  0.00  0.00    +0.000 A 
ATOM     30 BR   UNL     1      -4.352  11.403  16.883  0.00  0.00    +0.000 Br
ATOM     31  C   UNL     1      -2.369  11.514  18.925  0.00  0.00    +0.000 A 
ATOM     32  C   UNL     1      -1.166  11.157  19.525  0.00  0.00    +0.000 A 
ATOM     33  F   UNL     1      -0.838  11.723  20.695  0.00  0.00    +0.000 F 
ENDBRANCH  25  26
ENDBRANCH  23  25
ENDBRANCH   2  21
TORSDOF 7
ENDMDL
MODEL 4
REMARK VINA RESULT:      -8.3      2.647      4.795
REMARK  Name = 
REMARK  7 active torsions:
REMARK  status: ('A' for Active; 'I' for Inactive)
REMARK    1  A    between atoms: C_2  and  C_4
REMARK    2  A    between atoms: C_4  and  C_5
REMARK    3  A    between atoms: C_5  and  N_6
REMARK    4  A    between atoms: C_7  and  C_9
REMARK    5  A    between atoms: C_10  and  C_11
REMARK    6  A    between atoms: N_13  and  C_14
REMARK    7  A    between atoms: C_14  and  C_15
REMARK                            x       y       z     vdW  Elec       q    Type
REMARK                         _______ _______ _______ _____ _____    ______ ____
ROOT
ATOM      1  C   UNL     1       3.880   4.348  17.392  0.00  0.00    +0.000 C 
ATOM      2  C   UNL     1       3.902   5.735  18.154  0.00  0.00    +0.000 C 
ATOM      3  C   UNL     1       5.216   6.391  17.617  0.00  0.00    +0.000 C 
ATOM      4  C   UNL     1       5.039   6.654  16.120  0.00  0.00    +0.000 C 
ATOM      5  C   UNL     1       5.016   5.460  15.499  0.00  0.00    +0.000 C 
ATOM      6  C   UNL     1       5.213   4.396  16.572  0.00  0.00    +0.000 C 
ATOM      7  C   UNL     1       6.091   5.162  17.540  0.00  0.00    +0.000 C 
ATOM      8  C   UNL     1       7.594   5.224  17.461  0.00  0.00    +0.000 C 
ATOM      9  C   UNL     1       6.919   4.560  18.642  0.00  0.00    +0.000 C 
ENDROOT
BRANCH   1  11
ATOM     10  N   UNL     1       3.865   3.485  19.674  0.00  0.00    +0.000 N 
ATOM     11  C   UNL     1       3.909   3.149  18.334  0.00  0.00    +0.000 C 
ATOM     12  O   UNL     1       3.977   1.987  17.947  0.00  0.00    +0.000 OA
ATOM     13  H   UNL     1       4.145   4.421  19.937  0.00  0.00    +0.000 HD
BRANCH  10  14
ATOM     14  C   UNL     1       3.820   2.450  20.701  0.00  0.00    +0.000 C 
BRANCH  14  15
ATOM     15  C   UNL     1       2.553   2.532  21.542  0.00  0.00    +0.000 C 
BRANCH  15  17
ATOM     16  N   UNL     1       0.484   3.130  20.431  0.00  0.00    +0.000 N 
ATOM     17  C   UNL     1       1.618   3.605  21.035  0.00  0.00    +0.000 C 
ATOM     18  O   UNL     1       1.811   4.809  21.136  0.00  0.00    +0.000 OA
ATOM     19  H   UNL     1      -0.174   3.808  20.072  0.00  0.00    +0.000 HD
ATOM     20  H   UNL     1       0.280   2.148  20.316  0.00  0.00    +0.000 HD
ENDBRANCH  15  17
ENDBRANCH  14  15
ENDBRANCH  10  14
ENDBRANCH   1  11
BRANCH   2  21
ATOM     21  C   UNL     1       2.672   6.603  17.929  0.00  0.00    +0.000 C 
ATOM     22  O   UNL     1       1.613   6.174  17.478  0.00  0.00    +0.000 OA
ATOM     23  N   UNL     1       2.860   7.941  18.193  0.00  0.00    +0.000 N 
ATOM     24  H   UNL     1       3.763   8.279  18.502  0.00  0.00    +0.000 HD
BRANCH  23  25
ATOM     25  C   UNL     1       1.822   8.914  17.925  0.00  0.00    +0.000 C 
BRANCH  25  26
ATOM     26  C   UNL     1       1.123   9.344  19.184  0.00  0.00    +0.000 A 
ATOM     27  C   UNL     1       1.435   8.759  20.421  0.00  0.00    +0.000 A 
ATOM     28  C   UNL     1       0.772   9.167  21.583  0.00  0.00    +0.000 A 
ATOM     29  C   UNL     1      -0.198  10.168  21.512  0.00  0.00    +0.000 A 
ATOM     30 BR   UNL     1      -1.094  10.720  23.082  0.00  0.00    +0.000 Br
ATOM     31  C   UNL     1      -0.509  10.767  20.295  0.00  0.00    +0.000 A 
ATOM     32  C   UNL     1       0.156  10.350  19.146  0.00  0.00    +0.000 A 
ATOM     33  F   UNL     1      -0.146  10.938  17.979  0.00  0.00    +0.000 F 
ENDBRANCH  25  26
ENDBRANCH  23  25
ENDBRANCH   2  21
TORSDOF 7
ENDMDL
MODEL 5
REMARK VINA RESULT:      -8.2      1.052      1.379
REMARK  Name = 
REMARK  7 active torsions:
REMARK  status: ('A' for Active; 'I' for Inactive)
REMARK    1  A    between atoms: C_2  and  C_4
REMARK    2  A    between atoms: C_4  and  C_5
REMARK    3  A    between atoms: C_5  and  N_6
REMARK    4  A    between atoms: C_7  and  C_9
REMARK    5  A    between atoms: C_10  and  C_11
REMARK    6  A    between atoms: N_13  and  C_14
REMARK    7  A    between atoms: C_14  and  C_15
REMARK                            x       y       z     vdW  Elec       q    Type
REMARK                         _______ _______ _______ _____ _____    ______ ____
ROOT
ATOM      1  C   UNL     1       3.722   5.412  19.697  0.00  0.00    +0.000 C 
ATOM      2  C   UNL     1       2.394   6.085  19.157  0.00  0.00    +0.000 C 
ATOM      3  C   UNL     1       1.395   4.883  19.137  0.00  0.00    +0.000 C 
ATOM      4  C   UNL     1       1.166   4.429  20.580  0.00  0.00    +0.000 C 
ATOM      5  C   UNL     1       2.311   3.870  21.015  0.00  0.00    +0.000 C 
ATOM      6  C   UNL     1       3.297   3.914  19.854  0.00  0.00    +0.000 C 
ATOM      7  C   UNL     1       2.336   3.789  18.691  0.00  0.00    +0.000 C 
ATOM      8  C   UNL     1       1.863   2.479  18.113  0.00  0.00    +0.000 C 
ATOM      9  C   UNL     1       2.706   3.421  17.280  0.00  0.00    +0.000 C 
ENDROOT
BRANCH   1  11
ATOM     10  N   UNL     1       4.671   6.402  17.678  0.00  0.00    +0.000 N 
ATOM     11  C   UNL     1       4.882   5.509  18.711  0.00  0.00    +0.000 C 
ATOM     12  O   UNL     1       5.910   4.847  18.812  0.00  0.00    +0.000 OA
ATOM     13  H   UNL     1       3.715   6.654  17.458  0.00  0.00    +0.000 HD
BRANCH  10  14
ATOM     14  C   UNL     1       5.711   6.656  16.688  0.00  0.00    +0.000 C 
BRANCH  14  15
ATOM     15  C   UNL     1       5.719   5.607  15.584  0.00  0.00    +0.000 C 
BRANCH  15  17
ATOM     16  N   UNL     1       7.714   4.469  16.358  0.00  0.00    +0.000 N 
ATOM     17  C   UNL     1       7.118   5.107  15.303  0.00  0.00    +0.000 C 
ATOM     18  O   UNL     1       7.709   5.235  14.240  0.00  0.00    +0.000 OA
ATOM     19  H   UNL     1       8.652   4.117  16.223  0.00  0.00    +0.000 HD
ATOM     20  H   UNL     1       7.273   4.343  17.258  0.00  0.00    +0.000 HD
ENDBRANCH  15  17
ENDBRANCH  14  15
ENDBRANCH  10  14
ENDBRANCH   1  11
BRANCH   2  21
ATOM     21  C   UNL     1       1.892   7.257  19.989  0.00  0.00    +0.000 C 
ATOM     22  O   UNL     1       1.515   7.150  21.153  0.00  0.00    +0.000 OA
ATOM     23  N   UNL     1       1.813   8.450  19.307  0.00  0.00    +0.000 N 
ATOM     24  H   UNL     1       2.070   8.497  18.329  0.00  0.00    +0.000 HD
BRANCH  23  25
ATOM     25  C   UNL     1       1.253   9.634  19.924  0.00  0.00    +0.000 C 
BRANCH  25  26
ATOM     26  C   UNL     1      -0.018  10.066  19.249  0.00  0.00    +0.000 A 
ATOM     27  C   UNL     1      -0.942  10.893  19.907  0.00  0.00    +0.000 A 
ATOM     28  C   UNL     1      -2.123  11.283  19.267  0.00  0.00    +0.000 A 
ATOM     29  C   UNL     1      -2.377  10.856  17.963  0.00  0.00    +0.000 A 
ATOM     30 BR   UNL     1      -3.972  11.383  17.096  0.00  0.00    +0.000 Br
ATOM     31  C   UNL     1      -1.465  10.047  17.292  0.00  0.00    +0.000 A 
ATOM     32  C   UNL     1      -0.295   9.665  17.941  0.00  0.00    +0.000 A 
ATOM     33  F   UNL     1       0.582   8.891  17.284  0.00  0.00    +0.000 F 
ENDBRANCH  25  26
ENDBRANCH  23  25
ENDBRANCH   2  21
TORSDOF 7
ENDMDL
MODEL 6
REMARK VINA RESULT:      -8.2      1.712      1.935
REMARK  Name = 
REMARK  7 active torsions:
REMARK  status: ('A' for Active; 'I' for Inactive)
REMARK    1  A    between atoms: C_2  and  C_4
REMARK    2  A    between atoms: C_4  and  C_5
REMARK    3  A    between atoms: C_5  and  N_6
REMARK    4  A    between atoms: C_7  and  C_9
REMARK    5  A    between atoms: C_10  and  C_11
REMARK    6  A    between atoms: N_13  and  C_14
REMARK    7  A    between atoms: C_14  and  C_15
REMARK                            x       y       z     vdW  Elec       q    Type
REMARK                         _______ _______ _______ _____ _____    ______ ____
ROOT
ATOM      1  C   UNL     1       3.827   4.862  19.801  0.00  0.00    +0.000 C 
ATOM      2  C   UNL     1       2.346   5.227  19.376  0.00  0.00    +0.000 C 
ATOM      3  C   UNL     1       1.699   3.818  19.176  0.00  0.00    +0.000 C 
ATOM      4  C   UNL     1       1.662   3.115  20.535  0.00  0.00    +0.000 C 
ATOM      5  C   UNL     1       2.932   2.824  20.875  0.00  0.00    +0.000 C 
ATOM      6  C   UNL     1       3.819   3.298  19.730  0.00  0.00    +0.000 C 
ATOM      7  C   UNL     1       2.873   3.092  18.565  0.00  0.00    +0.000 C 
ATOM      8  C   UNL     1       2.736   1.803  17.797  0.00  0.00    +0.000 C 
ATOM      9  C   UNL     1       3.263   3.047  17.113  0.00  0.00    +0.000 C 
ENDROOT
BRANCH   1  11
ATOM     10  N   UNL     1       6.084   4.740  18.882  0.00  0.00    +0.000 N 
ATOM     11  C   UNL     1       4.875   5.407  18.837  0.00  0.00    +0.000 C 
ATOM     12  O   UNL     1       4.676   6.362  18.092  0.00  0.00    +0.000 OA
ATOM     13  H   UNL     1       6.301   4.209  19.717  0.00  0.00    +0.000 HD
BRANCH  10  14
ATOM     14  C   UNL     1       7.169   5.099  17.977  0.00  0.00    +0.000 C 
BRANCH  14  15
ATOM     15  C   UNL     1       7.096   4.332  16.662  0.00  0.00    +0.000 C 
BRANCH  15  17
ATOM     16  N   UNL     1       5.722   5.869  15.390  0.00  0.00    +0.000 N 
ATOM     17  C   UNL     1       6.947   5.265  15.483  0.00  0.00    +0.000 C 
ATOM     18  O   UNL     1       7.818   5.495  14.655  0.00  0.00    +0.000 OA
ATOM     19  H   UNL     1       5.569   6.502  14.616  0.00  0.00    +0.000 HD
ATOM     20  H   UNL     1       4.967   5.709  16.042  0.00  0.00    +0.000 HD
ENDBRANCH  15  17
ENDBRANCH  14  15
ENDBRANCH  10  14
ENDBRANCH   1  11
BRANCH   2  21
ATOM     21  C   UNL     1       1.592   6.089  20.379  0.00  0.00    +0.000 C 
ATOM     22  O   UNL     1       0.484   5.798  20.824  0.00  0.00    +0.000 OA
ATOM     23  N   UNL     1       2.212   7.277  20.694  0.00  0.00    +0.000 N 
ATOM     24  H   UNL     1       3.095   7.522  20.263  0.00  0.00    +0.000 HD
BRANCH  23  25
ATOM     25  C   UNL     1       1.574   8.256  21.547  0.00  0.00    +0.000 C 
BRANCH  25  26
ATOM     26  C   UNL     1       0.889   9.330  20.749  0.00  0.00    +0.000 A 
ATOM     27  C   UNL     1       1.124   9.469  19.372  0.00  0.00    +0.000 A 
ATOM     28  C   UNL     1       0.482  10.475  18.644  0.00  0.00    +0.000 A 
ATOM     29  C   UNL     1      -0.405  11.338  19.288  0.00  0.00    +0.000 A 
ATOM     30 BR   UNL     1      -1.274  12.699  18.304  0.00  0.00    +0.000 Br
ATOM     31  C   UNL     1      -0.660  11.204  20.649  0.00  0.00    +0.000 A 
ATOM     32  C   UNL     1      -0.012  10.200  21.363  0.00  0.00    +0.000 A 
ATOM     33  F   UNL     1      -0.269  10.074  22.673  0.00  0.00    +0.000 F 
ENDBRANCH  25  26
ENDBRANCH  23  25
ENDBRANCH   2  21
TORSDOF 7
ENDMDL
MODEL 7
REMARK VINA RESULT:      -8.2      1.403      1.583
REMARK  Name = 
REMARK  7 active torsions:
REMARK  status: ('A' for Active; 'I' for Inactive)
REMARK    1  A    between atoms: C_2  and  C_4
REMARK    2  A    between atoms: C_4  and  C_5
REMARK    3  A    between atoms: C_5  and  N_6
REMARK    4  A    between atoms: C_7  and  C_9
REMARK    5  A    between atoms: C_10  and  C_11
REMARK    6  A    between atoms: N_13  and  C_14
REMARK    7  A    between atoms: C_14  and  C_15
REMARK                            x       y       z     vdW  Elec       q    Type
REMARK                         _______ _______ _______ _____ _____    ______ ____
ROOT
ATOM      1  C   UNL     1       3.768   4.668  20.069  0.00  0.00    +0.000 C 
ATOM      2  C   UNL     1       2.369   5.149  19.505  0.00  0.00    +0.000 C 
ATOM      3  C   UNL     1       1.604   3.798  19.314  0.00  0.00    +0.000 C 
ATOM      4  C   UNL     1       1.390   3.174  20.695  0.00  0.00    +0.000 C 
ATOM      5  C   UNL     1       2.594   2.783  21.153  0.00  0.00    +0.000 C 
ATOM      6  C   UNL     1       3.612   3.110  20.067  0.00  0.00    +0.000 C 
ATOM      7  C   UNL     1       2.747   2.934  18.837  0.00  0.00    +0.000 C 
ATOM      8  C   UNL     1       2.545   1.625  18.118  0.00  0.00    +0.000 C 
ATOM      9  C   UNL     1       3.245   2.775  17.427  0.00  0.00    +0.000 C 
ENDROOT
BRANCH   1  11
ATOM     10  N   UNL     1       4.613   5.974  18.188  0.00  0.00    +0.000 N 
ATOM     11  C   UNL     1       4.938   5.061  19.173  0.00  0.00    +0.000 C 
ATOM     12  O   UNL     1       6.069   4.602  19.300  0.00  0.00    +0.000 OA
ATOM     13  H   UNL     1       3.640   6.054  17.920  0.00  0.00    +0.000 HD
BRANCH  10  14
ATOM     14  C   UNL     1       5.636   6.498  17.291  0.00  0.00    +0.000 C 
BRANCH  14  15
ATOM     15  C   UNL     1       5.573   5.852  15.912  0.00  0.00    +0.000 C 
BRANCH  15  17
ATOM     16  N   UNL     1       7.586   4.671  16.567  0.00  0.00    +0.000 N 
ATOM     17  C   UNL     1       6.424   4.604  15.845  0.00  0.00    +0.000 C 
ATOM     18  O   UNL     1       6.141   3.595  15.215  0.00  0.00    +0.000 OA
ATOM     19  H   UNL     1       8.193   3.862  16.553  0.00  0.00    +0.000 HD
ATOM     20  H   UNL     1       7.870   5.482  17.097  0.00  0.00    +0.000 HD
ENDBRANCH  15  17
ENDBRANCH  14  15
ENDBRANCH  10  14
ENDBRANCH   1  11
BRANCH   2  21
ATOM     21  C   UNL     1       1.625   6.129  20.401  0.00  0.00    +0.000 C 
ATOM     22  O   UNL     1       0.494   5.926  20.835  0.00  0.00    +0.000 OA
ATOM     23  N   UNL     1       2.288   7.315  20.625  0.00  0.00    +0.000 N 
ATOM     24  H   UNL     1       3.192   7.483  20.201  0.00  0.00    +0.000 HD
BRANCH  23  25
ATOM     25  C   UNL     1       1.669   8.394  21.365  0.00  0.00    +0.000 C 
BRANCH  25  26
ATOM     26  C   UNL     1       0.804   9.251  20.483  0.00  0.00    +0.000 A 
ATOM     27  C   UNL     1       1.048   9.349  19.105  0.00  0.00    +0.000 A 
ATOM     28  C   UNL     1       0.238  10.153  18.298  0.00  0.00    +0.000 A 
ATOM     29  C   UNL     1      -0.827  10.854  18.867  0.00  0.00    +0.000 A 
ATOM     30 BR   UNL     1      -1.925  11.941  17.778  0.00  0.00    +0.000 Br
ATOM     31  C   UNL     1      -1.091  10.757  20.230  0.00  0.00    +0.000 A 
ATOM     32  C   UNL     1      -0.274   9.954  21.021  0.00  0.00    +0.000 A 
ATOM     33  F   UNL     1      -0.540   9.861  22.332  0.00  0.00    +0.000 F 
ENDBRANCH  25  26
ENDBRANCH  23  25
ENDBRANCH   2  21
TORSDOF 7
ENDMDL
MODEL 8
REMARK VINA RESULT:      -8.1      2.143      2.574
REMARK  Name = 
REMARK  7 active torsions:
REMARK  status: ('A' for Active; 'I' for Inactive)
REMARK    1  A    between atoms: C_2  and  C_4
REMARK    2  A    between atoms: C_4  and  C_5
REMARK    3  A    between atoms: C_5  and  N_6
REMARK    4  A    between atoms: C_7  and  C_9
REMARK    5  A    between atoms: C_10  and  C_11
REMARK    6  A    between atoms: N_13  and  C_14
REMARK    7  A    between atoms: C_14  and  C_15
REMARK                            x       y       z     vdW  Elec       q    Type
REMARK                         _______ _______ _______ _____ _____    ______ ____
ROOT
ATOM      1  C   UNL     1       3.939   5.020  19.017  0.00  0.00    +0.000 C 
ATOM      2  C   UNL     1       2.822   5.652  18.091  0.00  0.00    +0.000 C 
ATOM      3  C   UNL     1       1.505   5.120  18.745  0.00  0.00    +0.000 C 
ATOM      4  C   UNL     1       1.389   5.729  20.144  0.00  0.00    +0.000 C 
ATOM      5  C   UNL     1       2.353   5.181  20.906  0.00  0.00    +0.000 C 
ATOM      6  C   UNL     1       3.095   4.177  20.031  0.00  0.00    +0.000 C 
ATOM      7  C   UNL     1       1.964   3.733  19.128  0.00  0.00    +0.000 C 
ATOM      8  C   UNL     1       1.013   2.608  19.444  0.00  0.00    +0.000 C 
ATOM      9  C   UNL     1       1.958   2.499  18.267  0.00  0.00    +0.000 C 
ENDROOT
BRANCH   1  11
ATOM     10  N   UNL     1       4.806   4.208  16.885  0.00  0.00    +0.000 N 
ATOM     11  C   UNL     1       4.889   4.097  18.260  0.00  0.00    +0.000 C 
ATOM     12  O   UNL     1       5.654   3.314  18.814  0.00  0.00    +0.000 OA
ATOM     13  H   UNL     1       3.958   4.598  16.492  0.00  0.00    +0.000 HD
BRANCH  10  14
ATOM     14  C   UNL     1       5.693   3.440  16.020  0.00  0.00    +0.000 C 
BRANCH  14  15
ATOM     15  C   UNL     1       6.680   4.330  15.276  0.00  0.00    +0.000 C 
BRANCH  15  17
ATOM     16  N   UNL     1       7.471   6.367  16.323  0.00  0.00    +0.000 N 
ATOM     17  C   UNL     1       6.463   5.791  15.598  0.00  0.00    +0.000 C 
ATOM     18  O   UNL     1       5.488   6.447  15.259  0.00  0.00    +0.000 OA
ATOM     19  H   UNL     1       7.373   7.344  16.567  0.00  0.00    +0.000 HD
ATOM     20  H   UNL     1       8.294   5.869  16.634  0.00  0.00    +0.000 HD
ENDBRANCH  15  17
ENDBRANCH  14  15
ENDBRANCH  10  14
ENDBRANCH   1  11
BRANCH   2  21
ATOM     21  C   UNL     1       2.862   7.171  17.993  0.00  0.00    +0.000 C 
ATOM     22  O   UNL     1       3.903   7.823  18.012  0.00  0.00    +0.000 OA
ATOM     23  N   UNL     1       1.626   7.776  17.965  0.00  0.00    +0.000 N 
ATOM     24  H   UNL     1       0.783   7.218  18.015  0.00  0.00    +0.000 HD
BRANCH  23  25
ATOM     25  C   UNL     1       1.493   9.217  17.983  0.00  0.00    +0.000 C 
BRANCH  25  26
ATOM     26  C   UNL     1       0.798   9.697  19.226  0.00  0.00    +0.000 A 
ATOM     27  C   UNL     1       1.138   9.187  20.488  0.00  0.00    +0.000 A 
ATOM     28  C   UNL     1       0.479   9.641  21.634  0.00  0.00    +0.000 A 
ATOM     29  C   UNL     1      -0.514  10.614  21.523  0.00  0.00    +0.000 A 
ATOM     30 BR   UNL     1      -1.405  11.230  23.073  0.00  0.00    +0.000 Br
ATOM     31  C   UNL     1      -0.853  11.141  20.280  0.00  0.00    +0.000 A 
ATOM     32  C   UNL     1      -0.191  10.678  19.147  0.00  0.00    +0.000 A 
ATOM     33  F   UNL     1      -0.519  11.196  17.954  0.00  0.00    +0.000 F 
ENDBRANCH  25  26
ENDBRANCH  23  25
ENDBRANCH   2  21
TORSDOF 7
ENDMDL
MODEL 9
REMARK VINA RESULT:      -8.1      2.191      2.390
REMARK  Name = 
REMARK  7 active torsions:
REMARK  status: ('A' for Active; 'I' for Inactive)
REMARK    1  A    between atoms: C_2  and  C_4
REMARK    2  A    between atoms: C_4  and  C_5
REMARK    3  A    between atoms: C_5  and  N_6
REMARK    4  A    between atoms: C_7  and  C_9
REMARK    5  A    between atoms: C_10  and  C_11
REMARK    6  A    between atoms: N_13  and  C_14
REMARK    7  A    between atoms: C_14  and  C_15
REMARK                            x       y       z     vdW  Elec       q    Type
REMARK                         _______ _______ _______ _____ _____    ______ ____
ROOT
ATOM      1  C   UNL     1       3.767   5.231  19.859  0.00  0.00    +0.000 C 
ATOM      2  C   UNL     1       2.522   5.939  19.184  0.00  0.00    +0.000 C 
ATOM      3  C   UNL     1       1.550   4.740  18.937  0.00  0.00    +0.000 C 
ATOM      4  C   UNL     1       1.124   4.184  20.297  0.00  0.00    +0.000 C 
ATOM      5  C   UNL     1       2.201   3.597  20.851  0.00  0.00    +0.000 C 
ATOM      6  C   UNL     1       3.342   3.725  19.849  0.00  0.00    +0.000 C 
ATOM      7  C   UNL     1       2.558   3.681  18.554  0.00  0.00    +0.000 C 
ATOM      8  C   UNL     1       2.188   2.416  17.825  0.00  0.00    +0.000 C 
ATOM      9  C   UNL     1       3.129   3.415  17.189  0.00  0.00    +0.000 C 
ENDROOT
BRANCH   1  11
ATOM     10  N   UNL     1       4.951   6.285  18.003  0.00  0.00    +0.000 N 
ATOM     11  C   UNL     1       5.055   5.399  19.059  0.00  0.00    +0.000 C 
ATOM     12  O   UNL     1       6.092   4.796  19.315  0.00  0.00    +0.000 OA
ATOM     13  H   UNL     1       4.027   6.483  17.641  0.00  0.00    +0.000 HD
BRANCH  10  14
ATOM     14  C   UNL     1       6.112   6.603  17.180  0.00  0.00    +0.000 C 
BRANCH  14  15
ATOM     15  C   UNL     1       6.034   5.952  15.805  0.00  0.00    +0.000 C 
BRANCH  15  17
ATOM     16  N   UNL     1       7.753   4.493  16.693  0.00  0.00    +0.000 N 
ATOM     17  C   UNL     1       6.737   4.615  15.783  0.00  0.00    +0.000 C 
ATOM     18  O   UNL     1       6.457   3.686  15.038  0.00  0.00    +0.000 OA
ATOM     19  H   UNL     1       8.258   3.617  16.718  0.00  0.00    +0.000 HD
ATOM     20  H   UNL     1       8.029   5.230  17.326  0.00  0.00    +0.000 HD
ENDBRANCH  15  17
ENDBRANCH  14  15
ENDBRANCH  10  14
ENDBRANCH   1  11
BRANCH   2  21
ATOM     21  C   UNL     1       1.894   7.049  20.015  0.00  0.00    +0.000 C 
ATOM     22  O   UNL     1       1.660   6.945  21.217  0.00  0.00    +0.000 OA
ATOM     23  N   UNL     1       1.526   8.163  19.297  0.00  0.00    +0.000 N 
ATOM     24  H   UNL     1       1.672   8.197  18.296  0.00  0.00    +0.000 HD
BRANCH  23  25
ATOM     25  C   UNL     1       0.817   9.261  19.921  0.00  0.00    +0.000 C 
BRANCH  25  26
ATOM     26  C   UNL     1       1.351  10.593  19.476  0.00  0.00    +0.000 A 
ATOM     27  C   UNL     1       2.021  10.733  18.251  0.00  0.00    +0.000 A 
ATOM     28  C   UNL     1       2.515  11.978  17.853  0.00  0.00    +0.000 A 
ATOM     29  C   UNL     1       2.331  13.091  18.674  0.00  0.00    +0.000 A 
ATOM     30 BR   UNL     1       2.998  14.776  18.137  0.00  0.00    +0.000 Br
ATOM     31  C   UNL     1       1.657  12.972  19.886  0.00  0.00    +0.000 A 
ATOM     32  C   UNL     1       1.172  11.726  20.271  0.00  0.00    +0.000 A 
ATOM     33  F   UNL     1       0.518  11.623  21.437  0.00  0.00    +0.000 F 
ENDBRANCH  25  26
ENDBRANCH  23  25
ENDBRANCH   2  21
TORSDOF 7
ENDMDL
