MODEL 1
REMARK VINA RESULT:      -7.2      0.000      0.000
REMARK  Name = 
REMARK  2 active torsions:
REMARK  status: ('A' for Active; 'I' for Inactive)
REMARK    1  A    between atoms: C_2  and  C_16
REMARK    2  A    between atoms: C_6  and  N_7
REMARK                            x       y       z     vdW  Elec       q    Type
REMARK                         _______ _______ _______ _____ _____    ______ ____
ROOT
ATOM      1  O   UNL     1       1.631   8.612  19.219  0.00  0.00    +0.000 OA
ATOM      2  C   UNL     1       1.284   8.358  20.368  0.00  0.00    +0.000 C 
ATOM      3  N   UNL     1       1.410   7.119  20.962  0.00  0.00    +0.000 N 
ATOM      4  C   UNL     1       2.025   6.032  20.329  0.00  0.00    +0.000 A 
ATOM      5  C   UNL     1       3.162   6.190  19.566  0.00  0.00    +0.000 A 
ATOM      6  C   UNL     1       3.694   5.071  18.951  0.00  0.00    +0.000 A 
ATOM      7  N   UNL     1       3.067   3.887  19.060  0.00  0.00    +0.000 NA
ATOM      8  C   UNL     1       1.983   3.834  19.850  0.00  0.00    +0.000 A 
ATOM      9  N   UNL     1       1.448   4.846  20.544  0.00  0.00    +0.000 NA
ATOM     10  H   UNL     1       0.732   6.859  21.664  0.00  0.00    +0.000 HD
ENDROOT
BRANCH   6  11
ATOM     11  N   UNL     1       4.857   5.154  18.212  0.00  0.00    +0.000 N 
ATOM     12  C   UNL     1       6.101   4.613  18.748  0.00  0.00    +0.000 C 
ATOM     13  C   UNL     1       7.156   5.708  18.888  0.00  0.00    +0.000 C 
ATOM     14  C   UNL     1       7.317   6.504  17.597  0.00  0.00    +0.000 C 
ATOM     15  C   UNL     1       5.969   7.048  17.128  0.00  0.00    +0.000 C 
ATOM     16  C   UNL     1       4.934   5.934  16.980  0.00  0.00    +0.000 C 
ENDBRANCH   6  11
BRANCH   2  17
ATOM     17  C   UNL     1       0.634   9.382  21.189  0.00  0.00    +0.000 A 
ATOM     18  C   UNL     1      -0.005   9.106  22.448  0.00  0.00    +0.000 A 
ATOM     19  C   UNL     1      -0.604  10.215  23.004  0.00  0.00    +0.000 A 
ATOM     20  S   UNL     1      -0.406  11.599  22.025  0.00  0.00    +0.000 S 
ATOM     21  C   UNL     1       0.481  10.717  20.854  0.00  0.00    +0.000 A 
ENDBRANCH   2  17
TORSDOF 2
ENDMDL
MODEL 2
REMARK VINA RESULT:      -7.1      1.360      1.560
REMARK  Name = 
REMARK  2 active torsions:
REMARK  status: ('A' for Active; 'I' for Inactive)
REMARK    1  A    between atoms: C_2  and  C_16
REMARK    2  A    between atoms: C_6  and  N_7
REMARK                            x       y       z     vdW  Elec       q    Type
REMARK                         _______ _______ _______ _____ _____    ______ ____
ROOT
ATOM      1  O   UNL     1       2.137   7.539  18.487  0.00  0.00    +0.000 OA
ATOM      2  C   UNL     1       1.996   7.530  19.706  0.00  0.00    +0.000 C 
ATOM      3  N   UNL     1       2.349   6.475  20.522  0.00  0.00    +0.000 N 
ATOM      4  C   UNL     1       2.983   5.323  20.043  0.00  0.00    +0.000 A 
ATOM      5  C   UNL     1       3.969   5.389  19.081  0.00  0.00    +0.000 A 
ATOM      6  C   UNL     1       4.528   4.203  18.640  0.00  0.00    +0.000 A 
ATOM      7  N   UNL     1       4.063   3.031  19.106  0.00  0.00    +0.000 NA
ATOM      8  C   UNL     1       3.122   3.077  20.061  0.00  0.00    +0.000 A 
ATOM      9  N   UNL     1       2.583   4.178  20.603  0.00  0.00    +0.000 NA
ATOM     10  H   UNL     1       1.817   6.333  21.368  0.00  0.00    +0.000 HD
ENDROOT
BRANCH   6  11
ATOM     11  N   UNL     1       5.552   4.203  17.714  0.00  0.00    +0.000 N 
ATOM     12  C   UNL     1       6.831   4.821  18.042  0.00  0.00    +0.000 C 
ATOM     13  C   UNL     1       7.148   5.965  17.081  0.00  0.00    +0.000 C 
ATOM     14  C   UNL     1       7.010   5.532  15.624  0.00  0.00    +0.000 C 
ATOM     15  C   UNL     1       5.632   4.920  15.373  0.00  0.00    +0.000 C 
ATOM     16  C   UNL     1       5.344   3.769  16.336  0.00  0.00    +0.000 C 
ENDBRANCH   6  11
BRANCH   2  17
ATOM     17  C   UNL     1       1.363   8.663  20.386  0.00  0.00    +0.000 A 
ATOM     18  C   UNL     1       1.119   8.705  21.803  0.00  0.00    +0.000 A 
ATOM     19  C   UNL     1       0.452   9.842  22.202  0.00  0.00    +0.000 A 
ATOM     20  S   UNL     1       0.112  10.873  20.885  0.00  0.00    +0.000 S 
ATOM     21  C   UNL     1       0.856   9.798  19.776  0.00  0.00    +0.000 A 
ENDBRANCH   2  17
TORSDOF 2
ENDMDL
MODEL 3
REMARK VINA RESULT:      -7.1      1.003      1.554
REMARK  Name = 
REMARK  2 active torsions:
REMARK  status: ('A' for Active; 'I' for Inactive)
REMARK    1  A    between atoms: C_2  and  C_16
REMARK    2  A    between atoms: C_6  and  N_7
REMARK                            x       y       z     vdW  Elec       q    Type
REMARK                         _______ _______ _______ _____ _____    ______ ____
ROOT
ATOM      1  O   UNL     1       1.609   8.847  19.029  0.00  0.00    +0.000 OA
ATOM      2  C   UNL     1       1.373   8.500  20.181  0.00  0.00    +0.000 C 
ATOM      3  N   UNL     1       1.688   7.261  20.700  0.00  0.00    +0.000 N 
ATOM      4  C   UNL     1       2.388   6.289  19.975  0.00  0.00    +0.000 A 
ATOM      5  C   UNL     1       3.444   6.623  19.154  0.00  0.00    +0.000 A 
ATOM      6  C   UNL     1       4.067   5.608  18.449  0.00  0.00    +0.000 A 
ATOM      7  N   UNL     1       3.597   4.351  18.533  0.00  0.00    +0.000 NA
ATOM      8  C   UNL     1       2.582   4.127  19.383  0.00  0.00    +0.000 A 
ATOM      9  N   UNL     1       1.975   5.032  20.161  0.00  0.00    +0.000 NA
ATOM     10  H   UNL     1       1.096   6.887  21.427  0.00  0.00    +0.000 HD
ENDROOT
BRANCH   6  11
ATOM     11  N   UNL     1       5.159   5.868  17.647  0.00  0.00    +0.000 N 
ATOM     12  C   UNL     1       4.963   6.307  16.270  0.00  0.00    +0.000 C 
ATOM     13  C   UNL     1       5.588   5.319  15.288  0.00  0.00    +0.000 C 
ATOM     14  C   UNL     1       7.036   5.003  15.651  0.00  0.00    +0.000 C 
ATOM     15  C   UNL     1       7.136   4.530  17.101  0.00  0.00    +0.000 C 
ATOM     16  C   UNL     1       6.519   5.541  18.065  0.00  0.00    +0.000 C 
ENDBRANCH   6  11
BRANCH   2  17
ATOM     17  C   UNL     1       0.660   9.397  21.094  0.00  0.00    +0.000 A 
ATOM     18  C   UNL     1       0.143   8.986  22.372  0.00  0.00    +0.000 A 
ATOM     19  C   UNL     1      -0.548   9.985  23.021  0.00  0.00    +0.000 A 
ATOM     20  S   UNL     1      -0.585  11.426  22.108  0.00  0.00    +0.000 S 
ATOM     21  C   UNL     1       0.323  10.716  20.840  0.00  0.00    +0.000 A 
ENDBRANCH   2  17
TORSDOF 2
ENDMDL
MODEL 4
REMARK VINA RESULT:      -7.0      4.682      6.733
REMARK  Name = 
REMARK  2 active torsions:
REMARK  status: ('A' for Active; 'I' for Inactive)
REMARK    1  A    between atoms: C_2  and  C_16
REMARK    2  A    between atoms: C_6  and  N_7
REMARK                            x       y       z     vdW  Elec       q    Type
REMARK                         _______ _______ _______ _____ _____    ______ ____
ROOT
ATOM      1  O   UNL     1       7.840   6.963  19.041  0.00  0.00    +0.000 OA
ATOM      2  C   UNL     1       7.890   7.742  18.094  0.00  0.00    +0.000 C 
ATOM      3  N   UNL     1       7.486   7.434  16.811  0.00  0.00    +0.000 N 
ATOM      4  C   UNL     1       6.900   6.209  16.473  0.00  0.00    +0.000 A 
ATOM      5  C   UNL     1       5.989   5.591  17.303  0.00  0.00    +0.000 A 
ATOM      6  C   UNL     1       5.474   4.368  16.911  0.00  0.00    +0.000 A 
ATOM      7  N   UNL     1       5.914   3.791  15.778  0.00  0.00    +0.000 NA
ATOM      8  C   UNL     1       6.780   4.489  15.027  0.00  0.00    +0.000 A 
ATOM      9  N   UNL     1       7.266   5.709  15.290  0.00  0.00    +0.000 NA
ATOM     10  H   UNL     1       7.954   7.894  16.044  0.00  0.00    +0.000 HD
ENDROOT
BRANCH   6  11
ATOM     11  N   UNL     1       4.524   3.720  17.673  0.00  0.00    +0.000 N 
ATOM     12  C   UNL     1       3.271   3.290  17.064  0.00  0.00    +0.000 C 
ATOM     13  C   UNL     1       2.077   3.962  17.738  0.00  0.00    +0.000 C 
ATOM     14  C   UNL     1       2.127   3.810  19.255  0.00  0.00    +0.000 C 
ATOM     15  C   UNL     1       3.464   4.308  19.802  0.00  0.00    +0.000 C 
ATOM     16  C   UNL     1       4.642   3.611  19.124  0.00  0.00    +0.000 C 
ENDBRANCH   6  11
BRANCH   2  17
ATOM     17  C   UNL     1       8.459   9.081  18.266  0.00  0.00    +0.000 A 
ATOM     18  C   UNL     1       9.265   9.464  19.395  0.00  0.00    +0.000 A 
ATOM     19  C   UNL     1       9.630  10.792  19.372  0.00  0.00    +0.000 A 
ATOM     20  S   UNL     1       9.015  11.594  17.997  0.00  0.00    +0.000 S 
ATOM     21  C   UNL     1       8.255  10.166  17.430  0.00  0.00    +0.000 A 
ENDBRANCH   2  17
TORSDOF 2
ENDMDL
MODEL 5
REMARK VINA RESULT:      -7.0      2.314      4.149
REMARK  Name = 
REMARK  2 active torsions:
REMARK  status: ('A' for Active; 'I' for Inactive)
REMARK    1  A    between atoms: C_2  and  C_16
REMARK    2  A    between atoms: C_6  and  N_7
REMARK                            x       y       z     vdW  Elec       q    Type
REMARK                         _______ _______ _______ _____ _____    ______ ____
ROOT
ATOM      1  O   UNL     1       1.470   8.476  20.125  0.00  0.00    +0.000 OA
ATOM      2  C   UNL     1       1.481   9.062  19.047  0.00  0.00    +0.000 C 
ATOM      3  N   UNL     1       2.185   8.639  17.939  0.00  0.00    +0.000 N 
ATOM      4  C   UNL     1       2.907   7.440  17.910  0.00  0.00    +0.000 A 
ATOM      5  C   UNL     1       2.422   6.291  18.497  0.00  0.00    +0.000 A 
ATOM      6  C   UNL     1       3.207   5.154  18.448  0.00  0.00    +0.000 A 
ATOM      7  N   UNL     1       4.431   5.209  17.893  0.00  0.00    +0.000 NA
ATOM      8  C   UNL     1       4.797   6.368  17.324  0.00  0.00    +0.000 A 
ATOM      9  N   UNL     1       4.070   7.491  17.254  0.00  0.00    +0.000 NA
ATOM     10  H   UNL     1       2.522   9.341  17.296  0.00  0.00    +0.000 HD
ENDROOT
BRANCH   6  11
ATOM     11  N   UNL     1       2.759   3.959  18.976  0.00  0.00    +0.000 N 
ATOM     12  C   UNL     1       1.369   3.559  18.794  0.00  0.00    +0.000 C 
ATOM     13  C   UNL     1       0.666   3.401  20.141  0.00  0.00    +0.000 C 
ATOM     14  C   UNL     1       1.462   2.511  21.091  0.00  0.00    +0.000 C 
ATOM     15  C   UNL     1       2.894   3.023  21.235  0.00  0.00    +0.000 C 
ATOM     16  C   UNL     1       3.582   3.158  19.878  0.00  0.00    +0.000 C 
ENDBRANCH   6  11
BRANCH   2  17
ATOM     17  C   UNL     1       0.764  10.330  18.887  0.00  0.00    +0.000 A 
ATOM     18  C   UNL     1      -0.620  10.419  18.509  0.00  0.00    +0.000 A 
ATOM     19  C   UNL     1      -1.056  11.717  18.355  0.00  0.00    +0.000 A 
ATOM     20  S   UNL     1       0.188  12.843  18.665  0.00  0.00    +0.000 S 
ATOM     21  C   UNL     1       1.314  11.596  19.003  0.00  0.00    +0.000 A 
ENDBRANCH   2  17
TORSDOF 2
ENDMDL
MODEL 6
REMARK VINA RESULT:      -6.9      0.881      1.201
REMARK  Name = 
REMARK  2 active torsions:
REMARK  status: ('A' for Active; 'I' for Inactive)
REMARK    1  A    between atoms: C_2  and  C_16
REMARK    2  A    between atoms: C_6  and  N_7
REMARK                            x       y       z     vdW  Elec       q    Type
REMARK                         _______ _______ _______ _____ _____    ______ ____
ROOT
ATOM      1  O   UNL     1       1.953   8.109  18.986  0.00  0.00    +0.000 OA
ATOM      2  C   UNL     1       1.580   7.938  20.142  0.00  0.00    +0.000 C 
ATOM      3  N   UNL     1       1.721   6.755  20.837  0.00  0.00    +0.000 N 
ATOM      4  C   UNL     1       2.383   5.639  20.312  0.00  0.00    +0.000 A 
ATOM      5  C   UNL     1       3.537   5.768  19.569  0.00  0.00    +0.000 A 
ATOM      6  C   UNL     1       4.117   4.619  19.061  0.00  0.00    +0.000 A 
ATOM      7  N   UNL     1       3.518   3.430  19.249  0.00  0.00    +0.000 NA
ATOM      8  C   UNL     1       2.414   3.409  20.011  0.00  0.00    +0.000 A 
ATOM      9  N   UNL     1       1.832   4.458  20.607  0.00  0.00    +0.000 NA
ATOM     10  H   UNL     1       1.031   6.533  21.540  0.00  0.00    +0.000 HD
ENDROOT
BRANCH   6  11
ATOM     11  N   UNL     1       5.298   4.675  18.349  0.00  0.00    +0.000 N 
ATOM     12  C   UNL     1       6.517   5.148  18.996  0.00  0.00    +0.000 C 
ATOM     13  C   UNL     1       7.061   6.389  18.293  0.00  0.00    +0.000 C 
ATOM     14  C   UNL     1       7.186   6.176  16.787  0.00  0.00    +0.000 C 
ATOM     15  C   UNL     1       5.857   5.706  16.198  0.00  0.00    +0.000 C 
ATOM     16  C   UNL     1       5.340   4.455  16.906  0.00  0.00    +0.000 C 
ENDBRANCH   6  11
BRANCH   2  17
ATOM     17  C   UNL     1       0.880   9.006  20.860  0.00  0.00    +0.000 A 
ATOM     18  C   UNL     1       0.886  10.382  20.442  0.00  0.00    +0.000 A 
ATOM     19  C   UNL     1       0.216  11.214  21.312  0.00  0.00    +0.000 A 
ATOM     20  S   UNL     1      -0.430  10.355  22.638  0.00  0.00    +0.000 S 
ATOM     21  C   UNL     1       0.188   8.868  22.051  0.00  0.00    +0.000 A 
ENDBRANCH   2  17
TORSDOF 2
ENDMDL
MODEL 7
REMARK VINA RESULT:      -6.9      1.413      1.956
REMARK  Name = 
REMARK  2 active torsions:
REMARK  status: ('A' for Active; 'I' for Inactive)
REMARK    1  A    between atoms: C_2  and  C_16
REMARK    2  A    between atoms: C_6  and  N_7
REMARK                            x       y       z     vdW  Elec       q    Type
REMARK                         _______ _______ _______ _____ _____    ______ ____
ROOT
ATOM      1  O   UNL     1       2.035   7.844  17.889  0.00  0.00    +0.000 OA
ATOM      2  C   UNL     1       1.895   8.078  19.086  0.00  0.00    +0.000 C 
ATOM      3  N   UNL     1       2.202   7.188  20.094  0.00  0.00    +0.000 N 
ATOM      4  C   UNL     1       2.785   5.938  19.852  0.00  0.00    +0.000 A 
ATOM      5  C   UNL     1       3.771   5.773  18.904  0.00  0.00    +0.000 A 
ATOM      6  C   UNL     1       4.277   4.500  18.705  0.00  0.00    +0.000 A 
ATOM      7  N   UNL     1       3.761   3.462  19.387  0.00  0.00    +0.000 NA
ATOM      8  C   UNL     1       2.824   3.734  20.308  0.00  0.00    +0.000 A 
ATOM      9  N   UNL     1       2.335   4.942  20.621  0.00  0.00    +0.000 NA
ATOM     10  H   UNL     1       1.666   7.236  20.948  0.00  0.00    +0.000 HD
ENDROOT
BRANCH   6  11
ATOM     11  N   UNL     1       5.298   4.275  17.804  0.00  0.00    +0.000 N 
ATOM     12  C   UNL     1       6.646   4.748  18.098  0.00  0.00    +0.000 C 
ATOM     13  C   UNL     1       7.119   5.741  17.040  0.00  0.00    +0.000 C 
ATOM     14  C   UNL     1       6.936   5.191  15.628  0.00  0.00    +0.000 C 
ATOM     15  C   UNL     1       5.491   4.746  15.408  0.00  0.00    +0.000 C 
ATOM     16  C   UNL     1       5.045   3.741  16.469  0.00  0.00    +0.000 C 
ENDBRANCH   6  11
BRANCH   2  17
ATOM     17  C   UNL     1       1.314   9.348  19.528  0.00  0.00    +0.000 A 
ATOM     18  C   UNL     1       1.221  10.515  18.692  0.00  0.00    +0.000 A 
ATOM     19  C   UNL     1       0.700  11.609  19.347  0.00  0.00    +0.000 A 
ATOM     20  S   UNL     1       0.314  11.249  20.970  0.00  0.00    +0.000 S 
ATOM     21  C   UNL     1       0.846   9.629  20.800  0.00  0.00    +0.000 A 
ENDBRANCH   2  17
TORSDOF 2
ENDMDL
MODEL 8
REMARK VINA RESULT:      -6.9      2.357      4.119
REMARK  Name = 
REMARK  2 active torsions:
REMARK  status: ('A' for Active; 'I' for Inactive)
REMARK    1  A    between atoms: C_2  and  C_16
REMARK    2  A    between atoms: C_6  and  N_7
REMARK                            x       y       z     vdW  Elec       q    Type
REMARK                         _______ _______ _______ _____ _____    ______ ____
ROOT
ATOM      1  O   UNL     1       1.355   8.874  20.143  0.00  0.00    +0.000 OA
ATOM      2  C   UNL     1       1.216   9.312  19.005  0.00  0.00    +0.000 C 
ATOM      3  N   UNL     1       1.885   8.830  17.899  0.00  0.00    +0.000 N 
ATOM      4  C   UNL     1       2.745   7.727  17.952  0.00  0.00    +0.000 A 
ATOM      5  C   UNL     1       2.447   6.617  18.714  0.00  0.00    +0.000 A 
ATOM      6  C   UNL     1       3.361   5.578  18.735  0.00  0.00    +0.000 A 
ATOM      7  N   UNL     1       4.526   5.699  18.073  0.00  0.00    +0.000 NA
ATOM      8  C   UNL     1       4.705   6.808  17.338  0.00  0.00    +0.000 A 
ATOM      9  N   UNL     1       3.843   7.823  17.196  0.00  0.00    +0.000 NA
ATOM     10  H   UNL     1       2.087   9.476  17.149  0.00  0.00    +0.000 HD
ENDROOT
BRANCH   6  11
ATOM     11  N   UNL     1       3.102   4.420  19.440  0.00  0.00    +0.000 N 
ATOM     12  C   UNL     1       3.327   3.122  18.815  0.00  0.00    +0.000 C 
ATOM     13  C   UNL     1       2.030   2.319  18.742  0.00  0.00    +0.000 C 
ATOM     14  C   UNL     1       1.329   2.257  20.096  0.00  0.00    +0.000 C 
ATOM     15  C   UNL     1       1.117   3.662  20.657  0.00  0.00    +0.000 C 
ATOM     16  C   UNL     1       2.430   4.439  20.735  0.00  0.00    +0.000 C 
ENDBRANCH   6  11
BRANCH   2  17
ATOM     17  C   UNL     1       0.340  10.460  18.756  0.00  0.00    +0.000 A 
ATOM     18  C   UNL     1      -1.001  10.341  18.249  0.00  0.00    +0.000 A 
ATOM     19  C   UNL     1      -1.606  11.560  18.032  0.00  0.00    +0.000 A 
ATOM     20  S   UNL     1      -0.575  12.859  18.434  0.00  0.00    +0.000 S 
ATOM     21  C   UNL     1       0.685  11.793  18.898  0.00  0.00    +0.000 A 
ENDBRANCH   2  17
TORSDOF 2
ENDMDL
MODEL 9
REMARK VINA RESULT:      -6.8      2.239      3.662
REMARK  Name = 
REMARK  2 active torsions:
REMARK  status: ('A' for Active; 'I' for Inactive)
REMARK    1  A    between atoms: C_2  and  C_16
REMARK    2  A    between atoms: C_6  and  N_7
REMARK                            x       y       z     vdW  Elec       q    Type
REMARK                         _______ _______ _______ _____ _____    ______ ____
ROOT
ATOM      1  O   UNL     1       1.619   9.188  22.307  0.00  0.00    +0.000 OA
ATOM      2  C   UNL     1       0.867   9.759  21.523  0.00  0.00    +0.000 C 
ATOM      3  N   UNL     1       0.837   9.523  20.164  0.00  0.00    +0.000 N 
ATOM      4  C   UNL     1       1.617   8.540  19.545  0.00  0.00    +0.000 A 
ATOM      5  C   UNL     1       1.818   7.306  20.128  0.00  0.00    +0.000 A 
ATOM      6  C   UNL     1       2.625   6.398  19.466  0.00  0.00    +0.000 A 
ATOM      7  N   UNL     1       3.234   6.754  18.321  0.00  0.00    +0.000 NA
ATOM      8  C   UNL     1       2.949   7.968  17.824  0.00  0.00    +0.000 A 
ATOM      9  N   UNL     1       2.120   8.876  18.354  0.00  0.00    +0.000 NA
ATOM     10  H   UNL     1       0.576  10.286  19.557  0.00  0.00    +0.000 HD
ENDROOT
BRANCH   6  11
ATOM     11  N   UNL     1       2.828   5.130  19.972  0.00  0.00    +0.000 N 
ATOM     12  C   UNL     1       3.648   4.174  19.235  0.00  0.00    +0.000 C 
ATOM     13  C   UNL     1       2.837   2.937  18.858  0.00  0.00    +0.000 C 
ATOM     14  C   UNL     1       2.111   2.349  20.064  0.00  0.00    +0.000 C 
ATOM     15  C   UNL     1       1.263   3.416  20.754  0.00  0.00    +0.000 C 
ATOM     16  C   UNL     1       2.098   4.637  21.136  0.00  0.00    +0.000 C 
ENDBRANCH   6  11
BRANCH   2  17
ATOM     17  C   UNL     1      -0.036  10.811  21.996  0.00  0.00    +0.000 A 
ATOM     18  C   UNL     1      -1.043  10.601  23.002  0.00  0.00    +0.000 A 
ATOM     19  C   UNL     1      -1.815  11.718  23.234  0.00  0.00    +0.000 A 
ATOM     20  S   UNL     1      -1.341  13.030  22.250  0.00  0.00    +0.000 S 
ATOM     21  C   UNL     1      -0.103  12.106  21.511  0.00  0.00    +0.000 A 
ENDBRANCH   2  17
TORSDOF 2
ENDMDL
