MODEL 1
REMARK VINA RESULT:      -9.5      0.000      0.000
REMARK  Name = 
REMARK  8 active torsions:
REMARK  status: ('A' for Active; 'I' for Inactive)
REMARK    1  A    between atoms: C_1  and  C_2
REMARK    2  A    between atoms: C_2  and  N_3
REMARK    3  A    between atoms: C_12  and  C_13
REMARK    4  A    between atoms: C_17  and  C_18
REMARK    5  A    between atoms: C_18  and  O_20
REMARK    6  A    between atoms: N_24  and  C_25
REMARK    7  A    between atoms: C_25  and  C_26
REMARK    8  A    between atoms: C_26  and  C_27
REMARK                            x       y       z     vdW  Elec       q    Type
REMARK                         _______ _______ _______ _____ _____    ______ ____
ROOT
ATOM      1  C   UNL     1       2.440   7.998  18.370  0.00  0.00    +0.000 A 
ATOM      2  N   UNL     1       3.241   8.024  17.319  0.00  0.00    +0.000 NA
ATOM      3  C   UNL     1       4.118   6.982  17.465  0.00  0.00    +0.000 A 
ATOM      4  C   UNL     1       5.190   6.610  16.641  0.00  0.00    +0.000 A 
ATOM      5  C   UNL     1       5.994   5.529  17.036  0.00  0.00    +0.000 A 
ATOM      6  C   UNL     1       5.700   4.813  18.204  0.00  0.00    +0.000 A 
ATOM      7  C   UNL     1       4.613   5.158  19.016  0.00  0.00    +0.000 A 
ATOM      8  C   UNL     1       3.840   6.257  18.616  0.00  0.00    +0.000 A 
ATOM      9  N   UNL     1       2.715   6.873  19.144  0.00  0.00    +0.000 N 
ENDROOT
BRANCH   1  19
ATOM     10  N   UNL     1      -1.947  11.395  19.266  0.00  0.00    +0.000 N 
ATOM     11  C   UNL     1      -2.686  11.231  18.114  0.00  0.00    +0.000 A 
ATOM     12  C   UNL     1      -3.902  11.806  17.708  0.00  0.00    +0.000 A 
ATOM     13  C   UNL     1      -4.418  11.444  16.461  0.00  0.00    +0.000 A 
ATOM     14  C   UNL     1      -3.752  10.530  15.652  0.00  0.00    +0.000 A 
ATOM     15  C   UNL     1      -2.545   9.956  16.067  0.00  0.00    +0.000 A 
ATOM     16  C   UNL     1      -1.991  10.318  17.316  0.00  0.00    +0.000 A 
ATOM     17  C   UNL     1      -0.788   9.960  18.006  0.00  0.00    +0.000 A 
ATOM     18  C   UNL     1       0.289   9.083  17.732  0.00  0.00    +0.000 A 
ATOM     19  C   UNL     1       1.380   8.994  18.617  0.00  0.00    +0.000 A 
ATOM     20  C   UNL     1       1.420   9.856  19.717  0.00  0.00    +0.000 A 
ATOM     21  C   UNL     1       0.342  10.676  20.052  0.00  0.00    +0.000 A 
ATOM     22  C   UNL     1      -0.757  10.702  19.187  0.00  0.00    +0.000 A 
BRANCH  10  24
ATOM     23  C   UNL     1      -1.897  13.617  20.349  0.00  0.00    +0.000 C 
ATOM     24  C   UNL     1      -2.362  12.174  20.423  0.00  0.00    +0.000 C 
ENDBRANCH  10  24
ENDBRANCH   1  19
BRANCH   5  25
ATOM     25  C   UNL     1       7.157   5.078  16.226  0.00  0.00    +0.000 C 
ATOM     26  O   UNL     1       7.371   5.486  15.098  0.00  0.00    +0.000 OA
BRANCH  25  27
ATOM     27  O   UNL     1       7.921   4.142  16.825  0.00  0.00    +0.000 OA
ATOM     28  H   UNL     1       7.677   3.216  16.636  0.00  0.00    +0.000 HD
ENDBRANCH  25  27
ENDBRANCH   5  25
BRANCH   9  29
ATOM     29  C   UNL     1       2.026   6.409  20.335  0.00  0.00    +0.000 C 
BRANCH  29  30
ATOM     30  C   UNL     1       1.465   4.986  20.295  0.00  0.00    +0.000 C 
BRANCH  30  31
ATOM     31  C   UNL     1       2.057   4.074  21.328  0.00  0.00    +0.000 C 
ATOM     32  C   UNL     1       1.357   2.763  21.581  0.00  0.00    +0.000 C 
ATOM     33  C   UNL     1       2.717   2.775  20.943  0.00  0.00    +0.000 C 
ENDBRANCH  30  31
ENDBRANCH  29  30
ENDBRANCH   9  29
TORSDOF 7
ENDMDL
MODEL 2
REMARK VINA RESULT:      -8.9      2.280      3.112
REMARK  Name = 
REMARK  8 active torsions:
REMARK  status: ('A' for Active; 'I' for Inactive)
REMARK    1  A    between atoms: C_1  and  C_2
REMARK    2  A    between atoms: C_2  and  N_3
REMARK    3  A    between atoms: C_12  and  C_13
REMARK    4  A    between atoms: C_17  and  C_18
REMARK    5  A    between atoms: C_18  and  O_20
REMARK    6  A    between atoms: N_24  and  C_25
REMARK    7  A    between atoms: C_25  and  C_26
REMARK    8  A    between atoms: C_26  and  C_27
REMARK                            x       y       z     vdW  Elec       q    Type
REMARK                         _______ _______ _______ _____ _____    ______ ____
ROOT
ATOM      1  C   UNL     1       3.424   6.545  17.851  0.00  0.00    +0.000 A 
ATOM      2  N   UNL     1       4.215   7.111  16.956  0.00  0.00    +0.000 NA
ATOM      3  C   UNL     1       4.835   6.096  16.278  0.00  0.00    +0.000 A 
ATOM      4  C   UNL     1       5.800   6.173  15.263  0.00  0.00    +0.000 A 
ATOM      5  C   UNL     1       6.340   4.980  14.759  0.00  0.00    +0.000 A 
ATOM      6  C   UNL     1       5.887   3.740  15.230  0.00  0.00    +0.000 A 
ATOM      7  C   UNL     1       4.902   3.653  16.221  0.00  0.00    +0.000 A 
ATOM      8  C   UNL     1       4.397   4.858  16.728  0.00  0.00    +0.000 A 
ATOM      9  N   UNL     1       3.437   5.162  17.682  0.00  0.00    +0.000 N 
ENDROOT
BRANCH   1  19
ATOM     10  N   UNL     1      -0.039   9.457  21.185  0.00  0.00    +0.000 N 
ATOM     11  C   UNL     1      -0.234  10.617  20.465  0.00  0.00    +0.000 A 
ATOM     12  C   UNL     1      -0.998  11.761  20.749  0.00  0.00    +0.000 A 
ATOM     13  C   UNL     1      -1.001  12.799  19.813  0.00  0.00    +0.000 A 
ATOM     14  C   UNL     1      -0.279  12.695  18.629  0.00  0.00    +0.000 A 
ATOM     15  C   UNL     1       0.474  11.548  18.352  0.00  0.00    +0.000 A 
ATOM     16  C   UNL     1       0.510  10.490  19.288  0.00  0.00    +0.000 A 
ATOM     17  C   UNL     1       1.190   9.231  19.334  0.00  0.00    +0.000 A 
ATOM     18  C   UNL     1       2.055   8.538  18.451  0.00  0.00    +0.000 A 
ATOM     19  C   UNL     1       2.614   7.302  18.824  0.00  0.00    +0.000 A 
ATOM     20  C   UNL     1       2.375   6.823  20.116  0.00  0.00    +0.000 A 
ATOM     21  C   UNL     1       1.472   7.445  20.979  0.00  0.00    +0.000 A 
ATOM     22  C   UNL     1       0.882   8.642  20.560  0.00  0.00    +0.000 A 
BRANCH  10  24
ATOM     23  C   UNL     1       0.066   9.540  23.653  0.00  0.00    +0.000 C 
ATOM     24  C   UNL     1      -0.720   9.117  22.425  0.00  0.00    +0.000 C 
ENDBRANCH  10  24
ENDBRANCH   1  19
BRANCH   5  25
ATOM     25  C   UNL     1       7.374   4.974  13.692  0.00  0.00    +0.000 C 
ATOM     26  O   UNL     1       8.373   5.672  13.739  0.00  0.00    +0.000 OA
BRANCH  25  27
ATOM     27  O   UNL     1       7.088   4.174  12.644  0.00  0.00    +0.000 OA
ATOM     28  H   UNL     1       7.711   3.438  12.495  0.00  0.00    +0.000 HD
ENDBRANCH  25  27
ENDBRANCH   5  25
BRANCH   9  29
ATOM     29  C   UNL     1       2.656   4.162  18.388  0.00  0.00    +0.000 C 
BRANCH  29  30
ATOM     30  C   UNL     1       3.371   3.392  19.502  0.00  0.00    +0.000 C 
BRANCH  30  31
ATOM     31  C   UNL     1       2.439   2.709  20.458  0.00  0.00    +0.000 C 
ATOM     32  C   UNL     1       2.130   3.417  21.753  0.00  0.00    +0.000 C 
ATOM     33  C   UNL     1       1.054   3.240  20.720  0.00  0.00    +0.000 C 
ENDBRANCH  30  31
ENDBRANCH  29  30
ENDBRANCH   9  29
TORSDOF 7
ENDMDL
MODEL 3
REMARK VINA RESULT:      -8.8      1.659      2.848
REMARK  Name = 
REMARK  8 active torsions:
REMARK  status: ('A' for Active; 'I' for Inactive)
REMARK    1  A    between atoms: C_1  and  C_2
REMARK    2  A    between atoms: C_2  and  N_3
REMARK    3  A    between atoms: C_12  and  C_13
REMARK    4  A    between atoms: C_17  and  C_18
REMARK    5  A    between atoms: C_18  and  O_20
REMARK    6  A    between atoms: N_24  and  C_25
REMARK    7  A    between atoms: C_25  and  C_26
REMARK    8  A    between atoms: C_26  and  C_27
REMARK                            x       y       z     vdW  Elec       q    Type
REMARK                         _______ _______ _______ _____ _____    ______ ____
ROOT
ATOM      1  C   UNL     1       2.727   7.524  18.537  0.00  0.00    +0.000 A 
ATOM      2  N   UNL     1       3.689   7.585  17.632  0.00  0.00    +0.000 NA
ATOM      3  C   UNL     1       4.480   6.484  17.823  0.00  0.00    +0.000 A 
ATOM      4  C   UNL     1       5.654   6.114  17.150  0.00  0.00    +0.000 A 
ATOM      5  C   UNL     1       6.332   4.959  17.570  0.00  0.00    +0.000 A 
ATOM      6  C   UNL     1       5.819   4.172  18.610  0.00  0.00    +0.000 A 
ATOM      7  C   UNL     1       4.631   4.516  19.267  0.00  0.00    +0.000 A 
ATOM      8  C   UNL     1       3.986   5.688  18.847  0.00  0.00    +0.000 A 
ATOM      9  N   UNL     1       2.820   6.327  19.243  0.00  0.00    +0.000 N 
ENDROOT
BRANCH   1  19
ATOM     10  N   UNL     1      -0.914  11.691  19.523  0.00  0.00    +0.000 N 
ATOM     11  C   UNL     1      -1.180  11.537  20.867  0.00  0.00    +0.000 A 
ATOM     12  C   UNL     1      -2.018  12.262  21.730  0.00  0.00    +0.000 A 
ATOM     13  C   UNL     1      -2.088  11.864  23.068  0.00  0.00    +0.000 A 
ATOM     14  C   UNL     1      -1.339  10.788  23.532  0.00  0.00    +0.000 A 
ATOM     15  C   UNL     1      -0.502  10.075  22.667  0.00  0.00    +0.000 A 
ATOM     16  C   UNL     1      -0.424  10.445  21.305  0.00  0.00    +0.000 A 
ATOM     17  C   UNL     1       0.282   9.920  20.175  0.00  0.00    +0.000 A 
ATOM     18  C   UNL     1       1.202   8.860  19.986  0.00  0.00    +0.000 A 
ATOM     19  C   UNL     1       1.689   8.559  18.699  0.00  0.00    +0.000 A 
ATOM     20  C   UNL     1       1.173   9.264  17.608  0.00  0.00    +0.000 A 
ATOM     21  C   UNL     1       0.323  10.359  17.771  0.00  0.00    +0.000 A 
ATOM     22  C   UNL     1      -0.099  10.675  19.066  0.00  0.00    +0.000 A 
BRANCH  10  24
ATOM     23  C   UNL     1      -0.406  13.921  18.585  0.00  0.00    +0.000 C 
ATOM     24  C   UNL     1      -1.403  12.781  18.692  0.00  0.00    +0.000 C 
ENDBRANCH  10  24
ENDBRANCH   1  19
BRANCH   5  25
ATOM     25  C   UNL     1       7.588   4.504  16.919  0.00  0.00    +0.000 C 
ATOM     26  O   UNL     1       7.779   4.598  15.718  0.00  0.00    +0.000 OA
BRANCH  25  27
ATOM     27  O   UNL     1       8.475   3.931  17.759  0.00  0.00    +0.000 OA
ATOM     28  H   UNL     1       8.304   2.995  17.975  0.00  0.00    +0.000 HD
ENDBRANCH  25  27
ENDBRANCH   5  25
BRANCH   9  29
ATOM     29  C   UNL     1       1.925   5.813  20.265  0.00  0.00    +0.000 C 
BRANCH  29  30
ATOM     30  C   UNL     1       1.080   4.594  19.889  0.00  0.00    +0.000 C 
BRANCH  30  31
ATOM     31  C   UNL     1       1.121   3.493  20.907  0.00  0.00    +0.000 C 
ATOM     32  C   UNL     1       1.881   2.242  20.548  0.00  0.00    +0.000 C 
ATOM     33  C   UNL     1       2.392   3.144  21.636  0.00  0.00    +0.000 C 
ENDBRANCH  30  31
ENDBRANCH  29  30
ENDBRANCH   9  29
TORSDOF 7
ENDMDL
MODEL 4
REMARK VINA RESULT:      -8.5      4.172      9.403
REMARK  Name = 
REMARK  8 active torsions:
REMARK  status: ('A' for Active; 'I' for Inactive)
REMARK    1  A    between atoms: C_1  and  C_2
REMARK    2  A    between atoms: C_2  and  N_3
REMARK    3  A    between atoms: C_12  and  C_13
REMARK    4  A    between atoms: C_17  and  C_18
REMARK    5  A    between atoms: C_18  and  O_20
REMARK    6  A    between atoms: N_24  and  C_25
REMARK    7  A    between atoms: C_25  and  C_26
REMARK    8  A    between atoms: C_26  and  C_27
REMARK                            x       y       z     vdW  Elec       q    Type
REMARK                         _______ _______ _______ _____ _____    ______ ____
ROOT
ATOM      1  C   UNL     1       0.622   9.651  20.103  0.00  0.00    +0.000 A 
ATOM      2  N   UNL     1       0.535  10.004  21.375  0.00  0.00    +0.000 NA
ATOM      3  C   UNL     1      -0.326  11.066  21.432  0.00  0.00    +0.000 A 
ATOM      4  C   UNL     1      -0.715  11.827  22.545  0.00  0.00    +0.000 A 
ATOM      5  C   UNL     1      -1.572  12.920  22.343  0.00  0.00    +0.000 A 
ATOM      6  C   UNL     1      -2.062  13.212  21.063  0.00  0.00    +0.000 A 
ATOM      7  C   UNL     1      -1.704  12.440  19.952  0.00  0.00    +0.000 A 
ATOM      8  C   UNL     1      -0.827  11.369  20.174  0.00  0.00    +0.000 A 
ATOM      9  N   UNL     1      -0.270  10.406  19.345  0.00  0.00    +0.000 N 
ENDROOT
BRANCH   1  19
ATOM     10  N   UNL     1       3.525   5.219  18.230  0.00  0.00    +0.000 N 
ATOM     11  C   UNL     1       3.337   4.297  19.238  0.00  0.00    +0.000 A 
ATOM     12  C   UNL     1       3.805   2.981  19.383  0.00  0.00    +0.000 A 
ATOM     13  C   UNL     1       3.446   2.277  20.536  0.00  0.00    +0.000 A 
ATOM     14  C   UNL     1       2.638   2.861  21.505  0.00  0.00    +0.000 A 
ATOM     15  C   UNL     1       2.171   4.171  21.350  0.00  0.00    +0.000 A 
ATOM     16  C   UNL     1       2.532   4.912  20.202  0.00  0.00    +0.000 A 
ATOM     17  C   UNL     1       2.267   6.249  19.762  0.00  0.00    +0.000 A 
ATOM     18  C   UNL     1       1.514   7.331  20.278  0.00  0.00    +0.000 A 
ATOM     19  C   UNL     1       1.496   8.571  19.610  0.00  0.00    +0.000 A 
ATOM     20  C   UNL     1       2.310   8.735  18.486  0.00  0.00    +0.000 A 
ATOM     21  C   UNL     1       3.004   7.669  17.914  0.00  0.00    +0.000 A 
ATOM     22  C   UNL     1       2.957   6.431  18.564  0.00  0.00    +0.000 A 
BRANCH  10  24
ATOM     23  C   UNL     1       5.700   5.227  17.055  0.00  0.00    +0.000 C 
ATOM     24  C   UNL     1       4.209   4.957  16.972  0.00  0.00    +0.000 C 
ENDBRANCH  10  24
ENDBRANCH   1  19
BRANCH   5  25
ATOM     25  C   UNL     1      -2.022  13.784  23.466  0.00  0.00    +0.000 C 
ATOM     26  O   UNL     1      -3.199  13.991  23.707  0.00  0.00    +0.000 OA
BRANCH  25  27
ATOM     27  O   UNL     1      -1.019  14.361  24.160  0.00  0.00    +0.000 OA
ATOM     28  H   UNL     1      -1.285  14.819  24.980  0.00  0.00    +0.000 HD
ENDBRANCH  25  27
ENDBRANCH   5  25
BRANCH   9  29
ATOM     29  C   UNL     1      -0.564  10.295  17.927  0.00  0.00    +0.000 C 
BRANCH  29  30
ATOM     30  C   UNL     1      -2.007   9.958  17.548  0.00  0.00    +0.000 C 
BRANCH  30  31
ATOM     31  C   UNL     1      -2.616  10.919  16.571  0.00  0.00    +0.000 C 
ATOM     32  C   UNL     1      -3.274  10.339  15.344  0.00  0.00    +0.000 C 
ATOM     33  C   UNL     1      -4.109  11.018  16.393  0.00  0.00    +0.000 C 
ENDBRANCH  30  31
ENDBRANCH  29  30
ENDBRANCH   9  29
TORSDOF 7
ENDMDL
MODEL 5
REMARK VINA RESULT:      -8.4      2.308      2.605
REMARK  Name = 
REMARK  8 active torsions:
REMARK  status: ('A' for Active; 'I' for Inactive)
REMARK    1  A    between atoms: C_1  and  C_2
REMARK    2  A    between atoms: C_2  and  N_3
REMARK    3  A    between atoms: C_12  and  C_13
REMARK    4  A    between atoms: C_17  and  C_18
REMARK    5  A    between atoms: C_18  and  O_20
REMARK    6  A    between atoms: N_24  and  C_25
REMARK    7  A    between atoms: C_25  and  C_26
REMARK    8  A    between atoms: C_26  and  C_27
REMARK                            x       y       z     vdW  Elec       q    Type
REMARK                         _______ _______ _______ _____ _____    ______ ____
ROOT
ATOM      1  C   UNL     1       2.690   7.276  18.694  0.00  0.00    +0.000 A 
ATOM      2  N   UNL     1       3.600   7.617  17.796  0.00  0.00    +0.000 NA
ATOM      3  C   UNL     1       4.061   6.453  17.241  0.00  0.00    +0.000 A 
ATOM      4  C   UNL     1       5.063   6.273  16.276  0.00  0.00    +0.000 A 
ATOM      5  C   UNL     1       5.408   4.964  15.904  0.00  0.00    +0.000 A 
ATOM      6  C   UNL     1       4.732   3.867  16.455  0.00  0.00    +0.000 A 
ATOM      7  C   UNL     1       3.710   4.039  17.397  0.00  0.00    +0.000 A 
ATOM      8  C   UNL     1       3.401   5.353  17.772  0.00  0.00    +0.000 A 
ATOM      9  N   UNL     1       2.472   5.901  18.644  0.00  0.00    +0.000 N 
ENDROOT
BRANCH   1  19
ATOM     10  N   UNL     1      -0.371  10.985  21.604  0.00  0.00    +0.000 N 
ATOM     11  C   UNL     1      -0.460  12.045  20.727  0.00  0.00    +0.000 A 
ATOM     12  C   UNL     1      -1.092  13.293  20.850  0.00  0.00    +0.000 A 
ATOM     13  C   UNL     1      -1.008  14.183  19.775  0.00  0.00    +0.000 A 
ATOM     14  C   UNL     1      -0.328  13.835  18.613  0.00  0.00    +0.000 A 
ATOM     15  C   UNL     1       0.294  12.587  18.497  0.00  0.00    +0.000 A 
ATOM     16  C   UNL     1       0.240  11.675  19.574  0.00  0.00    +0.000 A 
ATOM     17  C   UNL     1       0.785  10.369  19.794  0.00  0.00    +0.000 A 
ATOM     18  C   UNL     1       1.552   9.470  19.013  0.00  0.00    +0.000 A 
ATOM     19  C   UNL     1       1.987   8.245  19.555  0.00  0.00    +0.000 A 
ATOM     20  C   UNL     1       1.728   7.983  20.903  0.00  0.00    +0.000 A 
ATOM     21  C   UNL     1       0.915   8.813  21.675  0.00  0.00    +0.000 A 
ATOM     22  C   UNL     1       0.445   9.995  21.094  0.00  0.00    +0.000 A 
BRANCH  10  24
ATOM     23  C   UNL     1      -2.258  11.820  22.964  0.00  0.00    +0.000 C 
ATOM     24  C   UNL     1      -1.056  10.898  22.885  0.00  0.00    +0.000 C 
ENDBRANCH  10  24
ENDBRANCH   1  19
BRANCH   5  25
ATOM     25  C   UNL     1       6.465   4.686  14.897  0.00  0.00    +0.000 C 
ATOM     26  O   UNL     1       7.392   5.450  14.688  0.00  0.00    +0.000 OA
BRANCH  25  27
ATOM     27  O   UNL     1       6.283   3.546  14.200  0.00  0.00    +0.000 OA
ATOM     28  H   UNL     1       5.354   3.274  14.074  0.00  0.00    +0.000 HD
ENDBRANCH  25  27
ENDBRANCH   5  25
BRANCH   9  29
ATOM     29  C   UNL     1       1.506   5.116  19.391  0.00  0.00    +0.000 C 
BRANCH  29  30
ATOM     30  C   UNL     1       1.868   4.775  20.839  0.00  0.00    +0.000 C 
BRANCH  30  31
ATOM     31  C   UNL     1       2.404   3.386  21.016  0.00  0.00    +0.000 C 
ATOM     32  C   UNL     1       1.532   2.392  21.741  0.00  0.00    +0.000 C 
ATOM     33  C   UNL     1       1.811   2.215  20.276  0.00  0.00    +0.000 C 
ENDBRANCH  30  31
ENDBRANCH  29  30
ENDBRANCH   9  29
TORSDOF 7
ENDMDL
MODEL 6
REMARK VINA RESULT:      -8.3      4.198      9.099
REMARK  Name = 
REMARK  8 active torsions:
REMARK  status: ('A' for Active; 'I' for Inactive)
REMARK    1  A    between atoms: C_1  and  C_2
REMARK    2  A    between atoms: C_2  and  N_3
REMARK    3  A    between atoms: C_12  and  C_13
REMARK    4  A    between atoms: C_17  and  C_18
REMARK    5  A    between atoms: C_18  and  O_20
REMARK    6  A    between atoms: N_24  and  C_25
REMARK    7  A    between atoms: C_25  and  C_26
REMARK    8  A    between atoms: C_26  and  C_27
REMARK                            x       y       z     vdW  Elec       q    Type
REMARK                         _______ _______ _______ _____ _____    ______ ____
ROOT
ATOM      1  C   UNL     1       0.760   8.959  20.557  0.00  0.00    +0.000 A 
ATOM      2  N   UNL     1       0.359   9.234  21.787  0.00  0.00    +0.000 NA
ATOM      3  C   UNL     1      -0.172  10.496  21.755  0.00  0.00    +0.000 A 
ATOM      4  C   UNL     1      -0.693  11.260  22.810  0.00  0.00    +0.000 A 
ATOM      5  C   UNL     1      -1.128  12.567  22.540  0.00  0.00    +0.000 A 
ATOM      6  C   UNL     1      -1.084  13.075  21.235  0.00  0.00    +0.000 A 
ATOM      7  C   UNL     1      -0.596  12.308  20.170  0.00  0.00    +0.000 A 
ATOM      8  C   UNL     1      -0.142  11.016  20.469  0.00  0.00    +0.000 A 
ATOM      9  N   UNL     1       0.387   9.990  19.699  0.00  0.00    +0.000 N 
ENDROOT
BRANCH   1  19
ATOM     10  N   UNL     1       3.807   4.457  19.128  0.00  0.00    +0.000 N 
ATOM     11  C   UNL     1       4.415   4.872  17.962  0.00  0.00    +0.000 A 
ATOM     12  C   UNL     1       5.305   4.210  17.101  0.00  0.00    +0.000 A 
ATOM     13  C   UNL     1       5.762   4.896  15.972  0.00  0.00    +0.000 A 
ATOM     14  C   UNL     1       5.354   6.201  15.717  0.00  0.00    +0.000 A 
ATOM     15  C   UNL     1       4.472   6.855  16.584  0.00  0.00    +0.000 A 
ATOM     16  C   UNL     1       3.981   6.179  17.724  0.00  0.00    +0.000 A 
ATOM     17  C   UNL     1       3.062   6.532  18.765  0.00  0.00    +0.000 A 
ATOM     18  C   UNL     1       2.322   7.697  19.081  0.00  0.00    +0.000 A 
ATOM     19  C   UNL     1       1.440   7.706  20.179  0.00  0.00    +0.000 A 
ATOM     20  C   UNL     1       1.242   6.516  20.885  0.00  0.00    +0.000 A 
ATOM     21  C   UNL     1       2.008   5.376  20.643  0.00  0.00    +0.000 A 
ATOM     22  C   UNL     1       2.922   5.412  19.585  0.00  0.00    +0.000 A 
BRANCH  10  24
ATOM     23  C   UNL     1       3.213   2.062  19.270  0.00  0.00    +0.000 C 
ATOM     24  C   UNL     1       4.067   3.196  19.806  0.00  0.00    +0.000 C 
ENDBRANCH  10  24
ENDBRANCH   1  19
BRANCH   5  25
ATOM     25  C   UNL     1      -1.681  13.446  23.603  0.00  0.00    +0.000 C 
ATOM     26  O   UNL     1      -2.833  13.363  23.993  0.00  0.00    +0.000 OA
BRANCH  25  27
ATOM     27  O   UNL     1      -0.817  14.377  24.060  0.00  0.00    +0.000 OA
ATOM     28  H   UNL     1      -1.108  15.303  23.962  0.00  0.00    +0.000 HD
ENDBRANCH  25  27
ENDBRANCH   5  25
BRANCH   9  29
ATOM     29  C   UNL     1       0.551  10.066  18.258  0.00  0.00    +0.000 C 
BRANCH  29  30
ATOM     30  C   UNL     1      -0.547   9.424  17.406  0.00  0.00    +0.000 C 
BRANCH  30  31
ATOM     31  C   UNL     1      -1.768  10.281  17.248  0.00  0.00    +0.000 C 
ATOM     32  C   UNL     1      -2.780   9.864  16.212  0.00  0.00    +0.000 C 
ATOM     33  C   UNL     1      -3.129   9.794  17.671  0.00  0.00    +0.000 C 
ENDBRANCH  30  31
ENDBRANCH  29  30
ENDBRANCH   9  29
TORSDOF 7
ENDMDL
MODEL 7
REMARK VINA RESULT:      -8.2      1.565      2.394
REMARK  Name = 
REMARK  8 active torsions:
REMARK  status: ('A' for Active; 'I' for Inactive)
REMARK    1  A    between atoms: C_1  and  C_2
REMARK    2  A    between atoms: C_2  and  N_3
REMARK    3  A    between atoms: C_12  and  C_13
REMARK    4  A    between atoms: C_17  and  C_18
REMARK    5  A    between atoms: C_18  and  O_20
REMARK    6  A    between atoms: N_24  and  C_25
REMARK    7  A    between atoms: C_25  and  C_26
REMARK    8  A    between atoms: C_26  and  C_27
REMARK                            x       y       z     vdW  Elec       q    Type
REMARK                         _______ _______ _______ _____ _____    ______ ____
ROOT
ATOM      1  C   UNL     1       2.343   8.458  18.168  0.00  0.00    +0.000 A 
ATOM      2  N   UNL     1       3.162   8.288  17.143  0.00  0.00    +0.000 NA
ATOM      3  C   UNL     1       3.914   7.178  17.419  0.00  0.00    +0.000 A 
ATOM      4  C   UNL     1       4.954   6.609  16.668  0.00  0.00    +0.000 A 
ATOM      5  C   UNL     1       5.626   5.494  17.192  0.00  0.00    +0.000 A 
ATOM      6  C   UNL     1       5.234   4.938  18.417  0.00  0.00    +0.000 A 
ATOM      7  C   UNL     1       4.177   5.481  19.158  0.00  0.00    +0.000 A 
ATOM      8  C   UNL     1       3.538   6.610  18.627  0.00  0.00    +0.000 A 
ATOM      9  N   UNL     1       2.479   7.395  19.058  0.00  0.00    +0.000 N 
ENDROOT
BRANCH   1  19
ATOM     10  N   UNL     1      -1.546  12.442  18.940  0.00  0.00    +0.000 N 
ATOM     11  C   UNL     1      -2.699  11.811  18.526  0.00  0.00    +0.000 A 
ATOM     12  C   UNL     1      -4.027  12.264  18.465  0.00  0.00    +0.000 A 
ATOM     13  C   UNL     1      -5.003  11.383  17.990  0.00  0.00    +0.000 A 
ATOM     14  C   UNL     1      -4.668  10.090  17.601  0.00  0.00    +0.000 A 
ATOM     15  C   UNL     1      -3.343   9.645  17.671  0.00  0.00    +0.000 A 
ATOM     16  C   UNL     1      -2.333  10.520  18.131  0.00  0.00    +0.000 A 
ATOM     17  C   UNL     1      -0.915  10.401  18.287  0.00  0.00    +0.000 A 
ATOM     18  C   UNL     1       0.021   9.358  18.080  0.00  0.00    +0.000 A 
ATOM     19  C   UNL     1       1.396   9.583  18.282  0.00  0.00    +0.000 A 
ATOM     20  C   UNL     1       1.822  10.876  18.596  0.00  0.00    +0.000 A 
ATOM     21  C   UNL     1       0.921  11.904  18.876  0.00  0.00    +0.000 A 
ATOM     22  C   UNL     1      -0.444  11.638  18.726  0.00  0.00    +0.000 A 
BRANCH  10  24
ATOM     23  C   UNL     1      -1.586  13.722  21.054  0.00  0.00    +0.000 C 
ATOM     24  C   UNL     1      -1.485  13.766  19.540  0.00  0.00    +0.000 C 
ENDBRANCH  10  24
ENDBRANCH   1  19
BRANCH   5  25
ATOM     25  C   UNL     1       6.745   4.839  16.466  0.00  0.00    +0.000 C 
ATOM     26  O   UNL     1       7.719   4.378  17.036  0.00  0.00    +0.000 OA
BRANCH  25  27
ATOM     27  O   UNL     1       6.618   4.846  15.123  0.00  0.00    +0.000 OA
ATOM     28  H   UNL     1       7.405   5.141  14.628  0.00  0.00    +0.000 HD
ENDBRANCH  25  27
ENDBRANCH   5  25
BRANCH   9  29
ATOM     29  C   UNL     1       1.721   7.134  20.269  0.00  0.00    +0.000 C 
BRANCH  29  30
ATOM     30  C   UNL     1       1.623   8.280  21.279  0.00  0.00    +0.000 C 
BRANCH  30  31
ATOM     31  C   UNL     1       0.219   8.601  21.695  0.00  0.00    +0.000 C 
ATOM     32  C   UNL     1       0.020   9.211  23.060  0.00  0.00    +0.000 C 
ATOM     33  C   UNL     1      -0.255  10.025  21.828  0.00  0.00    +0.000 C 
ENDBRANCH  30  31
ENDBRANCH  29  30
ENDBRANCH   9  29
TORSDOF 7
ENDMDL
MODEL 8
REMARK VINA RESULT:      -8.1      2.298      2.583
REMARK  Name = 
REMARK  8 active torsions:
REMARK  status: ('A' for Active; 'I' for Inactive)
REMARK    1  A    between atoms: C_1  and  C_2
REMARK    2  A    between atoms: C_2  and  N_3
REMARK    3  A    between atoms: C_12  and  C_13
REMARK    4  A    between atoms: C_17  and  C_18
REMARK    5  A    between atoms: C_18  and  O_20
REMARK    6  A    between atoms: N_24  and  C_25
REMARK    7  A    between atoms: C_25  and  C_26
REMARK    8  A    between atoms: C_26  and  C_27
REMARK                            x       y       z     vdW  Elec       q    Type
REMARK                         _______ _______ _______ _____ _____    ______ ____
ROOT
ATOM      1  C   UNL     1       2.510   7.651  18.917  0.00  0.00    +0.000 A 
ATOM      2  N   UNL     1       3.174   7.863  17.793  0.00  0.00    +0.000 NA
ATOM      3  C   UNL     1       3.876   6.717  17.527  0.00  0.00    +0.000 A 
ATOM      4  C   UNL     1       4.765   6.452  16.475  0.00  0.00    +0.000 A 
ATOM      5  C   UNL     1       5.420   5.211  16.447  0.00  0.00    +0.000 A 
ATOM      6  C   UNL     1       5.151   4.244  17.426  0.00  0.00    +0.000 A 
ATOM      7  C   UNL     1       4.242   4.488  18.462  0.00  0.00    +0.000 A 
ATOM      8  C   UNL     1       3.621   5.745  18.484  0.00  0.00    +0.000 A 
ATOM      9  N   UNL     1       2.685   6.330  19.324  0.00  0.00    +0.000 N 
ENDROOT
BRANCH   1  19
ATOM     10  N   UNL     1      -0.912  11.619  20.949  0.00  0.00    +0.000 N 
ATOM     11  C   UNL     1      -0.545  12.727  20.215  0.00  0.00    +0.000 A 
ATOM     12  C   UNL     1      -1.020  14.049  20.241  0.00  0.00    +0.000 A 
ATOM     13  C   UNL     1      -0.444  14.973  19.365  0.00  0.00    +0.000 A 
ATOM     14  C   UNL     1       0.563  14.590  18.485  0.00  0.00    +0.000 A 
ATOM     15  C   UNL     1       1.025  13.270  18.461  0.00  0.00    +0.000 A 
ATOM     16  C   UNL     1       0.472  12.318  19.347  0.00  0.00    +0.000 A 
ATOM     17  C   UNL     1       0.735  10.934  19.604  0.00  0.00    +0.000 A 
ATOM     18  C   UNL     1       1.614   9.972  19.049  0.00  0.00    +0.000 A 
ATOM     19  C   UNL     1       1.669   8.668  19.575  0.00  0.00    +0.000 A 
ATOM     20  C   UNL     1       0.910   8.374  20.711  0.00  0.00    +0.000 A 
ATOM     21  C   UNL     1      -0.018   9.275  21.234  0.00  0.00    +0.000 A 
ATOM     22  C   UNL     1      -0.096  10.546  20.655  0.00  0.00    +0.000 A 
BRANCH  10  24
ATOM     23  C   UNL     1      -1.597  11.946  23.301  0.00  0.00    +0.000 C 
ATOM     24  C   UNL     1      -2.018  11.569  21.892  0.00  0.00    +0.000 C 
ENDBRANCH  10  24
ENDBRANCH   1  19
BRANCH   5  25
ATOM     25  C   UNL     1       6.385   4.855  15.375  0.00  0.00    +0.000 C 
ATOM     26  O   UNL     1       6.236   3.887  14.650  0.00  0.00    +0.000 OA
BRANCH  25  27
ATOM     27  O   UNL     1       7.465   5.662  15.309  0.00  0.00    +0.000 OA
ATOM     28  H   UNL     1       7.275   6.605  15.146  0.00  0.00    +0.000 HD
ENDBRANCH  25  27
ENDBRANCH   5  25
BRANCH   9  29
ATOM     29  C   UNL     1       2.076   5.649  20.452  0.00  0.00    +0.000 C 
BRANCH  29  30
ATOM     30  C   UNL     1       1.011   4.598  20.127  0.00  0.00    +0.000 C 
BRANCH  30  31
ATOM     31  C   UNL     1       1.174   3.316  20.889  0.00  0.00    +0.000 C 
ATOM     32  C   UNL     1       1.881   2.180  20.195  0.00  0.00    +0.000 C 
ATOM     33  C   UNL     1       2.526   2.856  21.372  0.00  0.00    +0.000 C 
ENDBRANCH  30  31
ENDBRANCH  29  30
ENDBRANCH   9  29
TORSDOF 7
ENDMDL
MODEL 9
REMARK VINA RESULT:      -8.1      1.825      2.892
REMARK  Name = 
REMARK  8 active torsions:
REMARK  status: ('A' for Active; 'I' for Inactive)
REMARK    1  A    between atoms: C_1  and  C_2
REMARK    2  A    between atoms: C_2  and  N_3
REMARK    3  A    between atoms: C_12  and  C_13
REMARK    4  A    between atoms: C_17  and  C_18
REMARK    5  A    between atoms: C_18  and  O_20
REMARK    6  A    between atoms: N_24  and  C_25
REMARK    7  A    between atoms: C_25  and  C_26
REMARK    8  A    between atoms: C_26  and  C_27
REMARK                            x       y       z     vdW  Elec       q    Type
REMARK                         _______ _______ _______ _____ _____    ______ ____
ROOT
ATOM      1  C   UNL     1       2.805   7.973  18.122  0.00  0.00    +0.000 A 
ATOM      2  N   UNL     1       3.428   7.986  16.955  0.00  0.00    +0.000 NA
ATOM      3  C   UNL     1       4.169   6.837  16.891  0.00  0.00    +0.000 A 
ATOM      4  C   UNL     1       5.039   6.404  15.880  0.00  0.00    +0.000 A 
ATOM      5  C   UNL     1       5.744   5.205  16.069  0.00  0.00    +0.000 A 
ATOM      6  C   UNL     1       5.544   4.439  17.225  0.00  0.00    +0.000 A 
ATOM      7  C   UNL     1       4.654   4.847  18.226  0.00  0.00    +0.000 A 
ATOM      8  C   UNL     1       3.981   6.060  18.026  0.00  0.00    +0.000 A 
ATOM      9  N   UNL     1       3.046   6.764  18.770  0.00  0.00    +0.000 N 
ENDROOT
BRANCH   1  19
ATOM     10  N   UNL     1      -0.487  12.332  19.448  0.00  0.00    +0.000 N 
ATOM     11  C   UNL     1       0.300  13.410  19.105  0.00  0.00    +0.000 A 
ATOM     12  C   UNL     1       0.061  14.791  19.191  0.00  0.00    +0.000 A 
ATOM     13  C   UNL     1       1.066  15.662  18.761  0.00  0.00    +0.000 A 
ATOM     14  C   UNL     1       2.264  15.173  18.251  0.00  0.00    +0.000 A 
ATOM     15  C   UNL     1       2.491  13.795  18.162  0.00  0.00    +0.000 A 
ATOM     16  C   UNL     1       1.499  12.891  18.606  0.00  0.00    +0.000 A 
ATOM     17  C   UNL     1       1.427  11.463  18.690  0.00  0.00    +0.000 A 
ATOM     18  C   UNL     1       2.294  10.404  18.330  0.00  0.00    +0.000 A 
ATOM     19  C   UNL     1       1.940   9.068  18.600  0.00  0.00    +0.000 A 
ATOM     20  C   UNL     1       0.764   8.821  19.314  0.00  0.00    +0.000 A 
ATOM     21  C   UNL     1      -0.144   9.836  19.617  0.00  0.00    +0.000 A 
ATOM     22  C   UNL     1       0.205  11.149  19.284  0.00  0.00    +0.000 A 
BRANCH  10  24
ATOM     23  C   UNL     1      -2.855  11.959  18.845  0.00  0.00    +0.000 C 
ATOM     24  C   UNL     1      -1.867  12.414  19.903  0.00  0.00    +0.000 C 
ENDBRANCH  10  24
ENDBRANCH   1  19
BRANCH   5  25
ATOM     25  C   UNL     1       6.694   4.683  15.053  0.00  0.00    +0.000 C 
ATOM     26  O   UNL     1       7.663   5.315  14.671  0.00  0.00    +0.000 OA
BRANCH  25  27
ATOM     27  O   UNL     1       6.362   3.475  14.551  0.00  0.00    +0.000 OA
ATOM     28  H   UNL     1       5.409   3.330  14.401  0.00  0.00    +0.000 HD
ENDBRANCH  25  27
ENDBRANCH   5  25
BRANCH   9  29
ATOM     29  C   UNL     1       2.497   6.294  20.029  0.00  0.00    +0.000 C 
BRANCH  29  30
ATOM     30  C   UNL     1       1.636   5.030  19.974  0.00  0.00    +0.000 C 
BRANCH  30  31
ATOM     31  C   UNL     1       1.892   4.075  21.102  0.00  0.00    +0.000 C 
ATOM     32  C   UNL     1       1.274   2.703  21.005  0.00  0.00    +0.000 C 
ATOM     33  C   UNL     1       2.766   2.860  20.920  0.00  0.00    +0.000 C 
ENDBRANCH  30  31
ENDBRANCH  29  30
ENDBRANCH   9  29
TORSDOF 7
ENDMDL
