MODEL 1
REMARK VINA RESULT:      -8.5      0.000      0.000
REMARK  Name = 
REMARK  2 active torsions:
REMARK  status: ('A' for Active; 'I' for Inactive)
REMARK    1  A    between atoms: C_1  and  N_2
REMARK    2  A    between atoms: C_7  and  C_9
REMARK                            x       y       z     vdW  Elec       q    Type
REMARK                         _______ _______ _______ _____ _____    ______ ____
ROOT
ATOM      1  C   UNL     1       1.763   2.305  18.451  0.00  0.00    +0.000 C 
ATOM      2  N   UNL     1       1.655   3.598  19.121  0.00  0.00    +0.000 NA
ATOM      3  C   UNL     1       2.793   3.836  20.026  0.00  0.00    +0.000 C 
ATOM      4  C   UNL     1       3.411   5.180  19.652  0.00  0.00    +0.000 C 
ATOM      5  C   UNL     1       4.930   5.167  19.502  0.00  0.00    +0.000 C 
ATOM      6  N   UNL     1       5.185   4.942  18.091  0.00  0.00    +0.000 N 
ATOM      7  C   UNL     1       6.466   4.697  17.605  0.00  0.00    +0.000 C 
ATOM      8  O   UNL     1       7.429   4.625  18.373  0.00  0.00    +0.000 OA
ATOM      9  C   UNL     1       3.955   4.928  17.321  0.00  0.00    +0.000 C 
ATOM     10  C   UNL     1       2.884   5.467  18.256  0.00  0.00    +0.000 C 
ATOM     11  C   UNL     1       1.568   4.723  18.180  0.00  0.00    +0.000 C 
ENDROOT
BRANCH   7  12
ATOM     12  C   UNL     1       6.649   4.535  16.164  0.00  0.00    +0.000 A 
ATOM     13  N   UNL     1       6.040   3.650  15.394  0.00  0.00    +0.000 NA
ATOM     14  C   UNL     1       6.434   3.918  14.115  0.00  0.00    +0.000 A 
ATOM     15  C   UNL     1       6.037   3.303  12.922  0.00  0.00    +0.000 A 
ATOM     16  C   UNL     1       6.582   3.766  11.720  0.00  0.00    +0.000 A 
ATOM     17  C   UNL     1       7.504   4.817  11.717  0.00  0.00    +0.000 A 
ATOM     18  C   UNL     1       7.909   5.444  12.904  0.00  0.00    +0.000 A 
ATOM     19  C   UNL     1       7.344   4.966  14.087  0.00  0.00    +0.000 A 
ATOM     20  N   UNL     1       7.476   5.332  15.403  0.00  0.00    +0.000 N 
ATOM     21  H   UNL     1       8.047   6.079  15.773  0.00  0.00    +0.000 HD
ENDBRANCH   7  12
TORSDOF 1
ENDMDL
MODEL 2
REMARK VINA RESULT:      -8.3      0.220      1.317
REMARK  Name = 
REMARK  2 active torsions:
REMARK  status: ('A' for Active; 'I' for Inactive)
REMARK    1  A    between atoms: C_1  and  N_2
REMARK    2  A    between atoms: C_7  and  C_9
REMARK                            x       y       z     vdW  Elec       q    Type
REMARK                         _______ _______ _______ _____ _____    ______ ____
ROOT
ATOM      1  C   UNL     1       1.956   2.060  18.493  0.00  0.00    +0.000 C 
ATOM      2  N   UNL     1       1.831   3.294  19.264  0.00  0.00    +0.000 NA
ATOM      3  C   UNL     1       3.004   3.513  20.127  0.00  0.00    +0.000 C 
ATOM      4  C   UNL     1       3.548   4.907  19.827  0.00  0.00    +0.000 C 
ATOM      5  C   UNL     1       5.056   4.972  19.601  0.00  0.00    +0.000 C 
ATOM      6  N   UNL     1       5.246   4.863  18.167  0.00  0.00    +0.000 N 
ATOM      7  C   UNL     1       6.508   4.711  17.601  0.00  0.00    +0.000 C 
ATOM      8  O   UNL     1       7.513   4.624  18.312  0.00  0.00    +0.000 OA
ATOM      9  C   UNL     1       3.979   4.852  17.460  0.00  0.00    +0.000 C 
ATOM     10  C   UNL     1       2.937   5.273  18.485  0.00  0.00    +0.000 C 
ATOM     11  C   UNL     1       1.650   4.480  18.417  0.00  0.00    +0.000 C 
ENDROOT
BRANCH   7  12
ATOM     12  C   UNL     1       6.622   4.664  16.145  0.00  0.00    +0.000 A 
ATOM     13  N   UNL     1       7.399   5.428  15.398  0.00  0.00    +0.000 NA
ATOM     14  C   UNL     1       7.262   4.980  14.116  0.00  0.00    +0.000 A 
ATOM     15  C   UNL     1       7.909   5.417  12.953  0.00  0.00    +0.000 A 
ATOM     16  C   UNL     1       7.603   4.786  11.744  0.00  0.00    +0.000 A 
ATOM     17  C   UNL     1       6.669   3.747  11.701  0.00  0.00    +0.000 A 
ATOM     18  C   UNL     1       6.015   3.297  12.857  0.00  0.00    +0.000 A 
ATOM     19  C   UNL     1       6.345   3.940  14.051  0.00  0.00    +0.000 A 
ATOM     20  N   UNL     1       5.942   3.767  15.352  0.00  0.00    +0.000 N 
ATOM     21  H   UNL     1       5.286   3.081  15.700  0.00  0.00    +0.000 HD
ENDBRANCH   7  12
TORSDOF 1
ENDMDL
MODEL 3
REMARK VINA RESULT:      -7.3      3.591      7.573
REMARK  Name = 
REMARK  2 active torsions:
REMARK  status: ('A' for Active; 'I' for Inactive)
REMARK    1  A    between atoms: C_1  and  N_2
REMARK    2  A    between atoms: C_7  and  C_9
REMARK                            x       y       z     vdW  Elec       q    Type
REMARK                         _______ _______ _______ _____ _____    ______ ____
ROOT
ATOM      1  C   UNL     1       7.902   5.776  19.241  0.00  0.00    +0.000 C 
ATOM      2  N   UNL     1       7.794   5.599  17.796  0.00  0.00    +0.000 NA
ATOM      3  C   UNL     1       6.874   4.501  17.454  0.00  0.00    +0.000 C 
ATOM      4  C   UNL     1       5.836   5.053  16.480  0.00  0.00    +0.000 C 
ATOM      5  C   UNL     1       4.389   4.711  16.825  0.00  0.00    +0.000 C 
ATOM      6  N   UNL     1       3.892   5.834  17.598  0.00  0.00    +0.000 N 
ATOM      7  C   UNL     1       2.655   5.799  18.235  0.00  0.00    +0.000 C 
ATOM      8  O   UNL     1       1.951   4.786  18.192  0.00  0.00    +0.000 OA
ATOM      9  C   UNL     1       4.867   6.906  17.670  0.00  0.00    +0.000 C 
ATOM     10  C   UNL     1       5.929   6.561  16.638  0.00  0.00    +0.000 C 
ATOM     11  C   UNL     1       7.346   6.814  17.103  0.00  0.00    +0.000 C 
ENDROOT
BRANCH   7  12
ATOM     12  C   UNL     1       2.200   6.991  18.948  0.00  0.00    +0.000 A 
ATOM     13  N   UNL     1       1.863   8.146  18.402  0.00  0.00    +0.000 NA
ATOM     14  C   UNL     1       1.412   8.935  19.421  0.00  0.00    +0.000 A 
ATOM     15  C   UNL     1       0.890  10.234  19.367  0.00  0.00    +0.000 A 
ATOM     16  C   UNL     1       0.482  10.837  20.561  0.00  0.00    +0.000 A 
ATOM     17  C   UNL     1       0.598  10.156  21.777  0.00  0.00    +0.000 A 
ATOM     18  C   UNL     1       1.116   8.855  21.845  0.00  0.00    +0.000 A 
ATOM     19  C   UNL     1       1.509   8.275  20.638  0.00  0.00    +0.000 A 
ATOM     20  N   UNL     1       2.026   7.046  20.314  0.00  0.00    +0.000 N 
ATOM     21  H   UNL     1       2.221   6.281  20.945  0.00  0.00    +0.000 HD
ENDBRANCH   7  12
TORSDOF 1
ENDMDL
MODEL 4
REMARK VINA RESULT:      -7.0      4.651      8.294
REMARK  Name = 
REMARK  2 active torsions:
REMARK  status: ('A' for Active; 'I' for Inactive)
REMARK    1  A    between atoms: C_1  and  N_2
REMARK    2  A    between atoms: C_7  and  C_9
REMARK                            x       y       z     vdW  Elec       q    Type
REMARK                         _______ _______ _______ _____ _____    ______ ____
ROOT
ATOM      1  C   UNL     1       1.127   3.080  18.666  0.00  0.00    +0.000 C 
ATOM      2  N   UNL     1       2.584   3.162  18.635  0.00  0.00    +0.000 NA
ATOM      3  C   UNL     1       3.056   3.988  17.510  0.00  0.00    +0.000 C 
ATOM      4  C   UNL     1       3.983   5.059  18.078  0.00  0.00    +0.000 C 
ATOM      5  C   UNL     1       3.701   6.477  17.588  0.00  0.00    +0.000 C 
ATOM      6  N   UNL     1       2.822   7.069  18.579  0.00  0.00    +0.000 N 
ATOM      7  C   UNL     1       2.213   8.304  18.378  0.00  0.00    +0.000 C 
ATOM      8  O   UNL     1       2.373   8.923  17.323  0.00  0.00    +0.000 OA
ATOM      9  C   UNL     1       2.621   6.185  19.711  0.00  0.00    +0.000 C 
ATOM     10  C   UNL     1       3.666   5.090  19.563  0.00  0.00    +0.000 C 
ATOM     11  C   UNL     1       3.153   3.701  19.877  0.00  0.00    +0.000 C 
ENDROOT
BRANCH   7  12
ATOM     12  C   UNL     1       1.386   8.860  19.447  0.00  0.00    +0.000 A 
ATOM     13  N   UNL     1       1.323   8.422  20.693  0.00  0.00    +0.000 NA
ATOM     14  C   UNL     1       0.508   9.287  21.363  0.00  0.00    +0.000 A 
ATOM     15  C   UNL     1       0.156   9.299  22.719  0.00  0.00    +0.000 A 
ATOM     16  C   UNL     1      -0.700  10.306  23.176  0.00  0.00    +0.000 A 
ATOM     17  C   UNL     1      -1.193  11.273  22.296  0.00  0.00    +0.000 A 
ATOM     18  C   UNL     1      -0.848  11.275  20.936  0.00  0.00    +0.000 A 
ATOM     19  C   UNL     1       0.013  10.264  20.509  0.00  0.00    +0.000 A 
ATOM     20  N   UNL     1       0.574   9.962  19.293  0.00  0.00    +0.000 N 
ATOM     21  H   UNL     1       0.457  10.468  18.426  0.00  0.00    +0.000 HD
ENDBRANCH   7  12
TORSDOF 1
ENDMDL
MODEL 5
REMARK VINA RESULT:      -7.0      3.473      7.386
REMARK  Name = 
REMARK  2 active torsions:
REMARK  status: ('A' for Active; 'I' for Inactive)
REMARK    1  A    between atoms: C_1  and  N_2
REMARK    2  A    between atoms: C_7  and  C_9
REMARK                            x       y       z     vdW  Elec       q    Type
REMARK                         _______ _______ _______ _____ _____    ______ ____
ROOT
ATOM      1  C   UNL     1       7.889   5.747  19.316  0.00  0.00    +0.000 C 
ATOM      2  N   UNL     1       7.858   5.608  17.863  0.00  0.00    +0.000 NA
ATOM      3  C   UNL     1       6.993   4.492  17.445  0.00  0.00    +0.000 C 
ATOM      4  C   UNL     1       5.986   5.038  16.436  0.00  0.00    +0.000 C 
ATOM      5  C   UNL     1       4.536   4.640  16.698  0.00  0.00    +0.000 C 
ATOM      6  N   UNL     1       3.964   5.723  17.476  0.00  0.00    +0.000 N 
ATOM      7  C   UNL     1       2.699   5.629  18.049  0.00  0.00    +0.000 C 
ATOM      8  O   UNL     1       2.033   4.596  17.944  0.00  0.00    +0.000 OA
ATOM      9  C   UNL     1       4.897   6.823  17.626  0.00  0.00    +0.000 C 
ATOM     10  C   UNL     1       6.020   6.543  16.639  0.00  0.00    +0.000 C 
ATOM     11  C   UNL     1       7.403   6.828  17.182  0.00  0.00    +0.000 C 
ENDROOT
BRANCH   7  12
ATOM     12  C   UNL     1       2.170   6.784  18.771  0.00  0.00    +0.000 A 
ATOM     13  N   UNL     1       1.965   6.863  20.074  0.00  0.00    +0.000 NA
ATOM     14  C   UNL     1       1.559   8.142  20.323  0.00  0.00    +0.000 A 
ATOM     15  C   UNL     1       1.263   8.753  21.548  0.00  0.00    +0.000 A 
ATOM     16  C   UNL     1       0.872  10.096  21.545  0.00  0.00    +0.000 A 
ATOM     17  C   UNL     1       0.776  10.805  20.345  0.00  0.00    +0.000 A 
ATOM     18  C   UNL     1       1.071  10.208  19.111  0.00  0.00    +0.000 A 
ATOM     19  C   UNL     1       1.466   8.870  19.143  0.00  0.00    +0.000 A 
ATOM     20  N   UNL     1       1.846   7.981  18.170  0.00  0.00    +0.000 N 
ATOM     21  H   UNL     1       1.919   8.158  17.177  0.00  0.00    +0.000 HD
ENDBRANCH   7  12
TORSDOF 1
ENDMDL
MODEL 6
REMARK VINA RESULT:      -6.8      1.246      1.416
REMARK  Name = 
REMARK  2 active torsions:
REMARK  status: ('A' for Active; 'I' for Inactive)
REMARK    1  A    between atoms: C_1  and  N_2
REMARK    2  A    between atoms: C_7  and  C_9
REMARK                            x       y       z     vdW  Elec       q    Type
REMARK                         _______ _______ _______ _____ _____    ______ ____
ROOT
ATOM      1  C   UNL     1       3.410   1.775  19.851  0.00  0.00    +0.000 C 
ATOM      2  N   UNL     1       2.313   2.735  19.915  0.00  0.00    +0.000 NA
ATOM      3  C   UNL     1       2.779   4.061  20.356  0.00  0.00    +0.000 C 
ATOM      4  C   UNL     1       2.319   5.083  19.320  0.00  0.00    +0.000 C 
ATOM      5  C   UNL     1       3.400   6.056  18.856  0.00  0.00    +0.000 C 
ATOM      6  N   UNL     1       3.969   5.471  17.657  0.00  0.00    +0.000 N 
ATOM      7  C   UNL     1       5.106   5.997  17.049  0.00  0.00    +0.000 C 
ATOM      8  O   UNL     1       5.693   6.965  17.540  0.00  0.00    +0.000 OA
ATOM      9  C   UNL     1       3.260   4.269  17.260  0.00  0.00    +0.000 C 
ATOM     10  C   UNL     1       1.986   4.256  18.090  0.00  0.00    +0.000 C 
ATOM     11  C   UNL     1       1.616   2.892  18.631  0.00  0.00    +0.000 C 
ENDROOT
BRANCH   7  12
ATOM     12  C   UNL     1       5.586   5.384  15.812  0.00  0.00    +0.000 A 
ATOM     13  N   UNL     1       4.991   4.416  15.139  0.00  0.00    +0.000 NA
ATOM     14  C   UNL     1       5.730   4.224  14.008  0.00  0.00    +0.000 A 
ATOM     15  C   UNL     1       5.499   3.348  12.939  0.00  0.00    +0.000 A 
ATOM     16  C   UNL     1       6.407   3.341  11.876  0.00  0.00    +0.000 A 
ATOM     17  C   UNL     1       7.520   4.186  11.886  0.00  0.00    +0.000 A 
ATOM     18  C   UNL     1       7.764   5.069  12.949  0.00  0.00    +0.000 A 
ATOM     19  C   UNL     1       6.838   5.061  13.993  0.00  0.00    +0.000 A 
ATOM     20  N   UNL     1       6.731   5.779  15.157  0.00  0.00    +0.000 N 
ATOM     21  H   UNL     1       7.354   6.505  15.484  0.00  0.00    +0.000 HD
ENDBRANCH   7  12
TORSDOF 1
ENDMDL
MODEL 7
REMARK VINA RESULT:      -6.8      3.950      6.941
REMARK  Name = 
REMARK  2 active torsions:
REMARK  status: ('A' for Active; 'I' for Inactive)
REMARK    1  A    between atoms: C_1  and  N_2
REMARK    2  A    between atoms: C_7  and  C_9
REMARK                            x       y       z     vdW  Elec       q    Type
REMARK                         _______ _______ _______ _____ _____    ______ ____
ROOT
ATOM      1  C   UNL     1       0.722   2.197  18.664  0.00  0.00    +0.000 C 
ATOM      2  N   UNL     1       2.044   1.931  19.223  0.00  0.00    +0.000 NA
ATOM      3  C   UNL     1       3.114   2.278  18.272  0.00  0.00    +0.000 C 
ATOM      4  C   UNL     1       4.079   3.223  18.982  0.00  0.00    +0.000 C 
ATOM      5  C   UNL     1       4.453   4.472  18.189  0.00  0.00    +0.000 C 
ATOM      6  N   UNL     1       3.526   5.503  18.615  0.00  0.00    +0.000 N 
ATOM      7  C   UNL     1       3.454   6.738  17.977  0.00  0.00    +0.000 C 
ATOM      8  O   UNL     1       4.159   6.982  16.994  0.00  0.00    +0.000 OA
ATOM      9  C   UNL     1       2.673   5.042  19.695  0.00  0.00    +0.000 C 
ATOM     10  C   UNL     1       3.295   3.740  20.177  0.00  0.00    +0.000 C 
ATOM     11  C   UNL     1       2.289   2.651  20.480  0.00  0.00    +0.000 C 
ENDROOT
BRANCH   7  12
ATOM     12  C   UNL     1       2.533   7.744  18.501  0.00  0.00    +0.000 A 
ATOM     13  N   UNL     1       1.915   8.678  17.798  0.00  0.00    +0.000 NA
ATOM     14  C   UNL     1       1.086   9.327  18.666  0.00  0.00    +0.000 A 
ATOM     15  C   UNL     1       0.178  10.363  18.413  0.00  0.00    +0.000 A 
ATOM     16  C   UNL     1      -0.574  10.865  19.480  0.00  0.00    +0.000 A 
ATOM     17  C   UNL     1      -0.417  10.343  20.767  0.00  0.00    +0.000 A 
ATOM     18  C   UNL     1       0.487   9.305  21.035  0.00  0.00    +0.000 A 
ATOM     19  C   UNL     1       1.220   8.819  19.951  0.00  0.00    +0.000 A 
ATOM     20  N   UNL     1       2.155   7.823  19.823  0.00  0.00    +0.000 N 
ATOM     21  H   UNL     1       2.498   7.212  20.551  0.00  0.00    +0.000 HD
ENDBRANCH   7  12
TORSDOF 1
ENDMDL
MODEL 8
REMARK VINA RESULT:      -6.8      4.665      8.331
REMARK  Name = 
REMARK  2 active torsions:
REMARK  status: ('A' for Active; 'I' for Inactive)
REMARK    1  A    between atoms: C_1  and  N_2
REMARK    2  A    between atoms: C_7  and  C_9
REMARK                            x       y       z     vdW  Elec       q    Type
REMARK                         _______ _______ _______ _____ _____    ______ ____
ROOT
ATOM      1  C   UNL     1       0.758   3.118  19.296  0.00  0.00    +0.000 C 
ATOM      2  N   UNL     1       2.208   3.091  19.129  0.00  0.00    +0.000 NA
ATOM      3  C   UNL     1       2.622   3.774  17.891  0.00  0.00    +0.000 C 
ATOM      4  C   UNL     1       3.665   4.823  18.267  0.00  0.00    +0.000 C 
ATOM      5  C   UNL     1       3.428   6.206  17.667  0.00  0.00    +0.000 C 
ATOM      6  N   UNL     1       2.687   6.949  18.669  0.00  0.00    +0.000 N 
ATOM      7  C   UNL     1       2.140   8.201  18.403  0.00  0.00    +0.000 C 
ATOM      8  O   UNL     1       2.239   8.707  17.282  0.00  0.00    +0.000 OA
ATOM      9  C   UNL     1       2.538   6.189  19.896  0.00  0.00    +0.000 C 
ATOM     10  C   UNL     1       3.493   5.012  19.764  0.00  0.00    +0.000 C 
ATOM     11  C   UNL     1       2.925   3.699  20.257  0.00  0.00    +0.000 C 
ENDROOT
BRANCH   7  12
ATOM     12  C   UNL     1       1.455   8.910  19.482  0.00  0.00    +0.000 A 
ATOM     13  N   UNL     1       0.874  10.093  19.392  0.00  0.00    +0.000 NA
ATOM     14  C   UNL     1       0.282  10.324  20.600  0.00  0.00    +0.000 A 
ATOM     15  C   UNL     1      -0.503  11.410  21.006  0.00  0.00    +0.000 A 
ATOM     16  C   UNL     1      -1.011  11.414  22.309  0.00  0.00    +0.000 A 
ATOM     17  C   UNL     1      -0.737  10.358  23.182  0.00  0.00    +0.000 A 
ATOM     18  C   UNL     1       0.046   9.262  22.788  0.00  0.00    +0.000 A 
ATOM     19  C   UNL     1       0.534   9.281  21.481  0.00  0.00    +0.000 A 
ATOM     20  N   UNL     1       1.294   8.401  20.752  0.00  0.00    +0.000 N 
ATOM     21  H   UNL     1       1.655   7.509  21.058  0.00  0.00    +0.000 HD
ENDBRANCH   7  12
TORSDOF 1
ENDMDL
MODEL 9
REMARK VINA RESULT:      -6.7      4.050      7.114
REMARK  Name = 
REMARK  2 active torsions:
REMARK  status: ('A' for Active; 'I' for Inactive)
REMARK    1  A    between atoms: C_1  and  N_2
REMARK    2  A    between atoms: C_7  and  C_9
REMARK                            x       y       z     vdW  Elec       q    Type
REMARK                         _______ _______ _______ _____ _____    ______ ____
ROOT
ATOM      1  C   UNL     1       0.733   2.209  18.664  0.00  0.00    +0.000 C 
ATOM      2  N   UNL     1       2.068   1.972  19.206  0.00  0.00    +0.000 NA
ATOM      3  C   UNL     1       3.117   2.402  18.267  0.00  0.00    +0.000 C 
ATOM      4  C   UNL     1       4.048   3.354  19.014  0.00  0.00    +0.000 C 
ATOM      5  C   UNL     1       4.368   4.650  18.275  0.00  0.00    +0.000 C 
ATOM      6  N   UNL     1       3.402   5.623  18.749  0.00  0.00    +0.000 N 
ATOM      7  C   UNL     1       3.278   6.881  18.165  0.00  0.00    +0.000 C 
ATOM      8  O   UNL     1       3.967   7.196  17.191  0.00  0.00    +0.000 OA
ATOM      9  C   UNL     1       2.575   5.082  19.810  0.00  0.00    +0.000 C 
ATOM     10  C   UNL     1       3.250   3.787  20.233  0.00  0.00    +0.000 C 
ATOM     11  C   UNL     1       2.290   2.646  20.492  0.00  0.00    +0.000 C 
ENDROOT
BRANCH   7  12
ATOM     12  C   UNL     1       2.320   7.826  18.735  0.00  0.00    +0.000 A 
ATOM     13  N   UNL     1       1.970   7.911  20.007  0.00  0.00    +0.000 NA
ATOM     14  C   UNL     1       1.134   8.986  20.104  0.00  0.00    +0.000 A 
ATOM     15  C   UNL     1       0.527   9.533  21.241  0.00  0.00    +0.000 A 
ATOM     16  C   UNL     1      -0.292  10.656  21.084  0.00  0.00    +0.000 A 
ATOM     17  C   UNL     1      -0.499  11.213  19.819  0.00  0.00    +0.000 A 
ATOM     18  C   UNL     1       0.104  10.677  18.672  0.00  0.00    +0.000 A 
ATOM     19  C   UNL     1       0.921   9.561  18.858  0.00  0.00    +0.000 A 
ATOM     20  N   UNL     1       1.675   8.798  18.002  0.00  0.00    +0.000 N 
ATOM     21  H   UNL     1       1.784   8.927  17.006  0.00  0.00    +0.000 HD
ENDBRANCH   7  12
TORSDOF 1
ENDMDL
