MODEL 1
REMARK VINA RESULT:      -8.0      0.000      0.000
REMARK  Name = 
REMARK  9 active torsions:
REMARK  status: ('A' for Active; 'I' for Inactive)
REMARK    1  A    between atoms: C_1  and  S_2
REMARK    2  A    between atoms: S_2  and  C_3
REMARK    3  A    between atoms: C_6  and  C_7
REMARK    4  A    between atoms: C_7  and  N_8
REMARK    5  A    between atoms: C_11  and  C_12
REMARK    6  A    between atoms: C_11  and  C_13
REMARK    7  A    between atoms: N_15  and  C_16
REMARK    8  A    between atoms: C_20  and  O_21
REMARK    9  A    between atoms: O_21  and  C_22
REMARK                            x       y       z     vdW  Elec       q    Type
REMARK                         _______ _______ _______ _____ _____    ______ ____
ROOT
ATOM      1  C   UNL     1       2.116   8.382  18.780  0.00  0.00    +0.000 C 
ATOM      2  O   UNL     1       2.061   7.672  19.787  0.00  0.00    +0.000 OA
ATOM      3  N   UNL     1       2.839   8.080  17.642  0.00  0.00    +0.000 N 
ATOM      4  H   UNL     1       2.733   8.757  16.889  0.00  0.00    +0.000 HD
ENDROOT
BRANCH   3   5
ATOM      5  C   UNL     1       3.671   6.967  17.432  0.00  0.00    +0.000 A 
ATOM      6  C   UNL     1       4.928   7.046  16.827  0.00  0.00    +0.000 A 
ATOM      7  C   UNL     1       5.704   5.902  16.638  0.00  0.00    +0.000 A 
ATOM      8  C   UNL     1       5.213   4.657  17.019  0.00  0.00    +0.000 A 
ATOM      9  C   UNL     1       3.940   4.560  17.579  0.00  0.00    +0.000 A 
ATOM     10  C   UNL     1       3.192   5.717  17.828  0.00  0.00    +0.000 A 
BRANCH   9  11
ATOM     11  O   UNL     1       3.508   3.290  17.894  0.00  0.00    +0.000 OA
BRANCH  11  12
ATOM     12  C   UNL     1       2.739   3.109  19.024  0.00  0.00    +0.000 A 
ATOM     13  C   UNL     1       1.343   3.153  19.041  0.00  0.00    +0.000 A 
ATOM     14  C   UNL     1       0.652   3.023  20.245  0.00  0.00    +0.000 A 
ATOM     15  C   UNL     1       1.354   2.786  21.425  0.00  0.00    +0.000 A 
ATOM     16  C   UNL     1       2.744   2.670  21.400  0.00  0.00    +0.000 A 
ATOM     17  C   UNL     1       3.437   2.833  20.200  0.00  0.00    +0.000 A 
ENDBRANCH  11  12
ENDBRANCH   9  11
ENDBRANCH   3   5
BRANCH   1  21
ATOM     18  N   UNL     1       0.471  10.043  19.885  0.00  0.00    +0.000 NA
ATOM     19  C   UNL     1      -0.756  10.077  19.070  0.00  0.00    +0.000 C 
ATOM     20  C   UNL     1       0.028   9.666  17.825  0.00  0.00    +0.000 C 
ATOM     21  C   UNL     1       1.320   9.766  18.671  0.00  0.00    +0.000 C 
ATOM     22  C   UNL     1       2.264  10.875  18.192  0.00  0.00    +0.000 C 
BRANCH  18  23
ATOM     23  C   UNL     1       0.726  11.350  20.506  0.00  0.00    +0.000 C 
BRANCH  23  27
ATOM     24  C   UNL     1      -2.558  12.556  23.066  0.00  0.00    +0.000 A 
ATOM     25  C   UNL     1      -2.166  13.368  21.997  0.00  0.00    +0.000 A 
ATOM     26  C   UNL     1      -1.087  13.003  21.187  0.00  0.00    +0.000 A 
ATOM     27  C   UNL     1      -0.377  11.823  21.437  0.00  0.00    +0.000 A 
ATOM     28  C   UNL     1      -0.755  11.030  22.532  0.00  0.00    +0.000 A 
ATOM     29  C   UNL     1      -1.833  11.396  23.343  0.00  0.00    +0.000 A 
BRANCH  24  31
ATOM     30  C   UNL     1      -4.430  14.542  23.311  0.00  0.00    +0.000 C 
ATOM     31  S   UNL     1      -3.971  12.963  24.075  0.00  0.00    +0.000 S 
ENDBRANCH  24  31
ENDBRANCH  23  27
ENDBRANCH  18  23
ENDBRANCH   1  21
TORSDOF 7
ENDMDL
MODEL 2
REMARK VINA RESULT:      -7.9      4.338      9.078
REMARK  Name = 
REMARK  9 active torsions:
REMARK  status: ('A' for Active; 'I' for Inactive)
REMARK    1  A    between atoms: C_1  and  S_2
REMARK    2  A    between atoms: S_2  and  C_3
REMARK    3  A    between atoms: C_6  and  C_7
REMARK    4  A    between atoms: C_7  and  N_8
REMARK    5  A    between atoms: C_11  and  C_12
REMARK    6  A    between atoms: C_11  and  C_13
REMARK    7  A    between atoms: N_15  and  C_16
REMARK    8  A    between atoms: C_20  and  O_21
REMARK    9  A    between atoms: O_21  and  C_22
REMARK                            x       y       z     vdW  Elec       q    Type
REMARK                         _______ _______ _______ _____ _____    ______ ____
ROOT
ATOM      1  C   UNL     1      -1.146  11.238  20.022  0.00  0.00    +0.000 C 
ATOM      2  O   UNL     1      -1.727  12.324  20.074  0.00  0.00    +0.000 OA
ATOM      3  N   UNL     1      -1.312  10.303  19.018  0.00  0.00    +0.000 N 
ATOM      4  H   UNL     1      -0.718   9.482  19.110  0.00  0.00    +0.000 HD
ENDROOT
BRANCH   3   5
ATOM      5  C   UNL     1      -2.186  10.380  17.920  0.00  0.00    +0.000 A 
ATOM      6  C   UNL     1      -1.869   9.898  16.647  0.00  0.00    +0.000 A 
ATOM      7  C   UNL     1      -2.777  10.012  15.593  0.00  0.00    +0.000 A 
ATOM      8  C   UNL     1      -3.999  10.646  15.792  0.00  0.00    +0.000 A 
ATOM      9  C   UNL     1      -4.305  11.174  17.046  0.00  0.00    +0.000 A 
ATOM     10  C   UNL     1      -3.421  10.999  18.117  0.00  0.00    +0.000 A 
BRANCH   9  11
ATOM     11  O   UNL     1      -5.517  11.822  17.155  0.00  0.00    +0.000 OA
BRANCH  11  12
ATOM     12  C   UNL     1      -6.171  11.810  18.368  0.00  0.00    +0.000 A 
ATOM     13  C   UNL     1      -6.325  12.930  19.190  0.00  0.00    +0.000 A 
ATOM     14  C   UNL     1      -6.946  12.808  20.433  0.00  0.00    +0.000 A 
ATOM     15  C   UNL     1      -7.471  11.579  20.828  0.00  0.00    +0.000 A 
ATOM     16  C   UNL     1      -7.383  10.476  19.978  0.00  0.00    +0.000 A 
ATOM     17  C   UNL     1      -6.732  10.590  18.749  0.00  0.00    +0.000 A 
ENDBRANCH  11  12
ENDBRANCH   9  11
ENDBRANCH   3   5
BRANCH   1  21
ATOM     18  N   UNL     1       0.117   9.289  21.158  0.00  0.00    +0.000 NA
ATOM     19  C   UNL     1      -0.345   9.201  22.554  0.00  0.00    +0.000 C 
ATOM     20  C   UNL     1      -0.706  10.685  22.557  0.00  0.00    +0.000 C 
ATOM     21  C   UNL     1      -0.094  10.781  21.138  0.00  0.00    +0.000 C 
ATOM     22  C   UNL     1       1.149  11.677  21.082  0.00  0.00    +0.000 C 
BRANCH  18  23
ATOM     23  C   UNL     1       1.525   8.884  21.043  0.00  0.00    +0.000 C 
BRANCH  23  27
ATOM     24  C   UNL     1       2.344   5.271  18.791  0.00  0.00    +0.000 A 
ATOM     25  C   UNL     1       2.563   6.525  18.212  0.00  0.00    +0.000 A 
ATOM     26  C   UNL     1       2.270   7.695  18.919  0.00  0.00    +0.000 A 
ATOM     27  C   UNL     1       1.746   7.630  20.216  0.00  0.00    +0.000 A 
ATOM     28  C   UNL     1       1.498   6.368  20.778  0.00  0.00    +0.000 A 
ATOM     29  C   UNL     1       1.790   5.198  20.069  0.00  0.00    +0.000 A 
BRANCH  24  31
ATOM     30  C   UNL     1       4.178   4.367  16.966  0.00  0.00    +0.000 C 
ATOM     31  S   UNL     1       2.770   3.764  17.938  0.00  0.00    +0.000 S 
ENDBRANCH  24  31
ENDBRANCH  23  27
ENDBRANCH  18  23
ENDBRANCH   1  21
TORSDOF 7
ENDMDL
MODEL 3
REMARK VINA RESULT:      -7.8      2.795      4.458
REMARK  Name = 
REMARK  9 active torsions:
REMARK  status: ('A' for Active; 'I' for Inactive)
REMARK    1  A    between atoms: C_1  and  S_2
REMARK    2  A    between atoms: S_2  and  C_3
REMARK    3  A    between atoms: C_6  and  C_7
REMARK    4  A    between atoms: C_7  and  N_8
REMARK    5  A    between atoms: C_11  and  C_12
REMARK    6  A    between atoms: C_11  and  C_13
REMARK    7  A    between atoms: N_15  and  C_16
REMARK    8  A    between atoms: C_20  and  O_21
REMARK    9  A    between atoms: O_21  and  C_22
REMARK                            x       y       z     vdW  Elec       q    Type
REMARK                         _______ _______ _______ _____ _____    ______ ____
ROOT
ATOM      1  C   UNL     1       0.988   9.848  19.137  0.00  0.00    +0.000 C 
ATOM      2  O   UNL     1       0.515   9.468  18.063  0.00  0.00    +0.000 OA
ATOM      3  N   UNL     1       1.658   9.038  20.034  0.00  0.00    +0.000 N 
ATOM      4  H   UNL     1       2.022   9.528  20.847  0.00  0.00    +0.000 HD
ENDROOT
BRANCH   3   5
ATOM      5  C   UNL     1       1.879   7.654  19.929  0.00  0.00    +0.000 A 
ATOM      6  C   UNL     1       1.241   6.707  20.735  0.00  0.00    +0.000 A 
ATOM      7  C   UNL     1       1.510   5.346  20.590  0.00  0.00    +0.000 A 
ATOM      8  C   UNL     1       2.452   4.918  19.659  0.00  0.00    +0.000 A 
ATOM      9  C   UNL     1       3.130   5.857  18.884  0.00  0.00    +0.000 A 
ATOM     10  C   UNL     1       2.810   7.216  18.985  0.00  0.00    +0.000 A 
BRANCH   9  11
ATOM     11  O   UNL     1       4.076   5.360  18.013  0.00  0.00    +0.000 OA
BRANCH  11  12
ATOM     12  C   UNL     1       5.376   5.805  18.117  0.00  0.00    +0.000 A 
ATOM     13  C   UNL     1       5.976   6.697  17.224  0.00  0.00    +0.000 A 
ATOM     14  C   UNL     1       7.319   7.041  17.372  0.00  0.00    +0.000 A 
ATOM     15  C   UNL     1       8.047   6.544  18.450  0.00  0.00    +0.000 A 
ATOM     16  C   UNL     1       7.431   5.711  19.385  0.00  0.00    +0.000 A 
ATOM     17  C   UNL     1       6.096   5.340  19.218  0.00  0.00    +0.000 A 
ENDBRANCH  11  12
ENDBRANCH   9  11
ENDBRANCH   3   5
BRANCH   1  21
ATOM     18  N   UNL     1      -0.129  12.160  18.836  0.00  0.00    +0.000 NA
ATOM     19  C   UNL     1       0.901  13.105  18.370  0.00  0.00    +0.000 C 
ATOM     20  C   UNL     1       2.000  12.275  19.030  0.00  0.00    +0.000 C 
ATOM     21  C   UNL     1       0.890  11.370  19.618  0.00  0.00    +0.000 C 
ATOM     22  C   UNL     1       0.818  11.431  21.148  0.00  0.00    +0.000 C 
BRANCH  18  23
ATOM     23  C   UNL     1      -1.127  12.841  19.673  0.00  0.00    +0.000 C 
BRANCH  23  27
ATOM     24  C   UNL     1      -5.214  11.617  18.906  0.00  0.00    +0.000 A 
ATOM     25  C   UNL     1      -4.914  12.405  20.022  0.00  0.00    +0.000 A 
ATOM     26  C   UNL     1      -3.594  12.777  20.294  0.00  0.00    +0.000 A 
ATOM     27  C   UNL     1      -2.551  12.359  19.459  0.00  0.00    +0.000 A 
ATOM     28  C   UNL     1      -2.856  11.541  18.360  0.00  0.00    +0.000 A 
ATOM     29  C   UNL     1      -4.176  11.169  18.089  0.00  0.00    +0.000 A 
BRANCH  24  31
ATOM     30  C   UNL     1      -7.462  10.642  20.132  0.00  0.00    +0.000 C 
ATOM     31  S   UNL     1      -6.894  11.183  18.496  0.00  0.00    +0.000 S 
ENDBRANCH  24  31
ENDBRANCH  23  27
ENDBRANCH  18  23
ENDBRANCH   1  21
TORSDOF 7
ENDMDL
MODEL 4
REMARK VINA RESULT:      -7.7      4.283      9.032
REMARK  Name = 
REMARK  9 active torsions:
REMARK  status: ('A' for Active; 'I' for Inactive)
REMARK    1  A    between atoms: C_1  and  S_2
REMARK    2  A    between atoms: S_2  and  C_3
REMARK    3  A    between atoms: C_6  and  C_7
REMARK    4  A    between atoms: C_7  and  N_8
REMARK    5  A    between atoms: C_11  and  C_12
REMARK    6  A    between atoms: C_11  and  C_13
REMARK    7  A    between atoms: N_15  and  C_16
REMARK    8  A    between atoms: C_20  and  O_21
REMARK    9  A    between atoms: O_21  and  C_22
REMARK                            x       y       z     vdW  Elec       q    Type
REMARK                         _______ _______ _______ _____ _____    ______ ____
ROOT
ATOM      1  C   UNL     1      -0.728  11.689  19.599  0.00  0.00    +0.000 C 
ATOM      2  O   UNL     1      -0.711  12.807  19.079  0.00  0.00    +0.000 OA
ATOM      3  N   UNL     1      -1.409  10.597  19.096  0.00  0.00    +0.000 N 
ATOM      4  H   UNL     1      -1.275   9.740  19.629  0.00  0.00    +0.000 HD
ENDROOT
BRANCH   3   5
ATOM      5  C   UNL     1      -2.233  10.557  17.958  0.00  0.00    +0.000 A 
ATOM      6  C   UNL     1      -1.848   9.978  16.746  0.00  0.00    +0.000 A 
ATOM      7  C   UNL     1      -2.708   9.979  15.647  0.00  0.00    +0.000 A 
ATOM      8  C   UNL     1      -3.952  10.596  15.738  0.00  0.00    +0.000 A 
ATOM      9  C   UNL     1      -4.327  11.221  16.926  0.00  0.00    +0.000 A 
ATOM     10  C   UNL     1      -3.489  11.160  18.047  0.00  0.00    +0.000 A 
BRANCH   9  11
ATOM     11  O   UNL     1      -5.555  11.844  16.926  0.00  0.00    +0.000 OA
BRANCH  11  12
ATOM     12  C   UNL     1      -6.206  12.034  18.126  0.00  0.00    +0.000 A 
ATOM     13  C   UNL     1      -6.862  11.023  18.834  0.00  0.00    +0.000 A 
ATOM     14  C   UNL     1      -7.550  11.323  20.010  0.00  0.00    +0.000 A 
ATOM     15  C   UNL     1      -7.529  12.622  20.513  0.00  0.00    +0.000 A 
ATOM     16  C   UNL     1      -6.814  13.618  19.847  0.00  0.00    +0.000 A 
ATOM     17  C   UNL     1      -6.154  13.325  18.653  0.00  0.00    +0.000 A 
ENDBRANCH  11  12
ENDBRANCH   9  11
ENDBRANCH   3   5
BRANCH   1  21
ATOM     18  N   UNL     1      -0.029   9.914  21.344  0.00  0.00    +0.000 NA
ATOM     19  C   UNL     1      -0.659  10.267  22.628  0.00  0.00    +0.000 C 
ATOM     20  C   UNL     1      -0.709  11.741  22.230  0.00  0.00    +0.000 C 
ATOM     21  C   UNL     1       0.071  11.365  20.946  0.00  0.00    +0.000 C 
ATOM     22  C   UNL     1       1.468  11.994  20.890  0.00  0.00    +0.000 C 
BRANCH  18  23
ATOM     23  C   UNL     1       1.270   9.263  21.558  0.00  0.00    +0.000 C 
BRANCH  23  27
ATOM     24  C   UNL     1       2.389   6.132  18.775  0.00  0.00    +0.000 A 
ATOM     25  C   UNL     1       2.296   7.459  18.341  0.00  0.00    +0.000 A 
ATOM     26  C   UNL     1       1.903   8.469  19.224  0.00  0.00    +0.000 A 
ATOM     27  C   UNL     1       1.591   8.168  20.555  0.00  0.00    +0.000 A 
ATOM     28  C   UNL     1       1.655   6.831  20.975  0.00  0.00    +0.000 A 
ATOM     29  C   UNL     1       2.046   5.821  20.091  0.00  0.00    +0.000 A 
BRANCH  24  31
ATOM     30  C   UNL     1       1.764   3.540  18.148  0.00  0.00    +0.000 C 
ATOM     31  S   UNL     1       2.950   4.834  17.690  0.00  0.00    +0.000 S 
ENDBRANCH  24  31
ENDBRANCH  23  27
ENDBRANCH  18  23
ENDBRANCH   1  21
TORSDOF 7
ENDMDL
MODEL 5
REMARK VINA RESULT:      -7.6      2.782      5.157
REMARK  Name = 
REMARK  9 active torsions:
REMARK  status: ('A' for Active; 'I' for Inactive)
REMARK    1  A    between atoms: C_1  and  S_2
REMARK    2  A    between atoms: S_2  and  C_3
REMARK    3  A    between atoms: C_6  and  C_7
REMARK    4  A    between atoms: C_7  and  N_8
REMARK    5  A    between atoms: C_11  and  C_12
REMARK    6  A    between atoms: C_11  and  C_13
REMARK    7  A    between atoms: N_15  and  C_16
REMARK    8  A    between atoms: C_20  and  O_21
REMARK    9  A    between atoms: O_21  and  C_22
REMARK                            x       y       z     vdW  Elec       q    Type
REMARK                         _______ _______ _______ _____ _____    ______ ____
ROOT
ATOM      1  C   UNL     1       1.397   8.076  20.166  0.00  0.00    +0.000 C 
ATOM      2  O   UNL     1       1.815   8.301  19.028  0.00  0.00    +0.000 OA
ATOM      3  N   UNL     1       1.516   6.867  20.824  0.00  0.00    +0.000 N 
ATOM      4  H   UNL     1       1.156   6.872  21.775  0.00  0.00    +0.000 HD
ENDROOT
BRANCH   3   5
ATOM      5  C   UNL     1       2.073   5.677  20.323  0.00  0.00    +0.000 A 
ATOM      6  C   UNL     1       1.440   4.434  20.407  0.00  0.00    +0.000 A 
ATOM      7  C   UNL     1       2.048   3.286  19.899  0.00  0.00    +0.000 A 
ATOM      8  C   UNL     1       3.317   3.362  19.334  0.00  0.00    +0.000 A 
ATOM      9  C   UNL     1       3.979   4.588  19.289  0.00  0.00    +0.000 A 
ATOM     10  C   UNL     1       3.338   5.749  19.739  0.00  0.00    +0.000 A 
BRANCH   9  11
ATOM     11  O   UNL     1       5.247   4.577  18.751  0.00  0.00    +0.000 OA
BRANCH  11  12
ATOM     12  C   UNL     1       5.394   4.734  17.389  0.00  0.00    +0.000 A 
ATOM     13  C   UNL     1       5.726   3.700  16.510  0.00  0.00    +0.000 A 
ATOM     14  C   UNL     1       5.918   3.967  15.154  0.00  0.00    +0.000 A 
ATOM     15  C   UNL     1       5.717   5.256  14.666  0.00  0.00    +0.000 A 
ATOM     16  C   UNL     1       5.315   6.275  15.530  0.00  0.00    +0.000 A 
ATOM     17  C   UNL     1       5.155   6.016  16.892  0.00  0.00    +0.000 A 
ENDBRANCH  11  12
ENDBRANCH   9  11
ENDBRANCH   3   5
BRANCH   1  21
ATOM     18  N   UNL     1       0.420  10.467  20.266  0.00  0.00    +0.000 NA
ATOM     19  C   UNL     1       1.228  11.248  21.219  0.00  0.00    +0.000 C 
ATOM     20  C   UNL     1       1.619   9.977  21.971  0.00  0.00    +0.000 C 
ATOM     21  C   UNL     1       0.660   9.196  21.039  0.00  0.00    +0.000 C 
ATOM     22  C   UNL     1      -0.528   8.579  21.786  0.00  0.00    +0.000 C 
BRANCH  18  23
ATOM     23  C   UNL     1      -0.980  10.915  20.274  0.00  0.00    +0.000 C 
BRANCH  23  27
ATOM     24  C   UNL     1      -3.063  10.649  16.481  0.00  0.00    +0.000 A 
ATOM     25  C   UNL     1      -1.904   9.897  16.700  0.00  0.00    +0.000 A 
ATOM     26  C   UNL     1      -1.208  10.002  17.908  0.00  0.00    +0.000 A 
ATOM     27  C   UNL     1      -1.656  10.867  18.914  0.00  0.00    +0.000 A 
ATOM     28  C   UNL     1      -2.801  11.643  18.674  0.00  0.00    +0.000 A 
ATOM     29  C   UNL     1      -3.496  11.538  17.466  0.00  0.00    +0.000 A 
BRANCH  24  31
ATOM     30  C   UNL     1      -2.731   9.773  13.906  0.00  0.00    +0.000 C 
ATOM     31  S   UNL     1      -4.008  10.487  14.978  0.00  0.00    +0.000 S 
ENDBRANCH  24  31
ENDBRANCH  23  27
ENDBRANCH  18  23
ENDBRANCH   1  21
TORSDOF 7
ENDMDL
MODEL 6
REMARK VINA RESULT:      -7.6      1.391      3.538
REMARK  Name = 
REMARK  9 active torsions:
REMARK  status: ('A' for Active; 'I' for Inactive)
REMARK    1  A    between atoms: C_1  and  S_2
REMARK    2  A    between atoms: S_2  and  C_3
REMARK    3  A    between atoms: C_6  and  C_7
REMARK    4  A    between atoms: C_7  and  N_8
REMARK    5  A    between atoms: C_11  and  C_12
REMARK    6  A    between atoms: C_11  and  C_13
REMARK    7  A    between atoms: N_15  and  C_16
REMARK    8  A    between atoms: C_20  and  O_21
REMARK    9  A    between atoms: O_21  and  C_22
REMARK                            x       y       z     vdW  Elec       q    Type
REMARK                         _______ _______ _______ _____ _____    ______ ____
ROOT
ATOM      1  C   UNL     1       1.987   8.423  18.502  0.00  0.00    +0.000 C 
ATOM      2  O   UNL     1       2.564   8.113  17.456  0.00  0.00    +0.000 OA
ATOM      3  N   UNL     1       1.905   7.620  19.623  0.00  0.00    +0.000 N 
ATOM      4  H   UNL     1       1.430   8.053  20.412  0.00  0.00    +0.000 HD
ENDROOT
BRANCH   3   5
ATOM      5  C   UNL     1       2.400   6.313  19.773  0.00  0.00    +0.000 A 
ATOM      6  C   UNL     1       1.692   5.287  20.405  0.00  0.00    +0.000 A 
ATOM      7  C   UNL     1       2.243   4.011  20.531  0.00  0.00    +0.000 A 
ATOM      8  C   UNL     1       3.526   3.757  20.059  0.00  0.00    +0.000 A 
ATOM      9  C   UNL     1       4.261   4.785  19.471  0.00  0.00    +0.000 A 
ATOM     10  C   UNL     1       3.681   6.047  19.286  0.00  0.00    +0.000 A 
BRANCH   9  11
ATOM     11  O   UNL     1       5.538   4.467  19.065  0.00  0.00    +0.000 OA
BRANCH  11  12
ATOM     12  C   UNL     1       5.853   4.557  17.726  0.00  0.00    +0.000 A 
ATOM     13  C   UNL     1       6.998   5.185  17.227  0.00  0.00    +0.000 A 
ATOM     14  C   UNL     1       7.200   5.285  15.851  0.00  0.00    +0.000 A 
ATOM     15  C   UNL     1       6.291   4.700  14.973  0.00  0.00    +0.000 A 
ATOM     16  C   UNL     1       5.185   4.009  15.469  0.00  0.00    +0.000 A 
ATOM     17  C   UNL     1       4.965   3.938  16.845  0.00  0.00    +0.000 A 
ENDBRANCH  11  12
ENDBRANCH   9  11
ENDBRANCH   3   5
BRANCH   1  21
ATOM     18  N   UNL     1       0.532   9.945  20.001  0.00  0.00    +0.000 NA
ATOM     19  C   UNL     1      -0.755  10.159  19.317  0.00  0.00    +0.000 C 
ATOM     20  C   UNL     1      -0.102   9.926  17.956  0.00  0.00    +0.000 C 
ATOM     21  C   UNL     1       1.261   9.836  18.686  0.00  0.00    +0.000 C 
ATOM     22  C   UNL     1       2.219  10.970  18.304  0.00  0.00    +0.000 C 
BRANCH  18  23
ATOM     23  C   UNL     1       0.908  11.124  20.795  0.00  0.00    +0.000 C 
BRANCH  23  27
ATOM     24  C   UNL     1      -2.222  12.983  23.149  0.00  0.00    +0.000 A 
ATOM     25  C   UNL     1      -1.914  11.631  23.332  0.00  0.00    +0.000 A 
ATOM     26  C   UNL     1      -0.929  11.016  22.554  0.00  0.00    +0.000 A 
ATOM     27  C   UNL     1      -0.241  11.741  21.574  0.00  0.00    +0.000 A 
ATOM     28  C   UNL     1      -0.578  13.088  21.373  0.00  0.00    +0.000 A 
ATOM     29  C   UNL     1      -1.564  13.703  22.151  0.00  0.00    +0.000 A 
BRANCH  24  31
ATOM     30  C   UNL     1      -4.929  13.399  23.241  0.00  0.00    +0.000 C 
ATOM     31  S   UNL     1      -3.426  13.811  24.170  0.00  0.00    +0.000 S 
ENDBRANCH  24  31
ENDBRANCH  23  27
ENDBRANCH  18  23
ENDBRANCH   1  21
TORSDOF 7
ENDMDL
MODEL 7
REMARK VINA RESULT:      -7.6      3.774      8.830
REMARK  Name = 
REMARK  9 active torsions:
REMARK  status: ('A' for Active; 'I' for Inactive)
REMARK    1  A    between atoms: C_1  and  S_2
REMARK    2  A    between atoms: S_2  and  C_3
REMARK    3  A    between atoms: C_6  and  C_7
REMARK    4  A    between atoms: C_7  and  N_8
REMARK    5  A    between atoms: C_11  and  C_12
REMARK    6  A    between atoms: C_11  and  C_13
REMARK    7  A    between atoms: N_15  and  C_16
REMARK    8  A    between atoms: C_20  and  O_21
REMARK    9  A    between atoms: O_21  and  C_22
REMARK                            x       y       z     vdW  Elec       q    Type
REMARK                         _______ _______ _______ _____ _____    ______ ____
ROOT
ATOM      1  C   UNL     1       3.081   5.317  19.571  0.00  0.00    +0.000 C 
ATOM      2  O   UNL     1       2.689   4.939  20.678  0.00  0.00    +0.000 OA
ATOM      3  N   UNL     1       2.832   6.565  19.032  0.00  0.00    +0.000 N 
ATOM      4  H   UNL     1       3.270   6.723  18.127  0.00  0.00    +0.000 HD
ENDROOT
BRANCH   3   5
ATOM      5  C   UNL     1       2.064   7.598  19.596  0.00  0.00    +0.000 A 
ATOM      6  C   UNL     1       1.659   7.617  20.933  0.00  0.00    +0.000 A 
ATOM      7  C   UNL     1       0.889   8.668  21.433  0.00  0.00    +0.000 A 
ATOM      8  C   UNL     1       0.481   9.694  20.588  0.00  0.00    +0.000 A 
ATOM      9  C   UNL     1       0.837   9.661  19.240  0.00  0.00    +0.000 A 
ATOM     10  C   UNL     1       1.665   8.640  18.758  0.00  0.00    +0.000 A 
BRANCH   9  11
ATOM     11  O   UNL     1       0.362  10.691  18.458  0.00  0.00    +0.000 OA
BRANCH  11  12
ATOM     12  C   UNL     1      -0.995  10.787  18.235  0.00  0.00    +0.000 A 
ATOM     13  C   UNL     1      -1.816  11.774  18.788  0.00  0.00    +0.000 A 
ATOM     14  C   UNL     1      -3.191  11.753  18.557  0.00  0.00    +0.000 A 
ATOM     15  C   UNL     1      -3.738  10.782  17.721  0.00  0.00    +0.000 A 
ATOM     16  C   UNL     1      -2.911   9.840  17.109  0.00  0.00    +0.000 A 
ATOM     17  C   UNL     1      -1.540   9.841  17.366  0.00  0.00    +0.000 A 
ENDBRANCH  11  12
ENDBRANCH   9  11
ENDBRANCH   3   5
BRANCH   1  21
ATOM     18  N   UNL     1       4.671   5.162  17.539  0.00  0.00    +0.000 NA
ATOM     19  C   UNL     1       3.980   4.411  16.477  0.00  0.00    +0.000 C 
ATOM     20  C   UNL     1       3.128   3.679  17.512  0.00  0.00    +0.000 C 
ATOM     21  C   UNL     1       3.958   4.383  18.614  0.00  0.00    +0.000 C 
ATOM     22  C   UNL     1       4.787   3.404  19.455  0.00  0.00    +0.000 C 
BRANCH  18  23
ATOM     23  C   UNL     1       6.121   4.926  17.493  0.00  0.00    +0.000 C 
BRANCH  23  27
ATOM     24  C   UNL     1       8.386   8.476  18.523  0.00  0.00    +0.000 A 
ATOM     25  C   UNL     1       7.509   8.494  17.434  0.00  0.00    +0.000 A 
ATOM     26  C   UNL     1       6.799   7.343  17.075  0.00  0.00    +0.000 A 
ATOM     27  C   UNL     1       6.962   6.154  17.795  0.00  0.00    +0.000 A 
ATOM     28  C   UNL     1       7.869   6.134  18.866  0.00  0.00    +0.000 A 
ATOM     29  C   UNL     1       8.579   7.284  19.223  0.00  0.00    +0.000 A 
BRANCH  24  31
ATOM     30  C   UNL     1       8.542  11.133  17.875  0.00  0.00    +0.000 C 
ATOM     31  S   UNL     1       9.254   9.943  19.044  0.00  0.00    +0.000 S 
ENDBRANCH  24  31
ENDBRANCH  23  27
ENDBRANCH  18  23
ENDBRANCH   1  21
TORSDOF 7
ENDMDL
MODEL 8
REMARK VINA RESULT:      -7.6      3.556      6.902
REMARK  Name = 
REMARK  9 active torsions:
REMARK  status: ('A' for Active; 'I' for Inactive)
REMARK    1  A    between atoms: C_1  and  S_2
REMARK    2  A    between atoms: S_2  and  C_3
REMARK    3  A    between atoms: C_6  and  C_7
REMARK    4  A    between atoms: C_7  and  N_8
REMARK    5  A    between atoms: C_11  and  C_12
REMARK    6  A    between atoms: C_11  and  C_13
REMARK    7  A    between atoms: N_15  and  C_16
REMARK    8  A    between atoms: C_20  and  O_21
REMARK    9  A    between atoms: O_21  and  C_22
REMARK                            x       y       z     vdW  Elec       q    Type
REMARK                         _______ _______ _______ _____ _____    ______ ____
ROOT
ATOM      1  C   UNL     1       3.378   2.860  18.435  0.00  0.00    +0.000 C 
ATOM      2  O   UNL     1       3.580   1.822  17.800  0.00  0.00    +0.000 OA
ATOM      3  N   UNL     1       4.079   4.038  18.261  0.00  0.00    +0.000 N 
ATOM      4  H   UNL     1       3.749   4.809  18.838  0.00  0.00    +0.000 HD
ENDROOT
BRANCH   3   5
ATOM      5  C   UNL     1       5.160   4.265  17.391  0.00  0.00    +0.000 A 
ATOM      6  C   UNL     1       6.487   4.357  17.818  0.00  0.00    +0.000 A 
ATOM      7  C   UNL     1       7.517   4.594  16.906  0.00  0.00    +0.000 A 
ATOM      8  C   UNL     1       7.224   4.780  15.559  0.00  0.00    +0.000 A 
ATOM      9  C   UNL     1       5.899   4.740  15.129  0.00  0.00    +0.000 A 
ATOM     10  C   UNL     1       4.875   4.436  16.036  0.00  0.00    +0.000 A 
BRANCH   9  11
ATOM     11  O   UNL     1       5.685   4.972  13.788  0.00  0.00    +0.000 OA
BRANCH  11  12
ATOM     12  C   UNL     1       5.932   3.958  12.889  0.00  0.00    +0.000 A 
ATOM     13  C   UNL     1       7.208   3.572  12.468  0.00  0.00    +0.000 A 
ATOM     14  C   UNL     1       7.358   2.576  11.503  0.00  0.00    +0.000 A 
ATOM     15  C   UNL     1       6.234   1.921  11.004  0.00  0.00    +0.000 A 
ATOM     16  C   UNL     1       4.964   2.254  11.475  0.00  0.00    +0.000 A 
ATOM     17  C   UNL     1       4.812   3.273  12.416  0.00  0.00    +0.000 A 
ENDBRANCH  11  12
ENDBRANCH   9  11
ENDBRANCH   3   5
BRANCH   1  21
ATOM     18  N   UNL     1       2.491   4.085  20.531  0.00  0.00    +0.000 NA
ATOM     19  C   UNL     1       2.540   3.144  21.662  0.00  0.00    +0.000 C 
ATOM     20  C   UNL     1       2.422   1.953  20.712  0.00  0.00    +0.000 C 
ATOM     21  C   UNL     1       2.240   2.965  19.554  0.00  0.00    +0.000 C 
ATOM     22  C   UNL     1       0.856   2.884  18.901  0.00  0.00    +0.000 C 
BRANCH  18  23
ATOM     23  C   UNL     1       1.364   5.018  20.671  0.00  0.00    +0.000 C 
BRANCH  23  27
ATOM     24  C   UNL     1       1.873   8.955  18.928  0.00  0.00    +0.000 A 
ATOM     25  C   UNL     1       2.301   7.818  18.234  0.00  0.00    +0.000 A 
ATOM     26  C   UNL     1       2.171   6.548  18.803  0.00  0.00    +0.000 A 
ATOM     27  C   UNL     1       1.617   6.394  20.080  0.00  0.00    +0.000 A 
ATOM     28  C   UNL     1       1.220   7.542  20.784  0.00  0.00    +0.000 A 
ATOM     29  C   UNL     1       1.352   8.812  20.214  0.00  0.00    +0.000 A 
BRANCH  24  31
ATOM     30  C   UNL     1       0.399  11.261  18.810  0.00  0.00    +0.000 C 
ATOM     31  S   UNL     1       1.966  10.580  18.201  0.00  0.00    +0.000 S 
ENDBRANCH  24  31
ENDBRANCH  23  27
ENDBRANCH  18  23
ENDBRANCH   1  21
TORSDOF 7
ENDMDL
MODEL 9
REMARK VINA RESULT:      -7.5      2.864      4.814
REMARK  Name = 
REMARK  9 active torsions:
REMARK  status: ('A' for Active; 'I' for Inactive)
REMARK    1  A    between atoms: C_1  and  S_2
REMARK    2  A    between atoms: S_2  and  C_3
REMARK    3  A    between atoms: C_6  and  C_7
REMARK    4  A    between atoms: C_7  and  N_8
REMARK    5  A    between atoms: C_11  and  C_12
REMARK    6  A    between atoms: C_11  and  C_13
REMARK    7  A    between atoms: N_15  and  C_16
REMARK    8  A    between atoms: C_20  and  O_21
REMARK    9  A    between atoms: O_21  and  C_22
REMARK                            x       y       z     vdW  Elec       q    Type
REMARK                         _______ _______ _______ _____ _____    ______ ____
ROOT
ATOM      1  C   UNL     1       0.069  11.706  21.314  0.00  0.00    +0.000 C 
ATOM      2  O   UNL     1       1.127  12.326  21.181  0.00  0.00    +0.000 OA
ATOM      3  N   UNL     1      -0.209  10.487  20.725  0.00  0.00    +0.000 N 
ATOM      4  H   UNL     1      -1.113  10.097  20.980  0.00  0.00    +0.000 HD
ENDROOT
BRANCH   3   5
ATOM      5  C   UNL     1       0.611   9.760  19.844  0.00  0.00    +0.000 A 
ATOM      6  C   UNL     1       0.772  10.085  18.495  0.00  0.00    +0.000 A 
ATOM      7  C   UNL     1       1.594   9.318  17.668  0.00  0.00    +0.000 A 
ATOM      8  C   UNL     1       2.235   8.192  18.175  0.00  0.00    +0.000 A 
ATOM      9  C   UNL     1       2.043   7.831  19.507  0.00  0.00    +0.000 A 
ATOM     10  C   UNL     1       1.272   8.640  20.351  0.00  0.00    +0.000 A 
BRANCH   9  11
ATOM     11  O   UNL     1       2.680   6.683  19.926  0.00  0.00    +0.000 OA
BRANCH  11  12
ATOM     12  C   UNL     1       2.144   5.460  19.578  0.00  0.00    +0.000 A 
ATOM     13  C   UNL     1       2.256   4.885  18.310  0.00  0.00    +0.000 A 
ATOM     14  C   UNL     1       1.625   3.672  18.032  0.00  0.00    +0.000 A 
ATOM     15  C   UNL     1       0.935   3.003  19.040  0.00  0.00    +0.000 A 
ATOM     16  C   UNL     1       0.883   3.540  20.327  0.00  0.00    +0.000 A 
ATOM     17  C   UNL     1       1.486   4.769  20.596  0.00  0.00    +0.000 A 
ENDBRANCH  11  12
ENDBRANCH   9  11
ENDBRANCH   3   5
BRANCH   1  21
ATOM     18  N   UNL     1      -2.251  12.842  21.404  0.00  0.00    +0.000 NA
ATOM     19  C   UNL     1      -2.089  14.155  22.052  0.00  0.00    +0.000 C 
ATOM     20  C   UNL     1      -0.860  13.659  22.812  0.00  0.00    +0.000 C 
ATOM     21  C   UNL     1      -1.129  12.253  22.221  0.00  0.00    +0.000 C 
ATOM     22  C   UNL     1      -1.493  11.215  23.289  0.00  0.00    +0.000 C 
BRANCH  18  23
ATOM     23  C   UNL     1      -3.571  12.269  21.701  0.00  0.00    +0.000 C 
BRANCH  23  27
ATOM     24  C   UNL     1      -6.709  14.341  19.543  0.00  0.00    +0.000 A 
ATOM     25  C   UNL     1      -6.469  14.635  20.889  0.00  0.00    +0.000 A 
ATOM     26  C   UNL     1      -5.481  13.948  21.601  0.00  0.00    +0.000 A 
ATOM     27  C   UNL     1      -4.722  12.949  20.981  0.00  0.00    +0.000 A 
ATOM     28  C   UNL     1      -4.990  12.636  19.639  0.00  0.00    +0.000 A 
ATOM     29  C   UNL     1      -5.979  13.322  18.928  0.00  0.00    +0.000 A 
BRANCH  24  31
ATOM     30  C   UNL     1      -6.842  15.852  17.262  0.00  0.00    +0.000 C 
ATOM     31  S   UNL     1      -7.916  15.244  18.592  0.00  0.00    +0.000 S 
ENDBRANCH  24  31
ENDBRANCH  23  27
ENDBRANCH  18  23
ENDBRANCH   1  21
TORSDOF 7
ENDMDL
