MODEL 1
REMARK VINA RESULT:      -9.2      0.000      0.000
REMARK  Name = 
REMARK  9 active torsions:
REMARK  status: ('A' for Active; 'I' for Inactive)
REMARK    1  A    between atoms: C_2  and  C_3
REMARK    2  A    between atoms: C_3  and  N_4
REMARK    3  A    between atoms: C_5  and  C_7
REMARK    4  A    between atoms: C_14  and  C_15
REMARK    5  A    between atoms: C_15  and  C_16
REMARK    6  A    between atoms: C_16  and  C_17
REMARK    7  A    between atoms: C_16  and  C_18
REMARK    8  A    between atoms: N_24  and  C_25
REMARK    9  A    between atoms: C_25  and  C_26
REMARK                            x       y       z     vdW  Elec       q    Type
REMARK                         _______ _______ _______ _____ _____    ______ ____
ROOT
ATOM      1  C   UNL     1       6.218   4.944  15.656  0.00  0.00    +0.000 A 
ATOM      2  C   UNL     1       6.695   4.126  16.675  0.00  0.00    +0.000 A 
ATOM      3  C   UNL     1       6.133   4.210  17.955  0.00  0.00    +0.000 A 
ATOM      4  C   UNL     1       5.079   5.117  18.220  0.00  0.00    +0.000 A 
ATOM      5  C   UNL     1       4.601   5.959  17.216  0.00  0.00    +0.000 A 
ATOM      6  C   UNL     1       5.184   5.864  15.941  0.00  0.00    +0.000 A 
ATOM      7  N   UNL     1       3.543   6.856  17.431  0.00  0.00    +0.000 NA
ATOM      8  C   UNL     1       2.841   6.847  18.550  0.00  0.00    +0.000 C 
ATOM      9  N   UNL     1       3.180   5.973  19.590  0.00  0.00    +0.000 N 
ATOM     10  C   UNL     1       4.480   5.257  19.585  0.00  0.00    +0.000 C 
ENDROOT
BRANCH   1  12
ATOM     11  N   UNL     1       6.334   3.797  13.506  0.00  0.00    +0.000 N 
ATOM     12  C   UNL     1       6.823   4.822  14.295  0.00  0.00    +0.000 C 
ATOM     13  O   UNL     1       7.693   5.604  13.923  0.00  0.00    +0.000 OA
ATOM     14  H   UNL     1       5.695   3.122  13.903  0.00  0.00    +0.000 HD
BRANCH  11  15
ATOM     15  C   UNL     1       6.689   3.616  12.113  0.00  0.00    +0.000 C 
BRANCH  15  17
ATOM     16  C   UNL     1       4.350   3.139  11.304  0.00  0.00    +0.000 C 
ATOM     17  C   UNL     1       5.628   2.773  11.475  0.00  0.00    +0.000 C 
ENDBRANCH  15  17
ENDBRANCH  11  15
ENDBRANCH   1  12
BRANCH   8  18
ATOM     18  C   UNL     1       1.558   7.844  18.423  0.00  0.00    +0.000 C 
BRANCH  18  19
ATOM     19  C   UNL     1       1.227   9.352  18.749  0.00  0.00    +0.000 C 
ATOM     20  C   UNL     1       0.223  10.089  17.848  0.00  0.00    +0.000 C 
BRANCH  19  21
ATOM     21  C   UNL     1       0.658   9.551  20.203  0.00  0.00    +0.000 A 
ATOM     22  C   UNL     1       1.172   8.802  21.282  0.00  0.00    +0.000 A 
ATOM     23  C   UNL     1       0.745   9.022  22.605  0.00  0.00    +0.000 A 
ATOM     24  C   UNL     1      -0.201  10.007  22.887  0.00  0.00    +0.000 A 
ATOM     25  C   UNL     1      -0.705  10.779  21.834  0.00  0.00    +0.000 A 
ATOM     26  C   UNL     1      -0.281  10.556  20.519  0.00  0.00    +0.000 A 
ENDBRANCH  19  21
ENDBRANCH  18  19
ENDBRANCH   8  18
BRANCH   9  27
ATOM     27  C   UNL     1       2.483   5.841  20.870  0.00  0.00    +0.000 C 
BRANCH  27  28
ATOM     28  C   UNL     1       1.473   4.681  20.858  0.00  0.00    +0.000 C 
ATOM     29  C   UNL     1       0.967   4.268  19.465  0.00  0.00    +0.000 C 
ATOM     30  C   UNL     1       1.702   3.157  18.720  0.00  0.00    +0.000 C 
ATOM     31  C   UNL     1       2.520   2.160  19.527  0.00  0.00    +0.000 C 
ATOM     32  C   UNL     1       2.979   2.596  20.908  0.00  0.00    +0.000 C 
ATOM     33  C   UNL     1       2.018   3.501  21.660  0.00  0.00    +0.000 C 
ENDBRANCH  27  28
ENDBRANCH   9  27
TORSDOF 8
ENDMDL
MODEL 2
REMARK VINA RESULT:      -9.2      1.320      1.992
REMARK  Name = 
REMARK  9 active torsions:
REMARK  status: ('A' for Active; 'I' for Inactive)
REMARK    1  A    between atoms: C_2  and  C_3
REMARK    2  A    between atoms: C_3  and  N_4
REMARK    3  A    between atoms: C_5  and  C_7
REMARK    4  A    between atoms: C_14  and  C_15
REMARK    5  A    between atoms: C_15  and  C_16
REMARK    6  A    between atoms: C_16  and  C_17
REMARK    7  A    between atoms: C_16  and  C_18
REMARK    8  A    between atoms: N_24  and  C_25
REMARK    9  A    between atoms: C_25  and  C_26
REMARK                            x       y       z     vdW  Elec       q    Type
REMARK                         _______ _______ _______ _____ _____    ______ ____
ROOT
ATOM      1  C   UNL     1       6.263   4.984  15.503  0.00  0.00    +0.000 A 
ATOM      2  C   UNL     1       6.650   4.124  16.526  0.00  0.00    +0.000 A 
ATOM      3  C   UNL     1       6.044   4.223  17.784  0.00  0.00    +0.000 A 
ATOM      4  C   UNL     1       5.037   5.189  18.024  0.00  0.00    +0.000 A 
ATOM      5  C   UNL     1       4.651   6.073  17.017  0.00  0.00    +0.000 A 
ATOM      6  C   UNL     1       5.277   5.961  15.764  0.00  0.00    +0.000 A 
ATOM      7  N   UNL     1       3.642   7.030  17.206  0.00  0.00    +0.000 NA
ATOM      8  C   UNL     1       2.896   7.047  18.297  0.00  0.00    +0.000 C 
ATOM      9  N   UNL     1       3.140   6.139  19.333  0.00  0.00    +0.000 N 
ATOM     10  C   UNL     1       4.394   5.345  19.367  0.00  0.00    +0.000 C 
ENDROOT
BRANCH   1  12
ATOM     11  N   UNL     1       6.418   3.841  13.352  0.00  0.00    +0.000 N 
ATOM     12  C   UNL     1       6.914   4.845  14.164  0.00  0.00    +0.000 C 
ATOM     13  O   UNL     1       7.825   5.597  13.828  0.00  0.00    +0.000 OA
ATOM     14  H   UNL     1       5.740   3.189  13.723  0.00  0.00    +0.000 HD
BRANCH  11  15
ATOM     15  C   UNL     1       6.817   3.653  11.973  0.00  0.00    +0.000 C 
BRANCH  15  17
ATOM     16  C   UNL     1       6.746   1.283  11.116  0.00  0.00    +0.000 C 
ATOM     17  C   UNL     1       6.132   2.423  11.461  0.00  0.00    +0.000 C 
ENDBRANCH  15  17
ENDBRANCH  11  15
ENDBRANCH   1  12
BRANCH   8  18
ATOM     18  C   UNL     1       1.682   8.123  18.137  0.00  0.00    +0.000 C 
BRANCH  18  19
ATOM     19  C   UNL     1       1.376   9.600  18.600  0.00  0.00    +0.000 C 
ATOM     20  C   UNL     1       2.162  10.746  17.944  0.00  0.00    +0.000 C 
BRANCH  19  21
ATOM     21  C   UNL     1      -0.132  10.003  18.399  0.00  0.00    +0.000 A 
ATOM     22  C   UNL     1      -0.744  10.938  19.259  0.00  0.00    +0.000 A 
ATOM     23  C   UNL     1      -2.063  11.383  19.050  0.00  0.00    +0.000 A 
ATOM     24  C   UNL     1      -2.804  10.913  17.965  0.00  0.00    +0.000 A 
ATOM     25  C   UNL     1      -2.206  10.004  17.084  0.00  0.00    +0.000 A 
ATOM     26  C   UNL     1      -0.896   9.561  17.297  0.00  0.00    +0.000 A 
ENDBRANCH  19  21
ENDBRANCH  18  19
ENDBRANCH   8  18
BRANCH   9  27
ATOM     27  C   UNL     1       2.386   6.031  20.583  0.00  0.00    +0.000 C 
BRANCH  27  28
ATOM     28  C   UNL     1       1.381   4.868  20.550  0.00  0.00    +0.000 C 
ATOM     29  C   UNL     1       1.055   4.324  19.148  0.00  0.00    +0.000 C 
ATOM     30  C   UNL     1       1.874   3.155  18.608  0.00  0.00    +0.000 C 
ATOM     31  C   UNL     1       2.579   2.243  19.601  0.00  0.00    +0.000 C 
ATOM     32  C   UNL     1       2.861   2.807  20.983  0.00  0.00    +0.000 C 
ATOM     33  C   UNL     1       1.816   3.771  21.521  0.00  0.00    +0.000 C 
ENDBRANCH  27  28
ENDBRANCH   9  27
TORSDOF 8
ENDMDL
MODEL 3
REMARK VINA RESULT:      -8.7      3.442      7.931
REMARK  Name = 
REMARK  9 active torsions:
REMARK  status: ('A' for Active; 'I' for Inactive)
REMARK    1  A    between atoms: C_2  and  C_3
REMARK    2  A    between atoms: C_3  and  N_4
REMARK    3  A    between atoms: C_5  and  C_7
REMARK    4  A    between atoms: C_14  and  C_15
REMARK    5  A    between atoms: C_15  and  C_16
REMARK    6  A    between atoms: C_16  and  C_17
REMARK    7  A    between atoms: C_16  and  C_18
REMARK    8  A    between atoms: N_24  and  C_25
REMARK    9  A    between atoms: C_25  and  C_26
REMARK                            x       y       z     vdW  Elec       q    Type
REMARK                         _______ _______ _______ _____ _____    ______ ____
ROOT
ATOM      1  C   UNL     1       0.370  11.150  19.712  0.00  0.00    +0.000 A 
ATOM      2  C   UNL     1       0.144  10.634  20.984  0.00  0.00    +0.000 A 
ATOM      3  C   UNL     1       0.570   9.338  21.295  0.00  0.00    +0.000 A 
ATOM      4  C   UNL     1       1.234   8.546  20.326  0.00  0.00    +0.000 A 
ATOM      5  C   UNL     1       1.451   9.039  19.040  0.00  0.00    +0.000 A 
ATOM      6  C   UNL     1       1.008  10.340  18.747  0.00  0.00    +0.000 A 
ATOM      7  N   UNL     1       2.124   8.296  18.056  0.00  0.00    +0.000 NA
ATOM      8  C   UNL     1       2.723   7.153  18.338  0.00  0.00    +0.000 C 
ATOM      9  N   UNL     1       2.645   6.614  19.628  0.00  0.00    +0.000 N 
ATOM     10  C   UNL     1       1.670   7.144  20.614  0.00  0.00    +0.000 C 
ENDROOT
BRANCH   1  12
ATOM     11  N   UNL     1       0.925  13.482  19.257  0.00  0.00    +0.000 N 
ATOM     12  C   UNL     1      -0.079  12.544  19.412  0.00  0.00    +0.000 C 
ATOM     13  O   UNL     1      -1.274  12.809  19.307  0.00  0.00    +0.000 OA
ATOM     14  H   UNL     1       1.881  13.227  19.459  0.00  0.00    +0.000 HD
BRANCH  11  15
ATOM     15  C   UNL     1       0.691  14.843  18.819  0.00  0.00    +0.000 C 
BRANCH  15  17
ATOM     16  C   UNL     1       3.193  14.861  18.502  0.00  0.00    +0.000 C 
ATOM     17  C   UNL     1       2.024  15.503  18.644  0.00  0.00    +0.000 C 
ENDBRANCH  15  17
ENDBRANCH  11  15
ENDBRANCH   1  12
BRANCH   8  18
ATOM     18  C   UNL     1       3.592   6.638  17.059  0.00  0.00    +0.000 C 
BRANCH  18  19
ATOM     19  C   UNL     1       4.791   5.645  16.798  0.00  0.00    +0.000 C 
ATOM     20  C   UNL     1       5.225   5.395  15.346  0.00  0.00    +0.000 C 
BRANCH  19  21
ATOM     21  C   UNL     1       6.116   6.083  17.527  0.00  0.00    +0.000 A 
ATOM     22  C   UNL     1       6.734   7.310  17.211  0.00  0.00    +0.000 A 
ATOM     23  C   UNL     1       7.869   7.767  17.908  0.00  0.00    +0.000 A 
ATOM     24  C   UNL     1       8.410   7.012  18.949  0.00  0.00    +0.000 A 
ATOM     25  C   UNL     1       7.796   5.803  19.295  0.00  0.00    +0.000 A 
ATOM     26  C   UNL     1       6.670   5.350  18.598  0.00  0.00    +0.000 A 
ENDBRANCH  19  21
ENDBRANCH  18  19
ENDBRANCH   8  18
BRANCH   9  27
ATOM     27  C   UNL     1       3.271   5.372  20.085  0.00  0.00    +0.000 C 
BRANCH  27  28
ATOM     28  C   UNL     1       2.306   4.178  20.004  0.00  0.00    +0.000 C 
ATOM     29  C   UNL     1       1.582   4.011  18.656  0.00  0.00    +0.000 C 
ATOM     30  C   UNL     1       2.210   3.111  17.595  0.00  0.00    +0.000 C 
ATOM     31  C   UNL     1       3.180   2.029  18.044  0.00  0.00    +0.000 C 
ATOM     32  C   UNL     1       3.856   2.217  19.391  0.00  0.00    +0.000 C 
ATOM     33  C   UNL     1       3.012   2.901  20.455  0.00  0.00    +0.000 C 
ENDBRANCH  27  28
ENDBRANCH   9  27
TORSDOF 8
ENDMDL
MODEL 4
REMARK VINA RESULT:      -8.7      3.528      8.201
REMARK  Name = 
REMARK  9 active torsions:
REMARK  status: ('A' for Active; 'I' for Inactive)
REMARK    1  A    between atoms: C_2  and  C_3
REMARK    2  A    between atoms: C_3  and  N_4
REMARK    3  A    between atoms: C_5  and  C_7
REMARK    4  A    between atoms: C_14  and  C_15
REMARK    5  A    between atoms: C_15  and  C_16
REMARK    6  A    between atoms: C_16  and  C_17
REMARK    7  A    between atoms: C_16  and  C_18
REMARK    8  A    between atoms: N_24  and  C_25
REMARK    9  A    between atoms: C_25  and  C_26
REMARK                            x       y       z     vdW  Elec       q    Type
REMARK                         _______ _______ _______ _____ _____    ______ ____
ROOT
ATOM      1  C   UNL     1      -0.029  11.222  20.620  0.00  0.00    +0.000 A 
ATOM      2  C   UNL     1      -0.284  10.471  21.763  0.00  0.00    +0.000 A 
ATOM      3  C   UNL     1       0.163   9.147  21.840  0.00  0.00    +0.000 A 
ATOM      4  C   UNL     1       0.877   8.565  20.765  0.00  0.00    +0.000 A 
ATOM      5  C   UNL     1       1.125   9.295  19.603  0.00  0.00    +0.000 A 
ATOM      6  C   UNL     1       0.661  10.620  19.544  0.00  0.00    +0.000 A 
ATOM      7  N   UNL     1       1.847   8.763  18.523  0.00  0.00    +0.000 NA
ATOM      8  C   UNL     1       2.464   7.598  18.607  0.00  0.00    +0.000 C 
ATOM      9  N   UNL     1       2.356   6.823  19.769  0.00  0.00    +0.000 N 
ATOM     10  C   UNL     1       1.337   7.141  20.800  0.00  0.00    +0.000 C 
ENDROOT
BRANCH   1  12
ATOM     11  N   UNL     1       0.481  13.608  20.677  0.00  0.00    +0.000 N 
ATOM     12  C   UNL     1      -0.501  12.640  20.571  0.00  0.00    +0.000 C 
ATOM     13  O   UNL     1      -1.694  12.899  20.435  0.00  0.00    +0.000 OA
ATOM     14  H   UNL     1       1.430  13.334  20.892  0.00  0.00    +0.000 HD
BRANCH  11  15
ATOM     15  C   UNL     1       0.234  15.024  20.501  0.00  0.00    +0.000 C 
BRANCH  15  17
ATOM     16  C   UNL     1       1.996  15.079  18.699  0.00  0.00    +0.000 C 
ATOM     17  C   UNL     1       0.789  15.424  19.169  0.00  0.00    +0.000 C 
ENDBRANCH  15  17
ENDBRANCH  11  15
ENDBRANCH   1  12
BRANCH   8  18
ATOM     18  C   UNL     1       3.387   7.348  17.287  0.00  0.00    +0.000 C 
BRANCH  18  19
ATOM     19  C   UNL     1       4.484   6.315  16.820  0.00  0.00    +0.000 C 
ATOM     20  C   UNL     1       5.017   6.419  15.382  0.00  0.00    +0.000 C 
BRANCH  19  21
ATOM     21  C   UNL     1       5.779   6.352  17.714  0.00  0.00    +0.000 A 
ATOM     22  C   UNL     1       5.987   5.380  18.714  0.00  0.00    +0.000 A 
ATOM     23  C   UNL     1       7.175   5.336  19.468  0.00  0.00    +0.000 A 
ATOM     24  C   UNL     1       8.194   6.259  19.234  0.00  0.00    +0.000 A 
ATOM     25  C   UNL     1       8.019   7.217  18.228  0.00  0.00    +0.000 A 
ATOM     26  C   UNL     1       6.835   7.259  17.483  0.00  0.00    +0.000 A 
ENDBRANCH  19  21
ENDBRANCH  18  19
ENDBRANCH   8  18
BRANCH   9  27
ATOM     27  C   UNL     1       2.997   5.529  20.007  0.00  0.00    +0.000 C 
BRANCH  27  28
ATOM     28  C   UNL     1       2.064   4.355  19.667  0.00  0.00    +0.000 C 
ATOM     29  C   UNL     1       1.745   4.183  18.172  0.00  0.00    +0.000 C 
ATOM     30  C   UNL     1       2.624   3.253  17.339  0.00  0.00    +0.000 C 
ATOM     31  C   UNL     1       3.400   2.157  18.053  0.00  0.00    +0.000 C 
ATOM     32  C   UNL     1       3.673   2.351  19.535  0.00  0.00    +0.000 C 
ATOM     33  C   UNL     1       2.582   3.070  20.311  0.00  0.00    +0.000 C 
ENDBRANCH  27  28
ENDBRANCH   9  27
TORSDOF 8
ENDMDL
MODEL 5
REMARK VINA RESULT:      -8.6      3.404      8.824
REMARK  Name = 
REMARK  9 active torsions:
REMARK  status: ('A' for Active; 'I' for Inactive)
REMARK    1  A    between atoms: C_2  and  C_3
REMARK    2  A    between atoms: C_3  and  N_4
REMARK    3  A    between atoms: C_5  and  C_7
REMARK    4  A    between atoms: C_14  and  C_15
REMARK    5  A    between atoms: C_15  and  C_16
REMARK    6  A    between atoms: C_16  and  C_17
REMARK    7  A    between atoms: C_16  and  C_18
REMARK    8  A    between atoms: N_24  and  C_25
REMARK    9  A    between atoms: C_25  and  C_26
REMARK                            x       y       z     vdW  Elec       q    Type
REMARK                         _______ _______ _______ _____ _____    ______ ____
ROOT
ATOM      1  C   UNL     1      -0.166  11.079  20.989  0.00  0.00    +0.000 A 
ATOM      2  C   UNL     1      -0.445  10.236  22.060  0.00  0.00    +0.000 A 
ATOM      3  C   UNL     1       0.019   8.916  22.045  0.00  0.00    +0.000 A 
ATOM      4  C   UNL     1       0.775   8.430  20.951  0.00  0.00    +0.000 A 
ATOM      5  C   UNL     1       1.047   9.254  19.859  0.00  0.00    +0.000 A 
ATOM      6  C   UNL     1       0.566  10.574  19.890  0.00  0.00    +0.000 A 
ATOM      7  N   UNL     1       1.811   8.819  18.764  0.00  0.00    +0.000 NA
ATOM      8  C   UNL     1       2.442   7.659  18.775  0.00  0.00    +0.000 C 
ATOM      9  N   UNL     1       2.311   6.793  19.867  0.00  0.00    +0.000 N 
ATOM     10  C   UNL     1       1.256   7.014  20.887  0.00  0.00    +0.000 C 
ENDROOT
BRANCH   1  12
ATOM     11  N   UNL     1      -1.742  12.723  21.863  0.00  0.00    +0.000 N 
ATOM     12  C   UNL     1      -0.658  12.490  21.038  0.00  0.00    +0.000 C 
ATOM     13  O   UNL     1      -0.107  13.370  20.382  0.00  0.00    +0.000 OA
ATOM     14  H   UNL     1      -2.217  11.943  22.295  0.00  0.00    +0.000 HD
BRANCH  11  15
ATOM     15  C   UNL     1      -2.261  14.045  22.154  0.00  0.00    +0.000 C 
BRANCH  15  17
ATOM     16  C   UNL     1      -2.573  15.228  24.358  0.00  0.00    +0.000 C 
ATOM     17  C   UNL     1      -1.903  14.375  23.571  0.00  0.00    +0.000 C 
ENDBRANCH  15  17
ENDBRANCH  11  15
ENDBRANCH   1  12
BRANCH   8  18
ATOM     18  C   UNL     1       3.410   7.528  17.469  0.00  0.00    +0.000 C 
BRANCH  18  19
ATOM     19  C   UNL     1       4.392   6.455  16.860  0.00  0.00    +0.000 C 
ATOM     20  C   UNL     1       4.836   6.621  15.398  0.00  0.00    +0.000 C 
BRANCH  19  21
ATOM     21  C   UNL     1       5.742   6.337  17.661  0.00  0.00    +0.000 A 
ATOM     22  C   UNL     1       6.798   7.241  17.421  0.00  0.00    +0.000 A 
ATOM     23  C   UNL     1       7.981   7.215  18.183  0.00  0.00    +0.000 A 
ATOM     24  C   UNL     1       8.136   6.290  19.216  0.00  0.00    +0.000 A 
ATOM     25  C   UNL     1       7.089   5.401  19.487  0.00  0.00    +0.000 A 
ATOM     26  C   UNL     1       5.915   5.427  18.725  0.00  0.00    +0.000 A 
ENDBRANCH  19  21
ENDBRANCH  18  19
ENDBRANCH   8  18
BRANCH   9  27
ATOM     27  C   UNL     1       2.963   5.492  20.022  0.00  0.00    +0.000 C 
BRANCH  27  28
ATOM     28  C   UNL     1       2.023   4.331  19.659  0.00  0.00    +0.000 C 
ATOM     29  C   UNL     1       1.654   4.227  18.169  0.00  0.00    +0.000 C 
ATOM     30  C   UNL     1       2.507   3.341  17.264  0.00  0.00    +0.000 C 
ATOM     31  C   UNL     1       3.310   2.216  17.900  0.00  0.00    +0.000 C 
ATOM     32  C   UNL     1       3.633   2.343  19.379  0.00  0.00    +0.000 C 
ATOM     33  C   UNL     1       2.566   3.020  20.224  0.00  0.00    +0.000 C 
ENDBRANCH  27  28
ENDBRANCH   9  27
TORSDOF 8
ENDMDL
MODEL 6
REMARK VINA RESULT:      -8.6      1.158      1.990
REMARK  Name = 
REMARK  9 active torsions:
REMARK  status: ('A' for Active; 'I' for Inactive)
REMARK    1  A    between atoms: C_2  and  C_3
REMARK    2  A    between atoms: C_3  and  N_4
REMARK    3  A    between atoms: C_5  and  C_7
REMARK    4  A    between atoms: C_14  and  C_15
REMARK    5  A    between atoms: C_15  and  C_16
REMARK    6  A    between atoms: C_16  and  C_17
REMARK    7  A    between atoms: C_16  and  C_18
REMARK    8  A    between atoms: N_24  and  C_25
REMARK    9  A    between atoms: C_25  and  C_26
REMARK                            x       y       z     vdW  Elec       q    Type
REMARK                         _______ _______ _______ _____ _____    ______ ____
ROOT
ATOM      1  C   UNL     1       6.291   4.971  15.537  0.00  0.00    +0.000 A 
ATOM      2  C   UNL     1       6.651   4.092  16.553  0.00  0.00    +0.000 A 
ATOM      3  C   UNL     1       6.045   4.197  17.811  0.00  0.00    +0.000 A 
ATOM      4  C   UNL     1       5.065   5.190  18.057  0.00  0.00    +0.000 A 
ATOM      5  C   UNL     1       4.707   6.092  17.056  0.00  0.00    +0.000 A 
ATOM      6  C   UNL     1       5.333   5.974  15.804  0.00  0.00    +0.000 A 
ATOM      7  N   UNL     1       3.725   7.077  17.252  0.00  0.00    +0.000 NA
ATOM      8  C   UNL     1       2.977   7.106  18.341  0.00  0.00    +0.000 C 
ATOM      9  N   UNL     1       3.193   6.182  19.370  0.00  0.00    +0.000 N 
ATOM     10  C   UNL     1       4.424   5.353  19.400  0.00  0.00    +0.000 C 
ENDROOT
BRANCH   1  12
ATOM     11  N   UNL     1       6.440   3.820  13.391  0.00  0.00    +0.000 N 
ATOM     12  C   UNL     1       6.941   4.825  14.198  0.00  0.00    +0.000 C 
ATOM     13  O   UNL     1       7.855   5.572  13.859  0.00  0.00    +0.000 OA
ATOM     14  H   UNL     1       5.761   3.172  13.764  0.00  0.00    +0.000 HD
BRANCH  11  15
ATOM     15  C   UNL     1       6.839   3.625  12.012  0.00  0.00    +0.000 C 
BRANCH  15  17
ATOM     16  C   UNL     1       4.441   3.131  11.410  0.00  0.00    +0.000 C 
ATOM     17  C   UNL     1       5.750   2.859  11.324  0.00  0.00    +0.000 C 
ENDBRANCH  15  17
ENDBRANCH  11  15
ENDBRANCH   1  12
BRANCH   8  18
ATOM     18  C   UNL     1       1.795   8.217  18.187  0.00  0.00    +0.000 C 
BRANCH  18  19
ATOM     19  C   UNL     1       0.910   9.105  19.145  0.00  0.00    +0.000 C 
ATOM     20  C   UNL     1       1.127   8.979  20.661  0.00  0.00    +0.000 C 
BRANCH  19  21
ATOM     21  C   UNL     1       1.061  10.646  18.861  0.00  0.00    +0.000 A 
ATOM     22  C   UNL     1       0.121  11.564  19.376  0.00  0.00    +0.000 A 
ATOM     23  C   UNL     1       0.279  12.953  19.213  0.00  0.00    +0.000 A 
ATOM     24  C   UNL     1       1.389  13.464  18.540  0.00  0.00    +0.000 A 
ATOM     25  C   UNL     1       2.346  12.571  18.044  0.00  0.00    +0.000 A 
ATOM     26  C   UNL     1       2.185  11.190  18.204  0.00  0.00    +0.000 A 
ENDBRANCH  19  21
ENDBRANCH  18  19
ENDBRANCH   8  18
BRANCH   9  27
ATOM     27  C   UNL     1       2.434   6.085  20.618  0.00  0.00    +0.000 C 
BRANCH  27  28
ATOM     28  C   UNL     1       1.414   4.935  20.582  0.00  0.00    +0.000 C 
ATOM     29  C   UNL     1       1.073   4.405  19.179  0.00  0.00    +0.000 C 
ATOM     30  C   UNL     1       1.875   3.230  18.626  0.00  0.00    +0.000 C 
ATOM     31  C   UNL     1       2.573   2.302  19.608  0.00  0.00    +0.000 C 
ATOM     32  C   UNL     1       2.870   2.853  20.993  0.00  0.00    +0.000 C 
ATOM     33  C   UNL     1       1.840   3.826  21.543  0.00  0.00    +0.000 C 
ENDBRANCH  27  28
ENDBRANCH   9  27
TORSDOF 8
ENDMDL
MODEL 7
REMARK VINA RESULT:      -8.6      0.922      1.893
REMARK  Name = 
REMARK  9 active torsions:
REMARK  status: ('A' for Active; 'I' for Inactive)
REMARK    1  A    between atoms: C_2  and  C_3
REMARK    2  A    between atoms: C_3  and  N_4
REMARK    3  A    between atoms: C_5  and  C_7
REMARK    4  A    between atoms: C_14  and  C_15
REMARK    5  A    between atoms: C_15  and  C_16
REMARK    6  A    between atoms: C_16  and  C_17
REMARK    7  A    between atoms: C_16  and  C_18
REMARK    8  A    between atoms: N_24  and  C_25
REMARK    9  A    between atoms: C_25  and  C_26
REMARK                            x       y       z     vdW  Elec       q    Type
REMARK                         _______ _______ _______ _____ _____    ______ ____
ROOT
ATOM      1  C   UNL     1       6.107   4.882  15.522  0.00  0.00    +0.000 A 
ATOM      2  C   UNL     1       6.499   3.969  16.496  0.00  0.00    +0.000 A 
ATOM      3  C   UNL     1       5.960   4.053  17.785  0.00  0.00    +0.000 A 
ATOM      4  C   UNL     1       5.015   5.057  18.106  0.00  0.00    +0.000 A 
ATOM      5  C   UNL     1       4.625   5.994  17.149  0.00  0.00    +0.000 A 
ATOM      6  C   UNL     1       5.184   5.896  15.863  0.00  0.00    +0.000 A 
ATOM      7  N   UNL     1       3.675   6.991  17.419  0.00  0.00    +0.000 NA
ATOM      8  C   UNL     1       2.985   7.006  18.546  0.00  0.00    +0.000 C 
ATOM      9  N   UNL     1       3.233   6.051  19.539  0.00  0.00    +0.000 N 
ATOM     10  C   UNL     1       4.446   5.197  19.484  0.00  0.00    +0.000 C 
ENDROOT
BRANCH   1  12
ATOM     11  N   UNL     1       6.292   3.647  13.425  0.00  0.00    +0.000 N 
ATOM     12  C   UNL     1       6.684   4.759  14.148  0.00  0.00    +0.000 C 
ATOM     13  O   UNL     1       7.451   5.613  13.711  0.00  0.00    +0.000 OA
ATOM     14  H   UNL     1       5.744   2.928  13.875  0.00  0.00    +0.000 HD
BRANCH  11  15
ATOM     15  C   UNL     1       6.627   3.437  12.032  0.00  0.00    +0.000 C 
BRANCH  15  17
ATOM     16  C   UNL     1       4.246   3.140  11.255  0.00  0.00    +0.000 C 
ATOM     17  C   UNL     1       5.498   2.683  11.398  0.00  0.00    +0.000 C 
ENDBRANCH  15  17
ENDBRANCH  11  15
ENDBRANCH   1  12
BRANCH   8  18
ATOM     18  C   UNL     1       1.820   8.144  18.482  0.00  0.00    +0.000 C 
BRANCH  18  19
ATOM     19  C   UNL     1       0.799   8.813  19.481  0.00  0.00    +0.000 C 
ATOM     20  C   UNL     1       1.320   9.277  20.851  0.00  0.00    +0.000 C 
BRANCH  19  21
ATOM     21  C   UNL     1       0.103  10.090  18.881  0.00  0.00    +0.000 A 
ATOM     22  C   UNL     1      -1.015   9.963  18.030  0.00  0.00    +0.000 A 
ATOM     23  C   UNL     1      -1.710  11.089  17.550  0.00  0.00    +0.000 A 
ATOM     24  C   UNL     1      -1.313  12.374  17.917  0.00  0.00    +0.000 A 
ATOM     25  C   UNL     1      -0.222  12.522  18.781  0.00  0.00    +0.000 A 
ATOM     26  C   UNL     1       0.470  11.401  19.254  0.00  0.00    +0.000 A 
ENDBRANCH  19  21
ENDBRANCH  18  19
ENDBRANCH   8  18
BRANCH   9  27
ATOM     27  C   UNL     1       2.536   5.936  20.821  0.00  0.00    +0.000 C 
BRANCH  27  28
ATOM     28  C   UNL     1       1.479   4.820  20.801  0.00  0.00    +0.000 C 
ATOM     29  C   UNL     1       0.969   4.424  19.405  0.00  0.00    +0.000 C 
ATOM     30  C   UNL     1       1.664   3.281  18.669  0.00  0.00    +0.000 C 
ATOM     31  C   UNL     1       2.432   2.253  19.487  0.00  0.00    +0.000 C 
ATOM     32  C   UNL     1       2.897   2.673  20.871  0.00  0.00    +0.000 C 
ATOM     33  C   UNL     1       1.967   3.620  21.612  0.00  0.00    +0.000 C 
ENDBRANCH  27  28
ENDBRANCH   9  27
TORSDOF 8
ENDMDL
MODEL 8
REMARK VINA RESULT:      -8.4      2.804      7.362
REMARK  Name = 
REMARK  9 active torsions:
REMARK  status: ('A' for Active; 'I' for Inactive)
REMARK    1  A    between atoms: C_2  and  C_3
REMARK    2  A    between atoms: C_3  and  N_4
REMARK    3  A    between atoms: C_5  and  C_7
REMARK    4  A    between atoms: C_14  and  C_15
REMARK    5  A    between atoms: C_15  and  C_16
REMARK    6  A    between atoms: C_16  and  C_17
REMARK    7  A    between atoms: C_16  and  C_18
REMARK    8  A    between atoms: N_24  and  C_25
REMARK    9  A    between atoms: C_25  and  C_26
REMARK                            x       y       z     vdW  Elec       q    Type
REMARK                         _______ _______ _______ _____ _____    ______ ____
ROOT
ATOM      1  C   UNL     1       0.944   9.381  19.386  0.00  0.00    +0.000 A 
ATOM      2  C   UNL     1       0.883   8.983  20.718  0.00  0.00    +0.000 A 
ATOM      3  C   UNL     1       1.429   7.753  21.102  0.00  0.00    +0.000 A 
ATOM      4  C   UNL     1       2.047   6.910  20.147  0.00  0.00    +0.000 A 
ATOM      5  C   UNL     1       2.099   7.282  18.804  0.00  0.00    +0.000 A 
ATOM      6  C   UNL     1       1.538   8.518  18.439  0.00  0.00    +0.000 A 
ATOM      7  N   UNL     1       2.721   6.486  17.829  0.00  0.00    +0.000 NA
ATOM      8  C   UNL     1       3.425   5.416  18.152  0.00  0.00    +0.000 C 
ATOM      9  N   UNL     1       3.514   5.006  19.487  0.00  0.00    +0.000 N 
ATOM     10  C   UNL     1       2.608   5.572  20.517  0.00  0.00    +0.000 C 
ENDROOT
BRANCH   1  12
ATOM     11  N   UNL     1      -0.597  10.687  18.017  0.00  0.00    +0.000 N 
ATOM     12  C   UNL     1       0.369  10.708  19.006  0.00  0.00    +0.000 C 
ATOM     13  O   UNL     1       0.745  11.736  19.562  0.00  0.00    +0.000 OA
ATOM     14  H   UNL     1      -0.788   9.826  17.525  0.00  0.00    +0.000 HD
BRANCH  11  15
ATOM     15  C   UNL     1      -1.369  11.848  17.625  0.00  0.00    +0.000 C 
BRANCH  15  17
ATOM     16  C   UNL     1      -3.251  10.171  17.641  0.00  0.00    +0.000 C 
ATOM     17  C   UNL     1      -2.800  11.425  17.497  0.00  0.00    +0.000 C 
ENDBRANCH  15  17
ENDBRANCH  11  15
ENDBRANCH   1  12
BRANCH   8  18
ATOM     18  C   UNL     1       4.196   4.828  16.842  0.00  0.00    +0.000 C 
BRANCH  18  19
ATOM     19  C   UNL     1       5.680   4.744  16.313  0.00  0.00    +0.000 C 
ATOM     20  C   UNL     1       5.956   5.134  14.852  0.00  0.00    +0.000 C 
BRANCH  19  21
ATOM     21  C   UNL     1       6.676   5.636  17.144  0.00  0.00    +0.000 A 
ATOM     22  C   UNL     1       6.896   6.984  16.790  0.00  0.00    +0.000 A 
ATOM     23  C   UNL     1       7.711   7.828  17.566  0.00  0.00    +0.000 A 
ATOM     24  C   UNL     1       8.321   7.351  18.726  0.00  0.00    +0.000 A 
ATOM     25  C   UNL     1       8.095   6.024  19.109  0.00  0.00    +0.000 A 
ATOM     26  C   UNL     1       7.286   5.185  18.334  0.00  0.00    +0.000 A 
ENDBRANCH  19  21
ENDBRANCH  18  19
ENDBRANCH   8  18
BRANCH   9  27
ATOM     27  C   UNL     1       4.269   3.857  19.990  0.00  0.00    +0.000 C 
BRANCH  27  28
ATOM     28  C   UNL     1       3.364   2.639  20.240  0.00  0.00    +0.000 C 
ATOM     29  C   UNL     1       1.986   2.961  20.843  0.00  0.00    +0.000 C 
ATOM     30  C   UNL     1       0.808   3.185  19.897  0.00  0.00    +0.000 C 
ATOM     31  C   UNL     1       0.875   2.586  18.501  0.00  0.00    +0.000 C 
ATOM     32  C   UNL     1       2.253   2.259  17.950  0.00  0.00    +0.000 C 
ATOM     33  C   UNL     1       3.270   1.786  18.976  0.00  0.00    +0.000 C 
ENDBRANCH  27  28
ENDBRANCH   9  27
TORSDOF 8
ENDMDL
MODEL 9
REMARK VINA RESULT:      -8.4      3.249      9.087
REMARK  Name = 
REMARK  9 active torsions:
REMARK  status: ('A' for Active; 'I' for Inactive)
REMARK    1  A    between atoms: C_2  and  C_3
REMARK    2  A    between atoms: C_3  and  N_4
REMARK    3  A    between atoms: C_5  and  C_7
REMARK    4  A    between atoms: C_14  and  C_15
REMARK    5  A    between atoms: C_15  and  C_16
REMARK    6  A    between atoms: C_16  and  C_17
REMARK    7  A    between atoms: C_16  and  C_18
REMARK    8  A    between atoms: N_24  and  C_25
REMARK    9  A    between atoms: C_25  and  C_26
REMARK                            x       y       z     vdW  Elec       q    Type
REMARK                         _______ _______ _______ _____ _____    ______ ____
ROOT
ATOM      1  C   UNL     1      -0.299  11.105  20.111  0.00  0.00    +0.000 A 
ATOM      2  C   UNL     1       0.048  11.466  18.813  0.00  0.00    +0.000 A 
ATOM      3  C   UNL     1       0.913  10.651  18.073  0.00  0.00    +0.000 A 
ATOM      4  C   UNL     1       1.434   9.459  18.632  0.00  0.00    +0.000 A 
ATOM      5  C   UNL     1       1.113   9.092  19.938  0.00  0.00    +0.000 A 
ATOM      6  C   UNL     1       0.250   9.928  20.666  0.00  0.00    +0.000 A 
ATOM      7  N   UNL     1       1.590   7.908  20.523  0.00  0.00    +0.000 NA
ATOM      8  C   UNL     1       2.244   7.000  19.819  0.00  0.00    +0.000 C 
ATOM      9  N   UNL     1       2.538   7.230  18.470  0.00  0.00    +0.000 N 
ATOM     10  C   UNL     1       2.388   8.584  17.881  0.00  0.00    +0.000 C 
ENDROOT
BRANCH   1  12
ATOM     11  N   UNL     1      -0.879  12.263  22.179  0.00  0.00    +0.000 N 
ATOM     12  C   UNL     1      -1.238  11.984  20.873  0.00  0.00    +0.000 C 
ATOM     13  O   UNL     1      -2.255  12.424  20.343  0.00  0.00    +0.000 OA
ATOM     14  H   UNL     1      -0.089  11.788  22.591  0.00  0.00    +0.000 HD
BRANCH  11  15
ATOM     15  C   UNL     1      -1.582  13.211  23.020  0.00  0.00    +0.000 C 
BRANCH  15  17
ATOM     16  C   UNL     1      -3.984  12.693  23.587  0.00  0.00    +0.000 C 
ATOM     17  C   UNL     1      -2.670  12.470  23.735  0.00  0.00    +0.000 C 
ENDBRANCH  15  17
ENDBRANCH  11  15
ENDBRANCH   1  12
BRANCH   8  18
ATOM     18  C   UNL     1       2.478   5.655  20.708  0.00  0.00    +0.000 C 
BRANCH  18  19
ATOM     19  C   UNL     1       1.936   4.173  20.731  0.00  0.00    +0.000 C 
ATOM     20  C   UNL     1       0.458   3.934  20.384  0.00  0.00    +0.000 C 
BRANCH  19  21
ATOM     21  C   UNL     1       2.720   3.221  19.753  0.00  0.00    +0.000 A 
ATOM     22  C   UNL     1       3.800   2.445  20.223  0.00  0.00    +0.000 A 
ATOM     23  C   UNL     1       4.461   1.520  19.394  0.00  0.00    +0.000 A 
ATOM     24  C   UNL     1       4.052   1.337  18.073  0.00  0.00    +0.000 A 
ATOM     25  C   UNL     1       2.966   2.078  17.594  0.00  0.00    +0.000 A 
ATOM     26  C   UNL     1       2.312   3.000  18.421  0.00  0.00    +0.000 A 
ENDBRANCH  19  21
ENDBRANCH  18  19
ENDBRANCH   8  18
BRANCH   9  27
ATOM     27  C   UNL     1       3.235   6.311  17.569  0.00  0.00    +0.000 C 
BRANCH  27  28
ATOM     28  C   UNL     1       4.744   6.600  17.508  0.00  0.00    +0.000 C 
ATOM     29  C   UNL     1       5.612   5.758  18.458  0.00  0.00    +0.000 C 
ATOM     30  C   UNL     1       6.210   4.452  17.940  0.00  0.00    +0.000 C 
ATOM     31  C   UNL     1       6.393   4.284  16.440  0.00  0.00    +0.000 C 
ATOM     32  C   UNL     1       5.535   5.151  15.534  0.00  0.00    +0.000 C 
ATOM     33  C   UNL     1       5.231   6.544  16.060  0.00  0.00    +0.000 C 
ENDBRANCH  27  28
ENDBRANCH   9  27
TORSDOF 8
ENDMDL
