MODEL 1
REMARK VINA RESULT:     -10.0      0.000      0.000
REMARK  Name = 
REMARK  9 active torsions:
REMARK  status: ('A' for Active; 'I' for Inactive)
REMARK    1  A    between atoms: C_1  and  C_2
REMARK    2  A    between atoms: C_6  and  C_7
REMARK    3  A    between atoms: C_9  and  C_10
REMARK    4  A    between atoms: C_10  and  N_11
REMARK    5  A    between atoms: C_12  and  S_13
REMARK    6  A    between atoms: S_13  and  C_14
REMARK    7  A    between atoms: C_14  and  C_15
REMARK    8  A    between atoms: C_19  and  C_20
REMARK    9  A    between atoms: C_32  and  C_33
REMARK                            x       y       z     vdW  Elec       q    Type
REMARK                         _______ _______ _______ _____ _____    ______ ____
ROOT
ATOM      1  N   UNL     1       3.902   5.177  18.652  0.00  0.00    +0.000 N 
ATOM      2  C   UNL     1       2.937   6.094  18.312  0.00  0.00    +0.000 A 
ATOM      3  N   UNL     1       1.746   5.547  18.236  0.00  0.00    +0.000 NA
ATOM      4  C   UNL     1       1.942   4.212  18.509  0.00  0.00    +0.000 A 
ATOM      5  C   UNL     1       1.013   3.176  18.602  0.00  0.00    +0.000 A 
ATOM      6  C   UNL     1       1.530   1.929  18.914  0.00  0.00    +0.000 A 
ATOM      7  N   UNL     1       2.842   1.661  19.110  0.00  0.00    +0.000 NA
ATOM      8  C   UNL     1       3.745   2.663  19.015  0.00  0.00    +0.000 A 
ATOM      9  C   UNL     1       3.287   3.943  18.730  0.00  0.00    +0.000 A 
ENDROOT
BRANCH   1  10
ATOM     10  C   UNL     1       5.304   5.431  18.929  0.00  0.00    +0.000 C 
BRANCH  10  13
ATOM     11  C   UNL     1       6.684   5.310  15.666  0.00  0.00    +0.000 A 
ATOM     12  N   UNL     1       5.834   4.886  16.580  0.00  0.00    +0.000 NA
ATOM     13  C   UNL     1       6.117   5.648  17.699  0.00  0.00    +0.000 A 
ATOM     14  C   UNL     1       7.157   6.513  17.406  0.00  0.00    +0.000 A 
ATOM     15  C   UNL     1       7.930   7.558  18.104  0.00  0.00    +0.000 C 
ATOM     16  O   UNL     1       7.523   6.294  16.108  0.00  0.00    +0.000 OA
BRANCH  11  22
ATOM     17  C   UNL     1       5.299   2.436  11.817  0.00  0.00    +0.000 C 
ATOM     18  C   UNL     1       6.184   3.508  12.379  0.00  0.00    +0.000 A 
ATOM     19  C   UNL     1       7.170   4.120  11.599  0.00  0.00    +0.000 A 
ATOM     20  C   UNL     1       7.980   5.117  12.143  0.00  0.00    +0.000 A 
ATOM     21  C   UNL     1       7.812   5.508  13.472  0.00  0.00    +0.000 A 
ATOM     22  C   UNL     1       6.833   4.905  14.274  0.00  0.00    +0.000 A 
ATOM     23  C   UNL     1       6.024   3.907  13.713  0.00  0.00    +0.000 A 
ENDBRANCH  11  22
ENDBRANCH  10  13
ENDBRANCH   1  10
BRANCH   2  24
ATOM     24  S   UNL     1       3.288   7.774  18.068  0.00  0.00    +0.000 S 
BRANCH  24  25
ATOM     25  C   UNL     1       1.636   8.464  17.771  0.00  0.00    +0.000 C 
BRANCH  25  26
ATOM     26  C   UNL     1       1.302   9.516  18.806  0.00  0.00    +0.000 A 
ATOM     27  C   UNL     1       1.499  10.877  18.529  0.00  0.00    +0.000 A 
ATOM     28  C   UNL     1       1.219  11.846  19.495  0.00  0.00    +0.000 A 
ATOM     29  C   UNL     1       0.749  11.467  20.752  0.00  0.00    +0.000 A 
ATOM     30  C   UNL     1       0.556  10.113  21.060  0.00  0.00    +0.000 A 
ATOM     31  C   UNL     1       0.834   9.145  20.077  0.00  0.00    +0.000 A 
BRANCH  30  32
ATOM     32  C   UNL     1       0.067   9.684  22.422  0.00  0.00    +0.000 C 
ATOM     33  F   UNL     1       1.068   9.337  23.279  0.00  0.00    +0.000 F 
ATOM     34  F   UNL     1      -0.641  10.661  23.052  0.00  0.00    +0.000 F 
ATOM     35  F   UNL     1      -0.761   8.603  22.361  0.00  0.00    +0.000 F 
ENDBRANCH  30  32
ENDBRANCH  25  26
ENDBRANCH  24  25
ENDBRANCH   2  24
TORSDOF 7
ENDMDL
MODEL 2
REMARK VINA RESULT:      -9.5      0.901      1.178
REMARK  Name = 
REMARK  9 active torsions:
REMARK  status: ('A' for Active; 'I' for Inactive)
REMARK    1  A    between atoms: C_1  and  C_2
REMARK    2  A    between atoms: C_6  and  C_7
REMARK    3  A    between atoms: C_9  and  C_10
REMARK    4  A    between atoms: C_10  and  N_11
REMARK    5  A    between atoms: C_12  and  S_13
REMARK    6  A    between atoms: S_13  and  C_14
REMARK    7  A    between atoms: C_14  and  C_15
REMARK    8  A    between atoms: C_19  and  C_20
REMARK    9  A    between atoms: C_32  and  C_33
REMARK                            x       y       z     vdW  Elec       q    Type
REMARK                         _______ _______ _______ _____ _____    ______ ____
ROOT
ATOM      1  N   UNL     1       3.750   5.088  18.636  0.00  0.00    +0.000 N 
ATOM      2  C   UNL     1       2.638   5.844  18.357  0.00  0.00    +0.000 A 
ATOM      3  N   UNL     1       1.563   5.102  18.220  0.00  0.00    +0.000 NA
ATOM      4  C   UNL     1       1.993   3.806  18.389  0.00  0.00    +0.000 A 
ATOM      5  C   UNL     1       1.263   2.618  18.386  0.00  0.00    +0.000 A 
ATOM      6  C   UNL     1       1.994   1.461  18.605  0.00  0.00    +0.000 A 
ATOM      7  N   UNL     1       3.333   1.414  18.797  0.00  0.00    +0.000 NA
ATOM      8  C   UNL     1       4.044   2.565  18.795  0.00  0.00    +0.000 A 
ATOM      9  C   UNL     1       3.365   3.763  18.606  0.00  0.00    +0.000 A 
ENDROOT
BRANCH   1  10
ATOM     10  C   UNL     1       5.085   5.563  18.953  0.00  0.00    +0.000 C 
BRANCH  10  13
ATOM     11  C   UNL     1       6.560   5.312  15.739  0.00  0.00    +0.000 A 
ATOM     12  N   UNL     1       5.633   4.982  16.616  0.00  0.00    +0.000 NA
ATOM     13  C   UNL     1       5.962   5.695  17.755  0.00  0.00    +0.000 A 
ATOM     14  C   UNL     1       7.106   6.435  17.509  0.00  0.00    +0.000 A 
ATOM     15  C   UNL     1       7.970   7.376  18.248  0.00  0.00    +0.000 C 
ATOM     16  O   UNL     1       7.490   6.187  16.223  0.00  0.00    +0.000 OA
BRANCH  11  22
ATOM     17  C   UNL     1       5.084   2.538  11.850  0.00  0.00    +0.000 C 
ATOM     18  C   UNL     1       6.018   3.555  12.433  0.00  0.00    +0.000 A 
ATOM     19  C   UNL     1       7.051   4.113  11.675  0.00  0.00    +0.000 A 
ATOM     20  C   UNL     1       7.907   5.059  12.239  0.00  0.00    +0.000 A 
ATOM     21  C   UNL     1       7.737   5.454  13.567  0.00  0.00    +0.000 A 
ATOM     22  C   UNL     1       6.711   4.905  14.348  0.00  0.00    +0.000 A 
ATOM     23  C   UNL     1       5.856   3.957  13.766  0.00  0.00    +0.000 A 
ENDBRANCH  11  22
ENDBRANCH  10  13
ENDBRANCH   1  10
BRANCH   2  24
ATOM     24  S   UNL     1       2.684   7.574  18.253  0.00  0.00    +0.000 S 
BRANCH  24  25
ATOM     25  C   UNL     1       2.104   8.065  19.901  0.00  0.00    +0.000 C 
BRANCH  25  26
ATOM     26  C   UNL     1       1.061   9.157  19.797  0.00  0.00    +0.000 A 
ATOM     27  C   UNL     1       0.689   9.673  18.546  0.00  0.00    +0.000 A 
ATOM     28  C   UNL     1      -0.251  10.700  18.453  0.00  0.00    +0.000 A 
ATOM     29  C   UNL     1      -0.825  11.233  19.607  0.00  0.00    +0.000 A 
ATOM     30  C   UNL     1      -0.461  10.746  20.871  0.00  0.00    +0.000 A 
ATOM     31  C   UNL     1       0.482   9.705  20.954  0.00  0.00    +0.000 A 
BRANCH  30  32
ATOM     32  C   UNL     1      -1.055  11.324  22.132  0.00  0.00    +0.000 C 
ATOM     33  F   UNL     1      -1.161  10.426  23.150  0.00  0.00    +0.000 F 
ATOM     34  F   UNL     1      -0.321  12.361  22.624  0.00  0.00    +0.000 F 
ATOM     35  F   UNL     1      -2.311  11.816  21.938  0.00  0.00    +0.000 F 
ENDBRANCH  30  32
ENDBRANCH  25  26
ENDBRANCH  24  25
ENDBRANCH   2  24
TORSDOF 7
ENDMDL
MODEL 3
REMARK VINA RESULT:      -9.4      1.830      2.268
REMARK  Name = 
REMARK  9 active torsions:
REMARK  status: ('A' for Active; 'I' for Inactive)
REMARK    1  A    between atoms: C_1  and  C_2
REMARK    2  A    between atoms: C_6  and  C_7
REMARK    3  A    between atoms: C_9  and  C_10
REMARK    4  A    between atoms: C_10  and  N_11
REMARK    5  A    between atoms: C_12  and  S_13
REMARK    6  A    between atoms: S_13  and  C_14
REMARK    7  A    between atoms: C_14  and  C_15
REMARK    8  A    between atoms: C_19  and  C_20
REMARK    9  A    between atoms: C_32  and  C_33
REMARK                            x       y       z     vdW  Elec       q    Type
REMARK                         _______ _______ _______ _____ _____    ______ ____
ROOT
ATOM      1  N   UNL     1       3.948   5.045  18.680  0.00  0.00    +0.000 N 
ATOM      2  C   UNL     1       2.993   5.970  18.339  0.00  0.00    +0.000 A 
ATOM      3  N   UNL     1       1.793   5.438  18.282  0.00  0.00    +0.000 NA
ATOM      4  C   UNL     1       1.975   4.105  18.571  0.00  0.00    +0.000 A 
ATOM      5  C   UNL     1       1.033   3.083  18.688  0.00  0.00    +0.000 A 
ATOM      6  C   UNL     1       1.537   1.833  19.011  0.00  0.00    +0.000 A 
ATOM      7  N   UNL     1       2.847   1.549  19.196  0.00  0.00    +0.000 NA
ATOM      8  C   UNL     1       3.763   2.538  19.079  0.00  0.00    +0.000 A 
ATOM      9  C   UNL     1       3.318   3.820  18.781  0.00  0.00    +0.000 A 
ENDROOT
BRANCH   1  10
ATOM     10  C   UNL     1       5.357   5.283  18.939  0.00  0.00    +0.000 C 
BRANCH  10  13
ATOM     11  C   UNL     1       6.691   5.227  15.655  0.00  0.00    +0.000 A 
ATOM     12  N   UNL     1       5.859   4.780  16.574  0.00  0.00    +0.000 NA
ATOM     13  C   UNL     1       6.150   5.529  17.701  0.00  0.00    +0.000 A 
ATOM     14  C   UNL     1       7.175   6.410  17.405  0.00  0.00    +0.000 A 
ATOM     15  C   UNL     1       7.945   7.455  18.108  0.00  0.00    +0.000 C 
ATOM     16  O   UNL     1       7.524   6.215  16.100  0.00  0.00    +0.000 OA
BRANCH  11  22
ATOM     17  C   UNL     1       5.262   2.417  11.775  0.00  0.00    +0.000 C 
ATOM     18  C   UNL     1       6.154   3.479  12.345  0.00  0.00    +0.000 A 
ATOM     19  C   UNL     1       7.132   4.103  11.564  0.00  0.00    +0.000 A 
ATOM     20  C   UNL     1       7.949   5.090  12.116  0.00  0.00    +0.000 A 
ATOM     21  C   UNL     1       7.796   5.459  13.453  0.00  0.00    +0.000 A 
ATOM     22  C   UNL     1       6.825   4.845  14.256  0.00  0.00    +0.000 A 
ATOM     23  C   UNL     1       6.008   3.857  13.687  0.00  0.00    +0.000 A 
ENDBRANCH  11  22
ENDBRANCH  10  13
ENDBRANCH   1  10
BRANCH   2  24
ATOM     24  S   UNL     1       3.363   7.642  18.068  0.00  0.00    +0.000 S 
BRANCH  24  25
ATOM     25  C   UNL     1       1.719   8.345  17.757  0.00  0.00    +0.000 C 
BRANCH  25  26
ATOM     26  C   UNL     1       1.432   9.479  18.718  0.00  0.00    +0.000 A 
ATOM     27  C   UNL     1       0.881   9.222  19.981  0.00  0.00    +0.000 A 
ATOM     28  C   UNL     1       0.589  10.269  20.856  0.00  0.00    +0.000 A 
ATOM     29  C   UNL     1       0.834  11.589  20.475  0.00  0.00    +0.000 A 
ATOM     30  C   UNL     1       1.371  11.876  19.212  0.00  0.00    +0.000 A 
ATOM     31  C   UNL     1       1.669  10.812  18.342  0.00  0.00    +0.000 A 
BRANCH  30  32
ATOM     32  C   UNL     1       1.623  13.298  18.775  0.00  0.00    +0.000 C 
ATOM     33  F   UNL     1       2.396  14.009  19.642  0.00  0.00    +0.000 F 
ATOM     34  F   UNL     1       2.255  13.367  17.570  0.00  0.00    +0.000 F 
ATOM     35  F   UNL     1       0.471  14.012  18.634  0.00  0.00    +0.000 F 
ENDBRANCH  30  32
ENDBRANCH  25  26
ENDBRANCH  24  25
ENDBRANCH   2  24
TORSDOF 7
ENDMDL
MODEL 4
REMARK VINA RESULT:      -9.2      1.382      1.714
REMARK  Name = 
REMARK  9 active torsions:
REMARK  status: ('A' for Active; 'I' for Inactive)
REMARK    1  A    between atoms: C_1  and  C_2
REMARK    2  A    between atoms: C_6  and  C_7
REMARK    3  A    between atoms: C_9  and  C_10
REMARK    4  A    between atoms: C_10  and  N_11
REMARK    5  A    between atoms: C_12  and  S_13
REMARK    6  A    between atoms: S_13  and  C_14
REMARK    7  A    between atoms: C_14  and  C_15
REMARK    8  A    between atoms: C_19  and  C_20
REMARK    9  A    between atoms: C_32  and  C_33
REMARK                            x       y       z     vdW  Elec       q    Type
REMARK                         _______ _______ _______ _____ _____    ______ ____
ROOT
ATOM      1  N   UNL     1       3.924   5.195  18.620  0.00  0.00    +0.000 N 
ATOM      2  C   UNL     1       2.913   6.063  18.286  0.00  0.00    +0.000 A 
ATOM      3  N   UNL     1       1.752   5.455  18.204  0.00  0.00    +0.000 NA
ATOM      4  C   UNL     1       2.017   4.131  18.469  0.00  0.00    +0.000 A 
ATOM      5  C   UNL     1       1.143   3.047  18.554  0.00  0.00    +0.000 A 
ATOM      6  C   UNL     1       1.725   1.826  18.859  0.00  0.00    +0.000 A 
ATOM      7  N   UNL     1       3.049   1.626  19.054  0.00  0.00    +0.000 NA
ATOM      8  C   UNL     1       3.899   2.674  18.966  0.00  0.00    +0.000 A 
ATOM      9  C   UNL     1       3.374   3.930  18.689  0.00  0.00    +0.000 A 
ENDROOT
BRANCH   1  10
ATOM     10  C   UNL     1       5.311   5.520  18.900  0.00  0.00    +0.000 C 
BRANCH  10  13
ATOM     11  C   UNL     1       6.696   5.342  15.642  0.00  0.00    +0.000 A 
ATOM     12  N   UNL     1       5.836   4.943  16.558  0.00  0.00    +0.000 NA
ATOM     13  C   UNL     1       6.131   5.710  17.670  0.00  0.00    +0.000 A 
ATOM     14  C   UNL     1       7.188   6.552  17.371  0.00  0.00    +0.000 A 
ATOM     15  C   UNL     1       7.979   7.590  18.061  0.00  0.00    +0.000 C 
ATOM     16  O   UNL     1       7.552   6.314  16.077  0.00  0.00    +0.000 OA
BRANCH  11  22
ATOM     17  C   UNL     1       5.320   2.401  11.840  0.00  0.00    +0.000 C 
ATOM     18  C   UNL     1       6.196   3.491  12.382  0.00  0.00    +0.000 A 
ATOM     19  C   UNL     1       7.169   4.105  11.587  0.00  0.00    +0.000 A 
ATOM     20  C   UNL     1       7.971   5.118  12.113  0.00  0.00    +0.000 A 
ATOM     21  C   UNL     1       7.808   5.524  13.439  0.00  0.00    +0.000 A 
ATOM     22  C   UNL     1       6.841   4.920  14.255  0.00  0.00    +0.000 A 
ATOM     23  C   UNL     1       6.040   3.906  13.712  0.00  0.00    +0.000 A 
ENDBRANCH  11  22
ENDBRANCH  10  13
ENDBRANCH   1  10
BRANCH   2  24
ATOM     24  S   UNL     1       3.176   7.760  18.053  0.00  0.00    +0.000 S 
BRANCH  24  25
ATOM     25  C   UNL     1       1.513   8.342  17.616  0.00  0.00    +0.000 C 
BRANCH  25  26
ATOM     26  C   UNL     1       1.315   9.776  18.057  0.00  0.00    +0.000 A 
ATOM     27  C   UNL     1       2.363  10.704  17.962  0.00  0.00    +0.000 A 
ATOM     28  C   UNL     1       2.190  12.019  18.396  0.00  0.00    +0.000 A 
ATOM     29  C   UNL     1       0.970  12.422  18.941  0.00  0.00    +0.000 A 
ATOM     30  C   UNL     1      -0.089  11.512  19.061  0.00  0.00    +0.000 A 
ATOM     31  C   UNL     1       0.094  10.191  18.613  0.00  0.00    +0.000 A 
BRANCH  30  32
ATOM     32  C   UNL     1      -1.409  11.924  19.667  0.00  0.00    +0.000 C 
ATOM     33  F   UNL     1      -2.468  11.191  19.225  0.00  0.00    +0.000 F 
ATOM     34  F   UNL     1      -1.416  11.808  21.024  0.00  0.00    +0.000 F 
ATOM     35  F   UNL     1      -1.720  13.224  19.402  0.00  0.00    +0.000 F 
ENDBRANCH  30  32
ENDBRANCH  25  26
ENDBRANCH  24  25
ENDBRANCH   2  24
TORSDOF 7
ENDMDL
MODEL 5
REMARK VINA RESULT:      -9.2      1.857      2.219
REMARK  Name = 
REMARK  9 active torsions:
REMARK  status: ('A' for Active; 'I' for Inactive)
REMARK    1  A    between atoms: C_1  and  C_2
REMARK    2  A    between atoms: C_6  and  C_7
REMARK    3  A    between atoms: C_9  and  C_10
REMARK    4  A    between atoms: C_10  and  N_11
REMARK    5  A    between atoms: C_12  and  S_13
REMARK    6  A    between atoms: S_13  and  C_14
REMARK    7  A    between atoms: C_14  and  C_15
REMARK    8  A    between atoms: C_19  and  C_20
REMARK    9  A    between atoms: C_32  and  C_33
REMARK                            x       y       z     vdW  Elec       q    Type
REMARK                         _______ _______ _______ _____ _____    ______ ____
ROOT
ATOM      1  N   UNL     1       3.657   5.250  18.709  0.00  0.00    +0.000 N 
ATOM      2  C   UNL     1       2.481   5.923  18.486  0.00  0.00    +0.000 A 
ATOM      3  N   UNL     1       1.464   5.102  18.353  0.00  0.00    +0.000 NA
ATOM      4  C   UNL     1       2.001   3.840  18.465  0.00  0.00    +0.000 A 
ATOM      5  C   UNL     1       1.368   2.597  18.442  0.00  0.00    +0.000 A 
ATOM      6  C   UNL     1       2.194   1.496  18.601  0.00  0.00    +0.000 A 
ATOM      7  N   UNL     1       3.537   1.551  18.754  0.00  0.00    +0.000 NA
ATOM      8  C   UNL     1       4.154   2.755  18.773  0.00  0.00    +0.000 A 
ATOM      9  C   UNL     1       3.378   3.899  18.644  0.00  0.00    +0.000 A 
ENDROOT
BRANCH   1  10
ATOM     10  C   UNL     1       4.959   5.820  19.005  0.00  0.00    +0.000 C 
BRANCH  10  13
ATOM     11  C   UNL     1       6.467   5.419  15.821  0.00  0.00    +0.000 A 
ATOM     12  N   UNL     1       5.513   5.155  16.692  0.00  0.00    +0.000 NA
ATOM     13  C   UNL     1       5.859   5.881  17.818  0.00  0.00    +0.000 A 
ATOM     14  C   UNL     1       7.039   6.561  17.572  0.00  0.00    +0.000 A 
ATOM     15  C   UNL     1       7.935   7.480  18.300  0.00  0.00    +0.000 C 
ATOM     16  O   UNL     1       7.430   6.262  16.298  0.00  0.00    +0.000 OA
BRANCH  11  22
ATOM     17  C   UNL     1       4.779   2.819  11.898  0.00  0.00    +0.000 C 
ATOM     18  C   UNL     1       5.824   3.701  12.513  0.00  0.00    +0.000 A 
ATOM     19  C   UNL     1       6.960   4.092  11.798  0.00  0.00    +0.000 A 
ATOM     20  C   UNL     1       7.917   4.914  12.390  0.00  0.00    +0.000 A 
ATOM     21  C   UNL     1       7.748   5.352  13.705  0.00  0.00    +0.000 A 
ATOM     22  C   UNL     1       6.619   4.970  14.443  0.00  0.00    +0.000 A 
ATOM     23  C   UNL     1       5.663   4.146  13.833  0.00  0.00    +0.000 A 
ENDBRANCH  11  22
ENDBRANCH  10  13
ENDBRANCH   1  10
BRANCH   2  24
ATOM     24  S   UNL     1       2.387   7.653  18.440  0.00  0.00    +0.000 S 
BRANCH  24  25
ATOM     25  C   UNL     1       2.039   8.057  20.175  0.00  0.00    +0.000 C 
BRANCH  25  26
ATOM     26  C   UNL     1       1.039   9.189  20.271  0.00  0.00    +0.000 A 
ATOM     27  C   UNL     1       0.862   9.885  21.475  0.00  0.00    +0.000 A 
ATOM     28  C   UNL     1      -0.081  10.910  21.571  0.00  0.00    +0.000 A 
ATOM     29  C   UNL     1      -0.867  11.244  20.468  0.00  0.00    +0.000 A 
ATOM     30  C   UNL     1      -0.721  10.555  19.256  0.00  0.00    +0.000 A 
ATOM     31  C   UNL     1       0.238   9.529  19.168  0.00  0.00    +0.000 A 
BRANCH  30  32
ATOM     32  C   UNL     1      -1.577  10.889  18.059  0.00  0.00    +0.000 C 
ATOM     33  F   UNL     1      -1.508   9.965  17.060  0.00  0.00    +0.000 F 
ATOM     34  F   UNL     1      -2.897  10.996  18.377  0.00  0.00    +0.000 F 
ATOM     35  F   UNL     1      -1.233  12.078  17.488  0.00  0.00    +0.000 F 
ENDBRANCH  30  32
ENDBRANCH  25  26
ENDBRANCH  24  25
ENDBRANCH   2  24
TORSDOF 7
ENDMDL
MODEL 6
REMARK VINA RESULT:      -8.9      1.269      1.655
REMARK  Name = 
REMARK  9 active torsions:
REMARK  status: ('A' for Active; 'I' for Inactive)
REMARK    1  A    between atoms: C_1  and  C_2
REMARK    2  A    between atoms: C_6  and  C_7
REMARK    3  A    between atoms: C_9  and  C_10
REMARK    4  A    between atoms: C_10  and  N_11
REMARK    5  A    between atoms: C_12  and  S_13
REMARK    6  A    between atoms: S_13  and  C_14
REMARK    7  A    between atoms: C_14  and  C_15
REMARK    8  A    between atoms: C_19  and  C_20
REMARK    9  A    between atoms: C_32  and  C_33
REMARK                            x       y       z     vdW  Elec       q    Type
REMARK                         _______ _______ _______ _____ _____    ______ ____
ROOT
ATOM      1  N   UNL     1       3.472   5.490  18.559  0.00  0.00    +0.000 N 
ATOM      2  C   UNL     1       2.334   6.168  18.194  0.00  0.00    +0.000 A 
ATOM      3  N   UNL     1       1.290   5.373  18.130  0.00  0.00    +0.000 NA
ATOM      4  C   UNL     1       1.769   4.120  18.437  0.00  0.00    +0.000 A 
ATOM      5  C   UNL     1       1.086   2.910  18.555  0.00  0.00    +0.000 A 
ATOM      6  C   UNL     1       1.859   1.812  18.899  0.00  0.00    +0.000 A 
ATOM      7  N   UNL     1       3.196   1.840  19.104  0.00  0.00    +0.000 NA
ATOM      8  C   UNL     1       3.861   3.011  18.985  0.00  0.00    +0.000 A 
ATOM      9  C   UNL     1       3.139   4.154  18.666  0.00  0.00    +0.000 A 
ENDROOT
BRANCH   1  10
ATOM     10  C   UNL     1       4.784   6.049  18.832  0.00  0.00    +0.000 C 
BRANCH  10  13
ATOM     11  C   UNL     1       6.533   5.109  15.895  0.00  0.00    +0.000 A 
ATOM     12  N   UNL     1       5.423   5.432  16.527  0.00  0.00    +0.000 NA
ATOM     13  C   UNL     1       5.816   5.639  17.838  0.00  0.00    +0.000 A 
ATOM     14  C   UNL     1       7.179   5.418  17.941  0.00  0.00    +0.000 A 
ATOM     15  C   UNL     1       8.208   5.458  18.997  0.00  0.00    +0.000 C 
ATOM     16  O   UNL     1       7.636   5.075  16.701  0.00  0.00    +0.000 OA
BRANCH  11  22
ATOM     17  C   UNL     1       5.359   2.535  11.773  0.00  0.00    +0.000 C 
ATOM     18  C   UNL     1       6.203   3.567  12.457  0.00  0.00    +0.000 A 
ATOM     19  C   UNL     1       7.214   4.250  11.773  0.00  0.00    +0.000 A 
ATOM     20  C   UNL     1       7.986   5.208  12.429  0.00  0.00    +0.000 A 
ATOM     21  C   UNL     1       7.755   5.491  13.777  0.00  0.00    +0.000 A 
ATOM     22  C   UNL     1       6.749   4.817  14.484  0.00  0.00    +0.000 A 
ATOM     23  C   UNL     1       5.979   3.859  13.810  0.00  0.00    +0.000 A 
ENDBRANCH  11  22
ENDBRANCH  10  13
ENDBRANCH   1  10
BRANCH   2  24
ATOM     24  S   UNL     1       2.314   7.877  17.908  0.00  0.00    +0.000 S 
BRANCH  24  25
ATOM     25  C   UNL     1       1.823   8.524  19.531  0.00  0.00    +0.000 C 
BRANCH  25  26
ATOM     26  C   UNL     1       0.679   9.505  19.392  0.00  0.00    +0.000 A 
ATOM     27  C   UNL     1       0.019   9.663  18.165  0.00  0.00    +0.000 A 
ATOM     28  C   UNL     1      -1.017  10.589  18.029  0.00  0.00    +0.000 A 
ATOM     29  C   UNL     1      -1.399  11.376  19.115  0.00  0.00    +0.000 A 
ATOM     30  C   UNL     1      -0.748  11.249  20.350  0.00  0.00    +0.000 A 
ATOM     31  C   UNL     1       0.290  10.307  20.478  0.00  0.00    +0.000 A 
BRANCH  30  32
ATOM     32  C   UNL     1      -1.134  12.107  21.530  0.00  0.00    +0.000 C 
ATOM     33  F   UNL     1      -1.703  13.295  21.181  0.00  0.00    +0.000 F 
ATOM     34  F   UNL     1      -2.030  11.491  22.349  0.00  0.00    +0.000 F 
ATOM     35  F   UNL     1      -0.066  12.423  22.316  0.00  0.00    +0.000 F 
ENDBRANCH  30  32
ENDBRANCH  25  26
ENDBRANCH  24  25
ENDBRANCH   2  24
TORSDOF 7
ENDMDL
MODEL 7
REMARK VINA RESULT:      -8.7      0.418      1.337
REMARK  Name = 
REMARK  9 active torsions:
REMARK  status: ('A' for Active; 'I' for Inactive)
REMARK    1  A    between atoms: C_1  and  C_2
REMARK    2  A    between atoms: C_6  and  C_7
REMARK    3  A    between atoms: C_9  and  C_10
REMARK    4  A    between atoms: C_10  and  N_11
REMARK    5  A    between atoms: C_12  and  S_13
REMARK    6  A    between atoms: S_13  and  C_14
REMARK    7  A    between atoms: C_14  and  C_15
REMARK    8  A    between atoms: C_19  and  C_20
REMARK    9  A    between atoms: C_32  and  C_33
REMARK                            x       y       z     vdW  Elec       q    Type
REMARK                         _______ _______ _______ _____ _____    ______ ____
ROOT
ATOM      1  N   UNL     1       3.726   5.272  18.818  0.00  0.00    +0.000 N 
ATOM      2  C   UNL     1       2.771   6.157  18.379  0.00  0.00    +0.000 A 
ATOM      3  N   UNL     1       1.595   5.587  18.253  0.00  0.00    +0.000 NA
ATOM      4  C   UNL     1       1.793   4.269  18.597  0.00  0.00    +0.000 A 
ATOM      5  C   UNL     1       0.874   3.222  18.678  0.00  0.00    +0.000 A 
ATOM      6  C   UNL     1       1.389   1.998  19.077  0.00  0.00    +0.000 A 
ATOM      7  N   UNL     1       2.690   1.761  19.364  0.00  0.00    +0.000 NA
ATOM      8  C   UNL     1       3.583   2.774  19.281  0.00  0.00    +0.000 A 
ATOM      9  C   UNL     1       3.125   4.032  18.912  0.00  0.00    +0.000 A 
ENDROOT
BRANCH   1  10
ATOM     10  C   UNL     1       5.104   5.562  19.169  0.00  0.00    +0.000 C 
BRANCH  10  13
ATOM     11  C   UNL     1       6.604   5.268  15.970  0.00  0.00    +0.000 A 
ATOM     12  N   UNL     1       5.643   4.989  16.828  0.00  0.00    +0.000 NA
ATOM     13  C   UNL     1       6.007   5.652  17.986  0.00  0.00    +0.000 A 
ATOM     14  C   UNL     1       7.206   6.311  17.772  0.00  0.00    +0.000 A 
ATOM     15  C   UNL     1       8.125   7.170  18.543  0.00  0.00    +0.000 C 
ATOM     16  O   UNL     1       7.590   6.061  16.486  0.00  0.00    +0.000 OA
BRANCH  11  22
ATOM     17  C   UNL     1       8.350   6.179  11.375  0.00  0.00    +0.000 C 
ATOM     18  C   UNL     1       7.578   5.303  12.316  0.00  0.00    +0.000 A 
ATOM     19  C   UNL     1       6.970   4.123  11.878  0.00  0.00    +0.000 A 
ATOM     20  C   UNL     1       6.259   3.323  12.772  0.00  0.00    +0.000 A 
ATOM     21  C   UNL     1       6.148   3.698  14.112  0.00  0.00    +0.000 A 
ATOM     22  C   UNL     1       6.746   4.879  14.573  0.00  0.00    +0.000 A 
ATOM     23  C   UNL     1       7.461   5.671  13.663  0.00  0.00    +0.000 A 
ENDBRANCH  11  22
ENDBRANCH  10  13
ENDBRANCH   1  10
BRANCH   2  24
ATOM     24  S   UNL     1       3.113   7.831  18.083  0.00  0.00    +0.000 S 
BRANCH  24  25
ATOM     25  C   UNL     1       1.448   8.521  17.863  0.00  0.00    +0.000 C 
BRANCH  25  26
ATOM     26  C   UNL     1       1.149   9.546  18.935  0.00  0.00    +0.000 A 
ATOM     27  C   UNL     1       1.436  10.903  18.726  0.00  0.00    +0.000 A 
ATOM     28  C   UNL     1       1.187  11.844  19.726  0.00  0.00    +0.000 A 
ATOM     29  C   UNL     1       0.658  11.441  20.952  0.00  0.00    +0.000 A 
ATOM     30  C   UNL     1       0.376  10.089  21.194  0.00  0.00    +0.000 A 
ATOM     31  C   UNL     1       0.623   9.150  20.176  0.00  0.00    +0.000 A 
BRANCH  30  32
ATOM     32  C   UNL     1      -0.177   9.632  22.522  0.00  0.00    +0.000 C 
ATOM     33  F   UNL     1      -0.871   8.462  22.453  0.00  0.00    +0.000 F 
ATOM     34  F   UNL     1       0.800   9.431  23.450  0.00  0.00    +0.000 F 
ATOM     35  F   UNL     1      -1.032  10.540  23.071  0.00  0.00    +0.000 F 
ENDBRANCH  30  32
ENDBRANCH  25  26
ENDBRANCH  24  25
ENDBRANCH   2  24
TORSDOF 7
ENDMDL
MODEL 8
REMARK VINA RESULT:      -8.7      4.612      7.666
REMARK  Name = 
REMARK  9 active torsions:
REMARK  status: ('A' for Active; 'I' for Inactive)
REMARK    1  A    between atoms: C_1  and  C_2
REMARK    2  A    between atoms: C_6  and  C_7
REMARK    3  A    between atoms: C_9  and  C_10
REMARK    4  A    between atoms: C_10  and  N_11
REMARK    5  A    between atoms: C_12  and  S_13
REMARK    6  A    between atoms: S_13  and  C_14
REMARK    7  A    between atoms: C_14  and  C_15
REMARK    8  A    between atoms: C_19  and  C_20
REMARK    9  A    between atoms: C_32  and  C_33
REMARK                            x       y       z     vdW  Elec       q    Type
REMARK                         _______ _______ _______ _____ _____    ______ ____
ROOT
ATOM      1  N   UNL     1       0.530  11.985  19.507  0.00  0.00    +0.000 N 
ATOM      2  C   UNL     1      -0.107  12.540  20.591  0.00  0.00    +0.000 A 
ATOM      3  N   UNL     1       0.471  13.652  20.982  0.00  0.00    +0.000 NA
ATOM      4  C   UNL     1       1.545  13.818  20.139  0.00  0.00    +0.000 A 
ATOM      5  C   UNL     1       2.478  14.854  20.078  0.00  0.00    +0.000 A 
ATOM      6  C   UNL     1       3.443  14.738  19.090  0.00  0.00    +0.000 A 
ATOM      7  N   UNL     1       3.543  13.706  18.221  0.00  0.00    +0.000 NA
ATOM      8  C   UNL     1       2.642  12.698  18.281  0.00  0.00    +0.000 A 
ATOM      9  C   UNL     1       1.634  12.768  19.234  0.00  0.00    +0.000 A 
ENDROOT
BRANCH   1  10
ATOM     10  C   UNL     1       0.120  10.821  18.742  0.00  0.00    +0.000 C 
BRANCH  10  13
ATOM     11  C   UNL     1       2.102   7.886  18.597  0.00  0.00    +0.000 A 
ATOM     12  N   UNL     1       1.455   8.876  18.015  0.00  0.00    +0.000 NA
ATOM     13  C   UNL     1       0.910   9.599  19.061  0.00  0.00    +0.000 A 
ATOM     14  C   UNL     1       1.255   8.993  20.257  0.00  0.00    +0.000 A 
ATOM     15  C   UNL     1       1.023   9.221  21.696  0.00  0.00    +0.000 C 
ATOM     16  O   UNL     1       2.011   7.896  19.961  0.00  0.00    +0.000 OA
BRANCH  11  22
ATOM     17  C   UNL     1       2.775   3.048  17.531  0.00  0.00    +0.000 C 
ATOM     18  C   UNL     1       3.263   4.464  17.480  0.00  0.00    +0.000 A 
ATOM     19  C   UNL     1       4.488   4.790  16.890  0.00  0.00    +0.000 A 
ATOM     20  C   UNL     1       4.921   6.115  16.853  0.00  0.00    +0.000 A 
ATOM     21  C   UNL     1       4.133   7.126  17.406  0.00  0.00    +0.000 A 
ATOM     22  C   UNL     1       2.903   6.822  18.006  0.00  0.00    +0.000 A 
ATOM     23  C   UNL     1       2.479   5.486  18.033  0.00  0.00    +0.000 A 
ENDBRANCH  11  22
ENDBRANCH  10  13
ENDBRANCH   1  10
BRANCH   2  24
ATOM     24  S   UNL     1      -1.528  11.844  21.298  0.00  0.00    +0.000 S 
BRANCH  24  25
ATOM     25  C   UNL     1      -2.820  13.002  20.762  0.00  0.00    +0.000 C 
BRANCH  25  26
ATOM     26  C   UNL     1      -3.657  12.394  19.657  0.00  0.00    +0.000 A 
ATOM     27  C   UNL     1      -5.056  12.388  19.742  0.00  0.00    +0.000 A 
ATOM     28  C   UNL     1      -5.827  11.801  18.737  0.00  0.00    +0.000 A 
ATOM     29  C   UNL     1      -5.209  11.203  17.639  0.00  0.00    +0.000 A 
ATOM     30  C   UNL     1      -3.811  11.182  17.535  0.00  0.00    +0.000 A 
ATOM     31  C   UNL     1      -3.044  11.783  18.550  0.00  0.00    +0.000 A 
BRANCH  30  32
ATOM     32  C   UNL     1      -3.124  10.521  16.365  0.00  0.00    +0.000 C 
ATOM     33  F   UNL     1      -2.299   9.497  16.720  0.00  0.00    +0.000 F 
ATOM     34  F   UNL     1      -4.008   9.995  15.473  0.00  0.00    +0.000 F 
ATOM     35  F   UNL     1      -2.352  11.391  15.655  0.00  0.00    +0.000 F 
ENDBRANCH  30  32
ENDBRANCH  25  26
ENDBRANCH  24  25
ENDBRANCH   2  24
TORSDOF 7
ENDMDL
MODEL 9
REMARK VINA RESULT:      -8.6      4.547      8.327
REMARK  Name = 
REMARK  9 active torsions:
REMARK  status: ('A' for Active; 'I' for Inactive)
REMARK    1  A    between atoms: C_1  and  C_2
REMARK    2  A    between atoms: C_6  and  C_7
REMARK    3  A    between atoms: C_9  and  C_10
REMARK    4  A    between atoms: C_10  and  N_11
REMARK    5  A    between atoms: C_12  and  S_13
REMARK    6  A    between atoms: S_13  and  C_14
REMARK    7  A    between atoms: C_14  and  C_15
REMARK    8  A    between atoms: C_19  and  C_20
REMARK    9  A    between atoms: C_32  and  C_33
REMARK                            x       y       z     vdW  Elec       q    Type
REMARK                         _______ _______ _______ _____ _____    ______ ____
ROOT
ATOM      1  N   UNL     1       6.557   5.373  17.777  0.00  0.00    +0.000 N 
ATOM      2  C   UNL     1       7.422   6.390  17.453  0.00  0.00    +0.000 A 
ATOM      3  N   UNL     1       7.646   6.450  16.161  0.00  0.00    +0.000 NA
ATOM      4  C   UNL     1       6.920   5.414  15.619  0.00  0.00    +0.000 A 
ATOM      5  C   UNL     1       6.762   5.040  14.284  0.00  0.00    +0.000 A 
ATOM      6  C   UNL     1       5.940   3.946  14.058  0.00  0.00    +0.000 A 
ATOM      7  N   UNL     1       5.317   3.233  15.024  0.00  0.00    +0.000 NA
ATOM      8  C   UNL     1       5.473   3.591  16.319  0.00  0.00    +0.000 A 
ATOM      9  C   UNL     1       6.264   4.695  16.610  0.00  0.00    +0.000 A 
ENDROOT
BRANCH   1  10
ATOM     10  C   UNL     1       6.000   5.068  19.083  0.00  0.00    +0.000 C 
BRANCH  10  13
ATOM     11  C   UNL     1       2.904   6.780  19.314  0.00  0.00    +0.000 A 
ATOM     12  N   UNL     1       4.219   6.773  19.216  0.00  0.00    +0.000 NA
ATOM     13  C   UNL     1       4.560   5.432  19.208  0.00  0.00    +0.000 A 
ATOM     14  C   UNL     1       3.408   4.672  19.313  0.00  0.00    +0.000 A 
ATOM     15  C   UNL     1       3.053   3.241  19.362  0.00  0.00    +0.000 C 
ATOM     16  O   UNL     1       2.351   5.532  19.385  0.00  0.00    +0.000 OA
BRANCH  11  22
ATOM     17  C   UNL     1      -0.325   9.702  21.769  0.00  0.00    +0.000 C 
ATOM     18  C   UNL     1       0.388   9.342  20.501  0.00  0.00    +0.000 A 
ATOM     19  C   UNL     1       0.171  10.054  19.317  0.00  0.00    +0.000 A 
ATOM     20  C   UNL     1       0.848   9.702  18.149  0.00  0.00    +0.000 A 
ATOM     21  C   UNL     1       1.747   8.634  18.155  0.00  0.00    +0.000 A 
ATOM     22  C   UNL     1       1.978   7.904  19.329  0.00  0.00    +0.000 A 
ATOM     23  C   UNL     1       1.293   8.271  20.496  0.00  0.00    +0.000 A 
ENDBRANCH  11  22
ENDBRANCH  10  13
ENDBRANCH   1  10
BRANCH   2  24
ATOM     24  S   UNL     1       8.080   7.470  18.638  0.00  0.00    +0.000 S 
BRANCH  24  25
ATOM     25  C   UNL     1       8.163   9.032  17.717  0.00  0.00    +0.000 C 
BRANCH  25  26
ATOM     26  C   UNL     1       8.972  10.060  18.479  0.00  0.00    +0.000 A 
ATOM     27  C   UNL     1       9.037  10.022  19.880  0.00  0.00    +0.000 A 
ATOM     28  C   UNL     1       9.758  10.987  20.584  0.00  0.00    +0.000 A 
ATOM     29  C   UNL     1      10.415  12.009  19.898  0.00  0.00    +0.000 A 
ATOM     30  C   UNL     1      10.355  12.080  18.500  0.00  0.00    +0.000 A 
ATOM     31  C   UNL     1       9.632  11.097  17.799  0.00  0.00    +0.000 A 
BRANCH  30  32
ATOM     32  C   UNL     1      11.043  13.190  17.743  0.00  0.00    +0.000 C 
ATOM     33  F   UNL     1      12.333  13.397  18.126  0.00  0.00    +0.000 F 
ATOM     34  F   UNL     1      11.085  12.956  16.401  0.00  0.00    +0.000 F 
ATOM     35  F   UNL     1      10.413  14.389  17.892  0.00  0.00    +0.000 F 
ENDBRANCH  30  32
ENDBRANCH  25  26
ENDBRANCH  24  25
ENDBRANCH   2  24
TORSDOF 7
ENDMDL
