MODEL 1
REMARK VINA RESULT:      -7.6      0.000      0.000
REMARK  Name = 
REMARK  18 active torsions:
REMARK  status: ('A' for Active; 'I' for Inactive)
REMARK    1  A    between atoms: C_1  and  O_2
REMARK    2  A    between atoms: O_2  and  C_3
REMARK    3  A    between atoms: C_5  and  C_6
REMARK    4  A    between atoms: C_7  and  C_8
REMARK    5  A    between atoms: C_8  and  C_10
REMARK    6  A    between atoms: C_11  and  C_12
REMARK    7  A    between atoms: C_15  and  O_16
REMARK    8  A    between atoms: O_16  and  C_17
REMARK    9  A    between atoms: C_17  and  C_19
REMARK   10  A    between atoms: C_19  and  C_20
REMARK   11  A    between atoms: C_19  and  C_21
REMARK   12  A    between atoms: C_22  and  O_23
REMARK   13  A    between atoms: O_23  and  C_24
REMARK   14  A    between atoms: C_28  and  O_29
REMARK   15  A    between atoms: O_29  and  C_30
REMARK   16  A    between atoms: C_30  and  C_32
REMARK   17  A    between atoms: C_32  and  C_33
REMARK   18  A    between atoms: C_32  and  C_34
REMARK                            x       y       z     vdW  Elec       q    Type
REMARK                         _______ _______ _______ _____ _____    ______ ____
ROOT
ATOM      1  C   UNL     1       1.056   9.150  20.443  0.00  0.00    +0.000 C 
ATOM      2  O   UNL     1       1.456   9.145  21.600  0.00  0.00    +0.000 OA
ENDROOT
BRANCH   1   4
ATOM      3  C   UNL     1       2.371   7.261  19.607  0.00  0.00    +0.000 C 
ATOM      4  C   UNL     1       1.738   8.414  19.346  0.00  0.00    +0.000 C 
BRANCH   3   7
ATOM      5  C   UNL     1       3.249   4.232  17.534  0.00  0.00    +0.000 A 
ATOM      6  C   UNL     1       2.644   5.093  18.469  0.00  0.00    +0.000 A 
ATOM      7  C   UNL     1       3.023   6.434  18.586  0.00  0.00    +0.000 A 
ATOM      8  C   UNL     1       4.040   6.920  17.754  0.00  0.00    +0.000 A 
ATOM      9  C   UNL     1       4.629   6.091  16.800  0.00  0.00    +0.000 A 
ATOM     10  C   UNL     1       4.214   4.763  16.664  0.00  0.00    +0.000 A 
BRANCH   5  12
ATOM     11  C   UNL     1       3.409   2.067  18.493  0.00  0.00    +0.000 C 
ATOM     12  O   UNL     1       2.941   2.899  17.425  0.00  0.00    +0.000 OA
ENDBRANCH   5  12
BRANCH  10  13
ATOM     13  O   UNL     1       4.896   3.922  15.752  0.00  0.00    +0.000 OA
BRANCH  13  14
ATOM     14  C   UNL     1       6.279   4.095  15.609  0.00  0.00    +0.000 C 
ATOM     15  O   UNL     1       7.084   4.236  16.523  0.00  0.00    +0.000 OA
BRANCH  14  16
ATOM     16  C   UNL     1       6.654   3.972  14.138  0.00  0.00    +0.000 C 
ATOM     17  C   UNL     1       5.421   3.836  13.247  0.00  0.00    +0.000 C 
ATOM     18  C   UNL     1       7.458   5.203  13.723  0.00  0.00    +0.000 C 
ENDBRANCH  14  16
ENDBRANCH  13  14
ENDBRANCH  10  13
ENDBRANCH   3   7
ENDBRANCH   1   4
BRANCH   1  19
ATOM     19  C   UNL     1      -0.171   9.868  20.012  0.00  0.00    +0.000 C 
ATOM     20  C   UNL     1      -0.686   9.656  18.791  0.00  0.00    +0.000 C 
BRANCH  20  21
ATOM     21  C   UNL     1      -1.871  10.359  18.276  0.00  0.00    +0.000 A 
ATOM     22  C   UNL     1      -2.512  11.287  19.099  0.00  0.00    +0.000 A 
ATOM     23  C   UNL     1      -3.659  11.947  18.661  0.00  0.00    +0.000 A 
ATOM     24  C   UNL     1      -4.159  11.705  17.379  0.00  0.00    +0.000 A 
ATOM     25  C   UNL     1      -3.556  10.752  16.545  0.00  0.00    +0.000 A 
ATOM     26  C   UNL     1      -2.418  10.075  17.011  0.00  0.00    +0.000 A 
BRANCH  25  27
ATOM     27  O   UNL     1      -4.146  10.520  15.329  0.00  0.00    +0.000 OA
ATOM     28  C   UNL     1      -3.283  10.137  14.263  0.00  0.00    +0.000 C 
ENDBRANCH  25  27
BRANCH  24  29
ATOM     29  O   UNL     1      -5.330  12.360  16.922  0.00  0.00    +0.000 OA
BRANCH  29  30
ATOM     30  C   UNL     1      -6.524  12.170  17.623  0.00  0.00    +0.000 C 
ATOM     31  O   UNL     1      -6.954  11.102  18.042  0.00  0.00    +0.000 OA
BRANCH  30  32
ATOM     32  C   UNL     1      -7.252  13.496  17.773  0.00  0.00    +0.000 C 
ATOM     33  C   UNL     1      -6.822  14.181  19.065  0.00  0.00    +0.000 C 
ATOM     34  C   UNL     1      -6.953  14.391  16.570  0.00  0.00    +0.000 C 
ENDBRANCH  30  32
ENDBRANCH  29  30
ENDBRANCH  24  29
ENDBRANCH  20  21
ENDBRANCH   1  19
TORSDOF 12
ENDMDL
MODEL 2
REMARK VINA RESULT:      -7.0      1.859     11.249
REMARK  Name = 
REMARK  18 active torsions:
REMARK  status: ('A' for Active; 'I' for Inactive)
REMARK    1  A    between atoms: C_1  and  O_2
REMARK    2  A    between atoms: O_2  and  C_3
REMARK    3  A    between atoms: C_5  and  C_6
REMARK    4  A    between atoms: C_7  and  C_8
REMARK    5  A    between atoms: C_8  and  C_10
REMARK    6  A    between atoms: C_11  and  C_12
REMARK    7  A    between atoms: C_15  and  O_16
REMARK    8  A    between atoms: O_16  and  C_17
REMARK    9  A    between atoms: C_17  and  C_19
REMARK   10  A    between atoms: C_19  and  C_20
REMARK   11  A    between atoms: C_19  and  C_21
REMARK   12  A    between atoms: C_22  and  O_23
REMARK   13  A    between atoms: O_23  and  C_24
REMARK   14  A    between atoms: C_28  and  O_29
REMARK   15  A    between atoms: O_29  and  C_30
REMARK   16  A    between atoms: C_30  and  C_32
REMARK   17  A    between atoms: C_32  and  C_33
REMARK   18  A    between atoms: C_32  and  C_34
REMARK                            x       y       z     vdW  Elec       q    Type
REMARK                         _______ _______ _______ _____ _____    ______ ____
ROOT
ATOM      1  C   UNL     1       0.744   9.526  22.375  0.00  0.00    +0.000 C 
ATOM      2  O   UNL     1       0.994   9.754  23.551  0.00  0.00    +0.000 OA
ENDROOT
BRANCH   1   4
ATOM      3  C   UNL     1      -0.690  11.103  21.169  0.00  0.00    +0.000 C 
ATOM      4  C   UNL     1      -0.546   9.895  21.734  0.00  0.00    +0.000 C 
BRANCH   3   7
ATOM      5  C   UNL     1      -3.241  11.482  18.413  0.00  0.00    +0.000 A 
ATOM      6  C   UNL     1      -2.119  11.080  19.161  0.00  0.00    +0.000 A 
ATOM      7  C   UNL     1      -1.901  11.539  20.464  0.00  0.00    +0.000 A 
ATOM      8  C   UNL     1      -2.824  12.430  21.025  0.00  0.00    +0.000 A 
ATOM      9  C   UNL     1      -3.958  12.815  20.312  0.00  0.00    +0.000 A 
ATOM     10  C   UNL     1      -4.187  12.318  19.025  0.00  0.00    +0.000 A 
BRANCH   5  12
ATOM     11  C   UNL     1      -2.751   9.927  16.689  0.00  0.00    +0.000 C 
ATOM     12  O   UNL     1      -3.461  11.094  17.115  0.00  0.00    +0.000 OA
ENDBRANCH   5  12
BRANCH  10  13
ATOM     13  O   UNL     1      -5.298  12.800  18.292  0.00  0.00    +0.000 OA
BRANCH  13  14
ATOM     14  C   UNL     1      -6.579  12.537  18.795  0.00  0.00    +0.000 C 
ATOM     15  O   UNL     1      -7.598  13.164  18.530  0.00  0.00    +0.000 OA
BRANCH  14  16
ATOM     16  C   UNL     1      -6.537  11.275  19.647  0.00  0.00    +0.000 C 
ATOM     17  C   UNL     1      -7.471  11.372  20.852  0.00  0.00    +0.000 C 
ATOM     18  C   UNL     1      -6.930  10.077  18.784  0.00  0.00    +0.000 C 
ENDBRANCH  14  16
ENDBRANCH  13  14
ENDBRANCH  10  13
ENDBRANCH   3   7
ENDBRANCH   1   4
BRANCH   1  19
ATOM     19  C   UNL     1       1.711   8.880  21.450  0.00  0.00    +0.000 C 
ATOM     20  C   UNL     1       1.286   7.995  20.536  0.00  0.00    +0.000 C 
BRANCH  20  21
ATOM     21  C   UNL     1       2.184   7.282  19.615  0.00  0.00    +0.000 A 
ATOM     22  C   UNL     1       2.664   7.956  18.490  0.00  0.00    +0.000 A 
ATOM     23  C   UNL     1       3.489   7.303  17.574  0.00  0.00    +0.000 A 
ATOM     24  C   UNL     1       3.865   5.975  17.793  0.00  0.00    +0.000 A 
ATOM     25  C   UNL     1       3.368   5.265  18.895  0.00  0.00    +0.000 A 
ATOM     26  C   UNL     1       2.517   5.926  19.793  0.00  0.00    +0.000 A 
BRANCH  25  27
ATOM     27  O   UNL     1       3.727   3.946  19.003  0.00  0.00    +0.000 OA
ATOM     28  C   UNL     1       3.240   3.242  20.143  0.00  0.00    +0.000 C 
ENDBRANCH  25  27
BRANCH  24  29
ATOM     29  O   UNL     1       4.694   5.295  16.866  0.00  0.00    +0.000 OA
BRANCH  29  30
ATOM     30  C   UNL     1       5.599   6.037  16.102  0.00  0.00    +0.000 C 
ATOM     31  O   UNL     1       5.337   6.677  15.091  0.00  0.00    +0.000 OA
BRANCH  30  32
ATOM     32  C   UNL     1       6.995   5.916  16.692  0.00  0.00    +0.000 C 
ATOM     33  C   UNL     1       7.322   7.159  17.511  0.00  0.00    +0.000 C 
ATOM     34  C   UNL     1       7.082   4.664  17.566  0.00  0.00    +0.000 C 
ENDBRANCH  30  32
ENDBRANCH  29  30
ENDBRANCH  24  29
ENDBRANCH  20  21
ENDBRANCH   1  19
TORSDOF 12
ENDMDL
MODEL 3
REMARK VINA RESULT:      -7.0      3.376     11.979
REMARK  Name = 
REMARK  18 active torsions:
REMARK  status: ('A' for Active; 'I' for Inactive)
REMARK    1  A    between atoms: C_1  and  O_2
REMARK    2  A    between atoms: O_2  and  C_3
REMARK    3  A    between atoms: C_5  and  C_6
REMARK    4  A    between atoms: C_7  and  C_8
REMARK    5  A    between atoms: C_8  and  C_10
REMARK    6  A    between atoms: C_11  and  C_12
REMARK    7  A    between atoms: C_15  and  O_16
REMARK    8  A    between atoms: O_16  and  C_17
REMARK    9  A    between atoms: C_17  and  C_19
REMARK   10  A    between atoms: C_19  and  C_20
REMARK   11  A    between atoms: C_19  and  C_21
REMARK   12  A    between atoms: C_22  and  O_23
REMARK   13  A    between atoms: O_23  and  C_24
REMARK   14  A    between atoms: C_28  and  O_29
REMARK   15  A    between atoms: O_29  and  C_30
REMARK   16  A    between atoms: C_30  and  C_32
REMARK   17  A    between atoms: C_32  and  C_33
REMARK   18  A    between atoms: C_32  and  C_34
REMARK                            x       y       z     vdW  Elec       q    Type
REMARK                         _______ _______ _______ _____ _____    ______ ____
ROOT
ATOM      1  C   UNL     1       2.031   6.044  20.504  0.00  0.00    +0.000 C 
ATOM      2  O   UNL     1       1.496   5.059  20.995  0.00  0.00    +0.000 OA
ENDROOT
BRANCH   1   4
ATOM      3  C   UNL     1       0.321   7.673  21.151  0.00  0.00    +0.000 C 
ATOM      4  C   UNL     1       1.591   7.434  20.793  0.00  0.00    +0.000 C 
BRANCH   3   7
ATOM      5  C   UNL     1      -0.828  11.247  20.772  0.00  0.00    +0.000 A 
ATOM      6  C   UNL     1      -0.368   9.946  20.497  0.00  0.00    +0.000 A 
ATOM      7  C   UNL     1      -0.195   8.998  21.511  0.00  0.00    +0.000 A 
ATOM      8  C   UNL     1      -0.481   9.367  22.831  0.00  0.00    +0.000 A 
ATOM      9  C   UNL     1      -0.968  10.641  23.120  0.00  0.00    +0.000 A 
ATOM     10  C   UNL     1      -1.175  11.568  22.094  0.00  0.00    +0.000 A 
BRANCH   5  12
ATOM     11  C   UNL     1       0.262  12.820  19.369  0.00  0.00    +0.000 C 
ATOM     12  O   UNL     1      -0.960  12.220  19.813  0.00  0.00    +0.000 OA
ENDBRANCH   5  12
BRANCH  10  13
ATOM     13  O   UNL     1      -1.581  12.882  22.429  0.00  0.00    +0.000 OA
BRANCH  13  14
ATOM     14  C   UNL     1      -2.950  13.178  22.377  0.00  0.00    +0.000 C 
ATOM     15  O   UNL     1      -3.861  12.428  22.707  0.00  0.00    +0.000 OA
BRANCH  14  16
ATOM     16  C   UNL     1      -3.136  14.626  21.944  0.00  0.00    +0.000 C 
ATOM     17  C   UNL     1      -4.347  14.794  21.028  0.00  0.00    +0.000 C 
ATOM     18  C   UNL     1      -3.303  15.501  23.186  0.00  0.00    +0.000 C 
ENDBRANCH  14  16
ENDBRANCH  13  14
ENDBRANCH  10  13
ENDBRANCH   3   7
ENDBRANCH   1   4
BRANCH   1  19
ATOM     19  C   UNL     1       3.197   5.962  19.587  0.00  0.00    +0.000 C 
ATOM     20  C   UNL     1       3.119   5.245  18.455  0.00  0.00    +0.000 C 
BRANCH  20  21
ATOM     21  C   UNL     1       4.241   5.080  17.518  0.00  0.00    +0.000 A 
ATOM     22  C   UNL     1       4.265   3.955  16.691  0.00  0.00    +0.000 A 
ATOM     23  C   UNL     1       5.330   3.744  15.816  0.00  0.00    +0.000 A 
ATOM     24  C   UNL     1       6.369   4.675  15.740  0.00  0.00    +0.000 A 
ATOM     25  C   UNL     1       6.388   5.795  16.585  0.00  0.00    +0.000 A 
ATOM     26  C   UNL     1       5.323   5.979  17.481  0.00  0.00    +0.000 A 
BRANCH  25  27
ATOM     27  O   UNL     1       7.476   6.625  16.500  0.00  0.00    +0.000 OA
ATOM     28  C   UNL     1       7.549   7.682  17.454  0.00  0.00    +0.000 C 
ENDBRANCH  25  27
BRANCH  24  29
ATOM     29  O   UNL     1       7.463   4.470  14.864  0.00  0.00    +0.000 OA
BRANCH  29  30
ATOM     30  C   UNL     1       7.289   4.720  13.500  0.00  0.00    +0.000 C 
ATOM     31  O   UNL     1       7.668   5.714  12.893  0.00  0.00    +0.000 OA
BRANCH  30  32
ATOM     32  C   UNL     1       6.518   3.576  12.859  0.00  0.00    +0.000 C 
ATOM     33  C   UNL     1       5.131   4.055  12.442  0.00  0.00    +0.000 C 
ATOM     34  C   UNL     1       7.286   3.049  11.647  0.00  0.00    +0.000 C 
ENDBRANCH  30  32
ENDBRANCH  29  30
ENDBRANCH  24  29
ENDBRANCH  20  21
ENDBRANCH   1  19
TORSDOF 12
ENDMDL
MODEL 4
REMARK VINA RESULT:      -6.9      3.904     12.626
REMARK  Name = 
REMARK  18 active torsions:
REMARK  status: ('A' for Active; 'I' for Inactive)
REMARK    1  A    between atoms: C_1  and  O_2
REMARK    2  A    between atoms: O_2  and  C_3
REMARK    3  A    between atoms: C_5  and  C_6
REMARK    4  A    between atoms: C_7  and  C_8
REMARK    5  A    between atoms: C_8  and  C_10
REMARK    6  A    between atoms: C_11  and  C_12
REMARK    7  A    between atoms: C_15  and  O_16
REMARK    8  A    between atoms: O_16  and  C_17
REMARK    9  A    between atoms: C_17  and  C_19
REMARK   10  A    between atoms: C_19  and  C_20
REMARK   11  A    between atoms: C_19  and  C_21
REMARK   12  A    between atoms: C_22  and  O_23
REMARK   13  A    between atoms: O_23  and  C_24
REMARK   14  A    between atoms: C_28  and  O_29
REMARK   15  A    between atoms: O_29  and  C_30
REMARK   16  A    between atoms: C_30  and  C_32
REMARK   17  A    between atoms: C_32  and  C_33
REMARK   18  A    between atoms: C_32  and  C_34
REMARK                            x       y       z     vdW  Elec       q    Type
REMARK                         _______ _______ _______ _____ _____    ______ ____
ROOT
ATOM      1  C   UNL     1       0.395   9.781  22.682  0.00  0.00    +0.000 C 
ATOM      2  O   UNL     1       0.610   9.554  23.866  0.00  0.00    +0.000 OA
ENDROOT
BRANCH   1   4
ATOM      3  C   UNL     1      -1.243  11.564  23.048  0.00  0.00    +0.000 C 
ATOM      4  C   UNL     1      -0.705  10.663  22.213  0.00  0.00    +0.000 C 
BRANCH   3   7
ATOM      5  C   UNL     1      -2.899  14.548  21.437  0.00  0.00    +0.000 A 
ATOM      6  C   UNL     1      -1.953  13.579  21.822  0.00  0.00    +0.000 A 
ATOM      7  C   UNL     1      -2.292  12.515  22.664  0.00  0.00    +0.000 A 
ATOM      8  C   UNL     1      -3.606  12.428  23.140  0.00  0.00    +0.000 A 
ATOM      9  C   UNL     1      -4.564  13.360  22.746  0.00  0.00    +0.000 A 
ATOM     10  C   UNL     1      -4.225  14.396  21.871  0.00  0.00    +0.000 A 
BRANCH   5  12
ATOM     11  C   UNL     1      -1.743  16.613  21.263  0.00  0.00    +0.000 C 
ATOM     12  O   UNL     1      -2.593  15.634  20.656  0.00  0.00    +0.000 OA
ENDBRANCH   5  12
BRANCH  10  13
ATOM     13  O   UNL     1      -5.196  15.379  21.564  0.00  0.00    +0.000 OA
BRANCH  13  14
ATOM     14  C   UNL     1      -5.751  16.107  22.625  0.00  0.00    +0.000 C 
ATOM     15  O   UNL     1      -5.136  16.831  23.399  0.00  0.00    +0.000 OA
BRANCH  14  16
ATOM     16  C   UNL     1      -7.266  15.947  22.609  0.00  0.00    +0.000 C 
ATOM     17  C   UNL     1      -7.733  14.859  23.574  0.00  0.00    +0.000 C 
ATOM     18  C   UNL     1      -7.912  17.281  22.982  0.00  0.00    +0.000 C 
ENDBRANCH  14  16
ENDBRANCH  13  14
ENDBRANCH  10  13
ENDBRANCH   3   7
ENDBRANCH   1   4
BRANCH   1  19
ATOM     19  C   UNL     1       1.227   9.223  21.585  0.00  0.00    +0.000 C 
ATOM     20  C   UNL     1       1.036   7.964  21.164  0.00  0.00    +0.000 C 
BRANCH  20  21
ATOM     21  C   UNL     1       1.846   7.326  20.114  0.00  0.00    +0.000 A 
ATOM     22  C   UNL     1       2.178   8.068  18.979  0.00  0.00    +0.000 A 
ATOM     23  C   UNL     1       2.913   7.488  17.946  0.00  0.00    +0.000 A 
ATOM     24  C   UNL     1       3.348   6.165  18.054  0.00  0.00    +0.000 A 
ATOM     25  C   UNL     1       2.998   5.386  19.166  0.00  0.00    +0.000 A 
ATOM     26  C   UNL     1       2.234   5.975  20.185  0.00  0.00    +0.000 A 
BRANCH  25  27
ATOM     27  O   UNL     1       3.403   4.076  19.167  0.00  0.00    +0.000 OA
ATOM     28  C   UNL     1       2.404   3.098  18.890  0.00  0.00    +0.000 C 
ENDBRANCH  25  27
BRANCH  24  29
ATOM     29  O   UNL     1       4.087   5.558  17.008  0.00  0.00    +0.000 OA
BRANCH  29  30
ATOM     30  C   UNL     1       5.200   6.228  16.493  0.00  0.00    +0.000 C 
ATOM     31  O   UNL     1       5.254   6.825  15.424  0.00  0.00    +0.000 OA
BRANCH  30  32
ATOM     32  C   UNL     1       6.375   6.088  17.448  0.00  0.00    +0.000 C 
ATOM     33  C   UNL     1       7.274   4.941  16.999  0.00  0.00    +0.000 C 
ATOM     34  C   UNL     1       7.164   7.397  17.494  0.00  0.00    +0.000 C 
ENDBRANCH  30  32
ENDBRANCH  29  30
ENDBRANCH  24  29
ENDBRANCH  20  21
ENDBRANCH   1  19
TORSDOF 12
ENDMDL
MODEL 5
REMARK VINA RESULT:      -6.9      4.099      5.192
REMARK  Name = 
REMARK  18 active torsions:
REMARK  status: ('A' for Active; 'I' for Inactive)
REMARK    1  A    between atoms: C_1  and  O_2
REMARK    2  A    between atoms: O_2  and  C_3
REMARK    3  A    between atoms: C_5  and  C_6
REMARK    4  A    between atoms: C_7  and  C_8
REMARK    5  A    between atoms: C_8  and  C_10
REMARK    6  A    between atoms: C_11  and  C_12
REMARK    7  A    between atoms: C_15  and  O_16
REMARK    8  A    between atoms: O_16  and  C_17
REMARK    9  A    between atoms: C_17  and  C_19
REMARK   10  A    between atoms: C_19  and  C_20
REMARK   11  A    between atoms: C_19  and  C_21
REMARK   12  A    between atoms: C_22  and  O_23
REMARK   13  A    between atoms: O_23  and  C_24
REMARK   14  A    between atoms: C_28  and  O_29
REMARK   15  A    between atoms: O_29  and  C_30
REMARK   16  A    between atoms: C_30  and  C_32
REMARK   17  A    between atoms: C_32  and  C_33
REMARK   18  A    between atoms: C_32  and  C_34
REMARK                            x       y       z     vdW  Elec       q    Type
REMARK                         _______ _______ _______ _____ _____    ______ ____
ROOT
ATOM      1  C   UNL     1      -0.110   9.374  22.079  0.00  0.00    +0.000 C 
ATOM      2  O   UNL     1      -0.821   9.229  23.065  0.00  0.00    +0.000 OA
ENDROOT
BRANCH   1   4
ATOM      3  C   UNL     1       1.376   8.476  20.351  0.00  0.00    +0.000 C 
ATOM      4  C   UNL     1       0.574   8.242  21.400  0.00  0.00    +0.000 C 
BRANCH   3   7
ATOM      5  C   UNL     1       2.984   5.136  19.646  0.00  0.00    +0.000 A 
ATOM      6  C   UNL     1       2.243   6.172  20.243  0.00  0.00    +0.000 A 
ATOM      7  C   UNL     1       2.138   7.436  19.652  0.00  0.00    +0.000 A 
ATOM      8  C   UNL     1       2.800   7.667  18.440  0.00  0.00    +0.000 A 
ATOM      9  C   UNL     1       3.513   6.644  17.817  0.00  0.00    +0.000 A 
ATOM     10  C   UNL     1       3.578   5.373  18.396  0.00  0.00    +0.000 A 
BRANCH   5  12
ATOM     11  C   UNL     1       2.119   3.489  21.120  0.00  0.00    +0.000 C 
ATOM     12  O   UNL     1       3.153   3.900  20.220  0.00  0.00    +0.000 OA
ENDBRANCH   5  12
BRANCH  10  13
ATOM     13  O   UNL     1       4.385   4.383  17.788  0.00  0.00    +0.000 OA
BRANCH  13  14
ATOM     14  C   UNL     1       5.759   4.398  18.062  0.00  0.00    +0.000 C 
ATOM     15  O   UNL     1       6.273   4.278  19.168  0.00  0.00    +0.000 OA
BRANCH  14  16
ATOM     16  C   UNL     1       6.534   4.480  16.753  0.00  0.00    +0.000 C 
ATOM     17  C   UNL     1       5.720   3.944  15.576  0.00  0.00    +0.000 C 
ATOM     18  C   UNL     1       6.922   5.935  16.493  0.00  0.00    +0.000 C 
ENDBRANCH  14  16
ENDBRANCH  13  14
ENDBRANCH  10  13
ENDBRANCH   3   7
ENDBRANCH   1   4
BRANCH   1  19
ATOM     19  C   UNL     1       0.125  10.691  21.433  0.00  0.00    +0.000 C 
ATOM     20  C   UNL     1      -0.908  11.501  21.151  0.00  0.00    +0.000 C 
BRANCH  20  21
ATOM     21  C   UNL     1      -0.761  12.799  20.475  0.00  0.00    +0.000 A 
ATOM     22  C   UNL     1      -0.113  12.842  19.239  0.00  0.00    +0.000 A 
ATOM     23  C   UNL     1       0.078  14.059  18.584  0.00  0.00    +0.000 A 
ATOM     24  C   UNL     1      -0.407  15.241  19.148  0.00  0.00    +0.000 A 
ATOM     25  C   UNL     1      -1.029  15.230  20.405  0.00  0.00    +0.000 A 
ATOM     26  C   UNL     1      -1.189  14.002  21.066  0.00  0.00    +0.000 A 
BRANCH  25  27
ATOM     27  O   UNL     1      -1.414  16.440  20.924  0.00  0.00    +0.000 OA
ATOM     28  C   UNL     1      -2.813  16.707  20.952  0.00  0.00    +0.000 C 
ENDBRANCH  25  27
BRANCH  24  29
ATOM     29  O   UNL     1      -0.212  16.486  18.500  0.00  0.00    +0.000 OA
BRANCH  29  30
ATOM     30  C   UNL     1       1.046  17.091  18.570  0.00  0.00    +0.000 C 
ATOM     31  O   UNL     1       1.888  16.910  19.441  0.00  0.00    +0.000 OA
BRANCH  30  32
ATOM     32  C   UNL     1       1.223  18.053  17.405  0.00  0.00    +0.000 C 
ATOM     33  C   UNL     1       2.378  17.592  16.523  0.00  0.00    +0.000 C 
ATOM     34  C   UNL     1      -0.071  18.127  16.593  0.00  0.00    +0.000 C 
ENDBRANCH  30  32
ENDBRANCH  29  30
ENDBRANCH  24  29
ENDBRANCH  20  21
ENDBRANCH   1  19
TORSDOF 12
ENDMDL
MODEL 6
REMARK VINA RESULT:      -6.8      3.123      4.247
REMARK  Name = 
REMARK  18 active torsions:
REMARK  status: ('A' for Active; 'I' for Inactive)
REMARK    1  A    between atoms: C_1  and  O_2
REMARK    2  A    between atoms: O_2  and  C_3
REMARK    3  A    between atoms: C_5  and  C_6
REMARK    4  A    between atoms: C_7  and  C_8
REMARK    5  A    between atoms: C_8  and  C_10
REMARK    6  A    between atoms: C_11  and  C_12
REMARK    7  A    between atoms: C_15  and  O_16
REMARK    8  A    between atoms: O_16  and  C_17
REMARK    9  A    between atoms: C_17  and  C_19
REMARK   10  A    between atoms: C_19  and  C_20
REMARK   11  A    between atoms: C_19  and  C_21
REMARK   12  A    between atoms: C_22  and  O_23
REMARK   13  A    between atoms: O_23  and  C_24
REMARK   14  A    between atoms: C_28  and  O_29
REMARK   15  A    between atoms: O_29  and  C_30
REMARK   16  A    between atoms: C_30  and  C_32
REMARK   17  A    between atoms: C_32  and  C_33
REMARK   18  A    between atoms: C_32  and  C_34
REMARK                            x       y       z     vdW  Elec       q    Type
REMARK                         _______ _______ _______ _____ _____    ______ ____
ROOT
ATOM      1  C   UNL     1       0.343   9.505  22.791  0.00  0.00    +0.000 C 
ATOM      2  O   UNL     1       1.177   9.586  23.682  0.00  0.00    +0.000 OA
ENDROOT
BRANCH   1   4
ATOM      3  C   UNL     1       1.648   7.976  21.392  0.00  0.00    +0.000 C 
ATOM      4  C   UNL     1       0.470   8.565  21.646  0.00  0.00    +0.000 C 
BRANCH   3   7
ATOM      5  C   UNL     1       1.802   4.646  19.623  0.00  0.00    +0.000 A 
ATOM      6  C   UNL     1       1.591   5.647  20.589  0.00  0.00    +0.000 A 
ATOM      7  C   UNL     1       1.861   6.994  20.323  0.00  0.00    +0.000 A 
ATOM      8  C   UNL     1       2.364   7.341  19.063  0.00  0.00    +0.000 A 
ATOM      9  C   UNL     1       2.550   6.368  18.083  0.00  0.00    +0.000 A 
ATOM     10  C   UNL     1       2.238   5.031  18.346  0.00  0.00    +0.000 A 
BRANCH   5  12
ATOM     11  C   UNL     1       1.718   2.902  21.231  0.00  0.00    +0.000 C 
ATOM     12  O   UNL     1       1.599   3.310  19.863  0.00  0.00    +0.000 OA
ENDBRANCH   5  12
BRANCH  10  13
ATOM     13  O   UNL     1       2.525   4.054  17.363  0.00  0.00    +0.000 OA
BRANCH  13  14
ATOM     14  C   UNL     1       3.756   3.389  17.440  0.00  0.00    +0.000 C 
ATOM     15  O   UNL     1       3.915   2.196  17.674  0.00  0.00    +0.000 OA
BRANCH  14  16
ATOM     16  C   UNL     1       4.876   4.356  17.079  0.00  0.00    +0.000 C 
ATOM     17  C   UNL     1       5.850   4.556  18.238  0.00  0.00    +0.000 C 
ATOM     18  C   UNL     1       5.627   3.818  15.861  0.00  0.00    +0.000 C 
ENDBRANCH  14  16
ENDBRANCH  13  14
ENDBRANCH  10  13
ENDBRANCH   3   7
ENDBRANCH   1   4
BRANCH   1  19
ATOM     19  C   UNL     1      -0.903  10.314  22.767  0.00  0.00    +0.000 C 
ATOM     20  C   UNL     1      -0.994  11.393  21.975  0.00  0.00    +0.000 C 
BRANCH  20  21
ATOM     21  C   UNL     1      -2.175  12.269  21.927  0.00  0.00    +0.000 A 
ATOM     22  C   UNL     1      -2.393  13.039  20.783  0.00  0.00    +0.000 A 
ATOM     23  C   UNL     1      -3.481  13.909  20.714  0.00  0.00    +0.000 A 
ATOM     24  C   UNL     1      -4.379  13.993  21.781  0.00  0.00    +0.000 A 
ATOM     25  C   UNL     1      -4.163  13.258  22.955  0.00  0.00    +0.000 A 
ATOM     26  C   UNL     1      -3.048  12.408  23.021  0.00  0.00    +0.000 A 
BRANCH  25  27
ATOM     27  O   UNL     1      -5.050  13.447  23.985  0.00  0.00    +0.000 OA
ATOM     28  C   UNL     1      -5.210  12.364  24.897  0.00  0.00    +0.000 C 
ENDBRANCH  25  27
BRANCH  24  29
ATOM     29  O   UNL     1      -5.483  14.880  21.730  0.00  0.00    +0.000 OA
BRANCH  29  30
ATOM     30  C   UNL     1      -6.612  14.507  20.995  0.00  0.00    +0.000 C 
ATOM     31  O   UNL     1      -7.305  13.515  21.186  0.00  0.00    +0.000 OA
BRANCH  30  32
ATOM     32  C   UNL     1      -6.853  15.508  19.875  0.00  0.00    +0.000 C 
ATOM     33  C   UNL     1      -5.931  16.711  20.047  0.00  0.00    +0.000 C 
ATOM     34  C   UNL     1      -6.609  14.840  18.522  0.00  0.00    +0.000 C 
ENDBRANCH  30  32
ENDBRANCH  29  30
ENDBRANCH  24  29
ENDBRANCH  20  21
ENDBRANCH   1  19
TORSDOF 12
ENDMDL
MODEL 7
REMARK VINA RESULT:      -6.7      2.279      2.932
REMARK  Name = 
REMARK  18 active torsions:
REMARK  status: ('A' for Active; 'I' for Inactive)
REMARK    1  A    between atoms: C_1  and  O_2
REMARK    2  A    between atoms: O_2  and  C_3
REMARK    3  A    between atoms: C_5  and  C_6
REMARK    4  A    between atoms: C_7  and  C_8
REMARK    5  A    between atoms: C_8  and  C_10
REMARK    6  A    between atoms: C_11  and  C_12
REMARK    7  A    between atoms: C_15  and  O_16
REMARK    8  A    between atoms: O_16  and  C_17
REMARK    9  A    between atoms: C_17  and  C_19
REMARK   10  A    between atoms: C_19  and  C_20
REMARK   11  A    between atoms: C_19  and  C_21
REMARK   12  A    between atoms: C_22  and  O_23
REMARK   13  A    between atoms: O_23  and  C_24
REMARK   14  A    between atoms: C_28  and  O_29
REMARK   15  A    between atoms: O_29  and  C_30
REMARK   16  A    between atoms: C_30  and  C_32
REMARK   17  A    between atoms: C_32  and  C_33
REMARK   18  A    between atoms: C_32  and  C_34
REMARK                            x       y       z     vdW  Elec       q    Type
REMARK                         _______ _______ _______ _____ _____    ______ ____
ROOT
ATOM      1  C   UNL     1       0.780  11.100  20.685  0.00  0.00    +0.000 C 
ATOM      2  O   UNL     1       1.343  11.749  21.556  0.00  0.00    +0.000 OA
ENDROOT
BRANCH   1   4
ATOM      3  C   UNL     1       1.355   8.720  20.617  0.00  0.00    +0.000 C 
ATOM      4  C   UNL     1       1.400   9.922  20.024  0.00  0.00    +0.000 C 
BRANCH   3   7
ATOM      5  C   UNL     1       2.283   5.082  20.243  0.00  0.00    +0.000 A 
ATOM      6  C   UNL     1       1.768   6.294  20.737  0.00  0.00    +0.000 A 
ATOM      7  C   UNL     1       1.887   7.490  20.022  0.00  0.00    +0.000 A 
ATOM      8  C   UNL     1       2.547   7.470  18.787  0.00  0.00    +0.000 A 
ATOM      9  C   UNL     1       3.037   6.274  18.266  0.00  0.00    +0.000 A 
ATOM     10  C   UNL     1       2.876   5.077  18.971  0.00  0.00    +0.000 A 
BRANCH   5  12
ATOM     11  C   UNL     1       1.019   3.152  20.799  0.00  0.00    +0.000 C 
ATOM     12  O   UNL     1       2.232   3.899  20.938  0.00  0.00    +0.000 OA
ENDBRANCH   5  12
BRANCH  10  13
ATOM     13  O   UNL     1       3.465   3.896  18.459  0.00  0.00    +0.000 OA
BRANCH  13  14
ATOM     14  C   UNL     1       4.698   3.495  18.991  0.00  0.00    +0.000 C 
ATOM     15  O   UNL     1       5.630   4.236  19.284  0.00  0.00    +0.000 OA
BRANCH  14  16
ATOM     16  C   UNL     1       4.670   1.995  19.255  0.00  0.00    +0.000 C 
ATOM     17  C   UNL     1       4.544   1.682  20.745  0.00  0.00    +0.000 C 
ATOM     18  C   UNL     1       3.496   1.377  18.496  0.00  0.00    +0.000 C 
ENDBRANCH  14  16
ENDBRANCH  13  14
ENDBRANCH  10  13
ENDBRANCH   3   7
ENDBRANCH   1   4
BRANCH   1  19
ATOM     19  C   UNL     1      -0.596  11.399  20.211  0.00  0.00    +0.000 C 
ATOM     20  C   UNL     1      -0.984  11.029  18.980  0.00  0.00    +0.000 C 
BRANCH  20  21
ATOM     21  C   UNL     1      -2.312  11.326  18.423  0.00  0.00    +0.000 A 
ATOM     22  C   UNL     1      -3.236  12.008  19.218  0.00  0.00    +0.000 A 
ATOM     23  C   UNL     1      -4.518  12.275  18.739  0.00  0.00    +0.000 A 
ATOM     24  C   UNL     1      -4.877  11.889  17.445  0.00  0.00    +0.000 A 
ATOM     25  C   UNL     1      -3.981  11.172  16.640  0.00  0.00    +0.000 A 
ATOM     26  C   UNL     1      -2.704  10.884  17.146  0.00  0.00    +0.000 A 
BRANCH  25  27
ATOM     27  O   UNL     1      -4.431  10.766  15.409  0.00  0.00    +0.000 OA
ATOM     28  C   UNL     1      -3.456  10.239  14.514  0.00  0.00    +0.000 C 
ENDBRANCH  25  27
BRANCH  24  29
ATOM     29  O   UNL     1      -6.179  12.145  16.948  0.00  0.00    +0.000 OA
BRANCH  29  30
ATOM     30  C   UNL     1      -7.051  12.923  17.714  0.00  0.00    +0.000 C 
ATOM     31  O   UNL     1      -7.852  12.509  18.542  0.00  0.00    +0.000 OA
BRANCH  30  32
ATOM     32  C   UNL     1      -6.889  14.391  17.349  0.00  0.00    +0.000 C 
ATOM     33  C   UNL     1      -7.610  14.681  16.037  0.00  0.00    +0.000 C 
ATOM     34  C   UNL     1      -7.447  15.268  18.469  0.00  0.00    +0.000 C 
ENDBRANCH  30  32
ENDBRANCH  29  30
ENDBRANCH  24  29
ENDBRANCH  20  21
ENDBRANCH   1  19
TORSDOF 12
ENDMDL
MODEL 8
REMARK VINA RESULT:      -6.7      3.830     11.719
REMARK  Name = 
REMARK  18 active torsions:
REMARK  status: ('A' for Active; 'I' for Inactive)
REMARK    1  A    between atoms: C_1  and  O_2
REMARK    2  A    between atoms: O_2  and  C_3
REMARK    3  A    between atoms: C_5  and  C_6
REMARK    4  A    between atoms: C_7  and  C_8
REMARK    5  A    between atoms: C_8  and  C_10
REMARK    6  A    between atoms: C_11  and  C_12
REMARK    7  A    between atoms: C_15  and  O_16
REMARK    8  A    between atoms: O_16  and  C_17
REMARK    9  A    between atoms: C_17  and  C_19
REMARK   10  A    between atoms: C_19  and  C_20
REMARK   11  A    between atoms: C_19  and  C_21
REMARK   12  A    between atoms: C_22  and  O_23
REMARK   13  A    between atoms: O_23  and  C_24
REMARK   14  A    between atoms: C_28  and  O_29
REMARK   15  A    between atoms: O_29  and  C_30
REMARK   16  A    between atoms: C_30  and  C_32
REMARK   17  A    between atoms: C_32  and  C_33
REMARK   18  A    between atoms: C_32  and  C_34
REMARK                            x       y       z     vdW  Elec       q    Type
REMARK                         _______ _______ _______ _____ _____    ______ ____
ROOT
ATOM      1  C   UNL     1       0.468   8.674  21.168  0.00  0.00    +0.000 C 
ATOM      2  O   UNL     1      -0.478   8.151  21.743  0.00  0.00    +0.000 OA
ENDROOT
BRANCH   1   4
ATOM      3  C   UNL     1      -0.498  10.767  20.339  0.00  0.00    +0.000 C 
ATOM      4  C   UNL     1       0.544  10.134  20.897  0.00  0.00    +0.000 C 
BRANCH   3   7
ATOM      5  C   UNL     1      -1.160  14.441  20.892  0.00  0.00    +0.000 A 
ATOM      6  C   UNL     1      -1.059  13.050  21.078  0.00  0.00    +0.000 A 
ATOM      7  C   UNL     1      -0.541  12.211  20.085  0.00  0.00    +0.000 A 
ATOM      8  C   UNL     1      -0.126  12.780  18.875  0.00  0.00    +0.000 A 
ATOM      9  C   UNL     1      -0.190  14.160  18.683  0.00  0.00    +0.000 A 
ATOM     10  C   UNL     1      -0.671  14.993  19.698  0.00  0.00    +0.000 A 
BRANCH   5  12
ATOM     11  C   UNL     1      -1.858  14.751  23.139  0.00  0.00    +0.000 C 
ATOM     12  O   UNL     1      -1.711  15.289  21.820  0.00  0.00    +0.000 OA
ENDBRANCH   5  12
BRANCH  10  13
ATOM     13  O   UNL     1      -0.810  16.377  19.439  0.00  0.00    +0.000 OA
BRANCH  13  14
ATOM     14  C   UNL     1       0.341  17.174  19.501  0.00  0.00    +0.000 C 
ATOM     15  O   UNL     1       1.278  17.025  20.276  0.00  0.00    +0.000 OA
BRANCH  14  16
ATOM     16  C   UNL     1       0.303  18.202  18.377  0.00  0.00    +0.000 C 
ATOM     17  C   UNL     1       1.351  17.911  17.305  0.00  0.00    +0.000 C 
ATOM     18  C   UNL     1      -1.091  18.206  17.750  0.00  0.00    +0.000 C 
ENDBRANCH  14  16
ENDBRANCH  13  14
ENDBRANCH  10  13
ENDBRANCH   3   7
ENDBRANCH   1   4
BRANCH   1  19
ATOM     19  C   UNL     1       1.655   7.914  20.702  0.00  0.00    +0.000 C 
ATOM     20  C   UNL     1       1.870   7.729  19.390  0.00  0.00    +0.000 C 
BRANCH  20  21
ATOM     21  C   UNL     1       2.997   6.953  18.851  0.00  0.00    +0.000 A 
ATOM     22  C   UNL     1       3.551   7.335  17.628  0.00  0.00    +0.000 A 
ATOM     23  C   UNL     1       4.597   6.603  17.066  0.00  0.00    +0.000 A 
ATOM     24  C   UNL     1       5.118   5.496  17.741  0.00  0.00    +0.000 A 
ATOM     25  C   UNL     1       4.556   5.070  18.953  0.00  0.00    +0.000 A 
ATOM     26  C   UNL     1       3.485   5.800  19.492  0.00  0.00    +0.000 A 
BRANCH  25  27
ATOM     27  O   UNL     1       5.076   3.934  19.519  0.00  0.00    +0.000 OA
ATOM     28  C   UNL     1       4.236   2.783  19.531  0.00  0.00    +0.000 C 
ENDBRANCH  25  27
BRANCH  24  29
ATOM     29  O   UNL     1       6.173   4.736  17.179  0.00  0.00    +0.000 OA
BRANCH  29  30
ATOM     30  C   UNL     1       6.924   5.293  16.140  0.00  0.00    +0.000 C 
ATOM     31  O   UNL     1       7.572   6.331  16.193  0.00  0.00    +0.000 OA
BRANCH  30  32
ATOM     32  C   UNL     1       6.801   4.431  14.893  0.00  0.00    +0.000 C 
ATOM     33  C   UNL     1       5.330   4.221  14.552  0.00  0.00    +0.000 C 
ATOM     34  C   UNL     1       7.528   5.100  13.727  0.00  0.00    +0.000 C 
ENDBRANCH  30  32
ENDBRANCH  29  30
ENDBRANCH  24  29
ENDBRANCH  20  21
ENDBRANCH   1  19
TORSDOF 12
ENDMDL
MODEL 9
REMARK VINA RESULT:      -6.7      2.365     11.886
REMARK  Name = 
REMARK  18 active torsions:
REMARK  status: ('A' for Active; 'I' for Inactive)
REMARK    1  A    between atoms: C_1  and  O_2
REMARK    2  A    between atoms: O_2  and  C_3
REMARK    3  A    between atoms: C_5  and  C_6
REMARK    4  A    between atoms: C_7  and  C_8
REMARK    5  A    between atoms: C_8  and  C_10
REMARK    6  A    between atoms: C_11  and  C_12
REMARK    7  A    between atoms: C_15  and  O_16
REMARK    8  A    between atoms: O_16  and  C_17
REMARK    9  A    between atoms: C_17  and  C_19
REMARK   10  A    between atoms: C_19  and  C_20
REMARK   11  A    between atoms: C_19  and  C_21
REMARK   12  A    between atoms: C_22  and  O_23
REMARK   13  A    between atoms: O_23  and  C_24
REMARK   14  A    between atoms: C_28  and  O_29
REMARK   15  A    between atoms: O_29  and  C_30
REMARK   16  A    between atoms: C_30  and  C_32
REMARK   17  A    between atoms: C_32  and  C_33
REMARK   18  A    between atoms: C_32  and  C_34
REMARK                            x       y       z     vdW  Elec       q    Type
REMARK                         _______ _______ _______ _____ _____    ______ ____
ROOT
ATOM      1  C   UNL     1       1.537  10.847  18.160  0.00  0.00    +0.000 C 
ATOM      2  O   UNL     1       2.507  11.587  18.061  0.00  0.00    +0.000 OA
ENDROOT
BRANCH   1   4
ATOM      3  C   UNL     1      -0.443  11.242  19.546  0.00  0.00    +0.000 C 
ATOM      4  C   UNL     1       0.151  11.351  18.349  0.00  0.00    +0.000 C 
BRANCH   3   7
ATOM      5  C   UNL     1      -4.073  12.159  19.074  0.00  0.00    +0.000 A 
ATOM      6  C   UNL     1      -2.775  11.658  18.867  0.00  0.00    +0.000 A 
ATOM      7  C   UNL     1      -1.783  11.758  19.848  0.00  0.00    +0.000 A 
ATOM      8  C   UNL     1      -2.098  12.384  21.060  0.00  0.00    +0.000 A 
ATOM      9  C   UNL     1      -3.387  12.860  21.296  0.00  0.00    +0.000 A 
ATOM     10  C   UNL     1      -4.382  12.718  20.324  0.00  0.00    +0.000 A 
BRANCH   5  12
ATOM     11  C   UNL     1      -4.740  11.394  16.929  0.00  0.00    +0.000 C 
ATOM     12  O   UNL     1      -5.057  12.127  18.117  0.00  0.00    +0.000 OA
ENDBRANCH   5  12
BRANCH  10  13
ATOM     13  O   UNL     1      -5.654  13.293  20.556  0.00  0.00    +0.000 OA
BRANCH  13  14
ATOM     14  C   UNL     1      -6.632  12.496  21.165  0.00  0.00    +0.000 C 
ATOM     15  O   UNL     1      -7.266  11.597  20.624  0.00  0.00    +0.000 OA
BRANCH  14  16
ATOM     16  C   UNL     1      -6.718  12.844  22.645  0.00  0.00    +0.000 C 
ATOM     17  C   UNL     1      -6.951  14.337  22.865  0.00  0.00    +0.000 C 
ATOM     18  C   UNL     1      -7.854  12.044  23.282  0.00  0.00    +0.000 C 
ENDBRANCH  14  16
ENDBRANCH  13  14
ENDBRANCH  10  13
ENDBRANCH   3   7
ENDBRANCH   1   4
BRANCH   1  19
ATOM     19  C   UNL     1       1.631   9.368  18.073  0.00  0.00    +0.000 C 
ATOM     20  C   UNL     1       2.830   8.767  18.031  0.00  0.00    +0.000 C 
BRANCH  20  21
ATOM     21  C   UNL     1       3.007   7.312  17.902  0.00  0.00    +0.000 A 
ATOM     22  C   UNL     1       1.917   6.478  18.164  0.00  0.00    +0.000 A 
ATOM     23  C   UNL     1       2.054   5.093  18.089  0.00  0.00    +0.000 A 
ATOM     24  C   UNL     1       3.278   4.529  17.721  0.00  0.00    +0.000 A 
ATOM     25  C   UNL     1       4.397   5.342  17.488  0.00  0.00    +0.000 A 
ATOM     26  C   UNL     1       4.252   6.733  17.595  0.00  0.00    +0.000 A 
BRANCH  25  27
ATOM     27  O   UNL     1       5.581   4.711  17.201  0.00  0.00    +0.000 OA
ATOM     28  C   UNL     1       6.641   4.885  18.136  0.00  0.00    +0.000 C 
ENDBRANCH  25  27
BRANCH  24  29
ATOM     29  O   UNL     1       3.436   3.123  17.650  0.00  0.00    +0.000 OA
BRANCH  29  30
ATOM     30  C   UNL     1       3.003   2.342  18.725  0.00  0.00    +0.000 C 
ATOM     31  O   UNL     1       2.193   1.424  18.672  0.00  0.00    +0.000 OA
BRANCH  30  32
ATOM     32  C   UNL     1       3.665   2.818  20.009  0.00  0.00    +0.000 C 
ATOM     33  C   UNL     1       2.632   2.891  21.128  0.00  0.00    +0.000 C 
ATOM     34  C   UNL     1       4.799   1.866  20.391  0.00  0.00    +0.000 C 
ENDBRANCH  30  32
ENDBRANCH  29  30
ENDBRANCH  24  29
ENDBRANCH  20  21
ENDBRANCH   1  19
TORSDOF 12
ENDMDL
