MODEL 1
REMARK VINA RESULT:      -7.6      0.000      0.000
REMARK  Name = 
REMARK  12 active torsions:
REMARK  status: ('A' for Active; 'I' for Inactive)
REMARK    1  A    between atoms: C_1  and  O_2
REMARK    2  A    between atoms: O_2  and  C_3
REMARK    3  A    between atoms: C_3  and  C_5
REMARK    4  A    between atoms: C_5  and  C_6
REMARK    5  A    between atoms: C_6  and  N_7
REMARK    6  A    between atoms: C_8  and  C_10
REMARK    7  A    between atoms: C_13  and  N_14
REMARK    8  A    between atoms: C_19  and  C_20
REMARK    9  A    between atoms: C_26  and  N_27
REMARK   10  A    between atoms: N_27  and  C_28
REMARK   11  A    between atoms: C_28  and  C_29
REMARK   12  A    between atoms: C_28  and  C_30
REMARK                            x       y       z     vdW  Elec       q    Type
REMARK                         _______ _______ _______ _____ _____    ______ ____
ROOT
ATOM      1  C   UNL     1       2.935   5.751  18.325  0.00  0.00    +0.000 A 
ATOM      2  C   UNL     1       2.831   7.085  17.902  0.00  0.00    +0.000 A 
ATOM      3  N   UNL     1       2.369   8.142  18.651  0.00  0.00    +0.000 NA
ATOM      4  C   UNL     1       1.957   7.864  19.908  0.00  0.00    +0.000 A 
ATOM      5  C   UNL     1       1.983   6.552  20.386  0.00  0.00    +0.000 A 
ATOM      6  C   UNL     1       2.566   5.494  19.661  0.00  0.00    +0.000 A 
ENDROOT
BRANCH   4   7
ATOM      7  N   UNL     1       1.417   8.865  20.797  0.00  0.00    +0.000 N 
ATOM      8  N   UNL     1       1.574   8.710  22.161  0.00  0.00    +0.000 NA
ATOM      9  C   UNL     1       0.591   9.438  22.683  0.00  0.00    +0.000 A 
ATOM     10  C   UNL     1      -0.119  10.157  21.711  0.00  0.00    +0.000 A 
ATOM     11  C   UNL     1      -1.255  10.978  21.681  0.00  0.00    +0.000 A 
ATOM     12  C   UNL     1      -1.420  11.787  20.560  0.00  0.00    +0.000 A 
ATOM     13  C   UNL     1      -0.456  11.722  19.554  0.00  0.00    +0.000 A 
ATOM     14  N   UNL     1       0.534  10.788  19.450  0.00  0.00    +0.000 NA
ATOM     15  C   UNL     1       0.635  10.001  20.546  0.00  0.00    +0.000 A 
BRANCH  12  16
ATOM     16  C   UNL     1      -2.540  12.669  20.451  0.00  0.00    +0.000 C 
ATOM     17  N   UNL     1      -3.443  13.395  20.387  0.00  0.00    +0.000 NA
ENDBRANCH  12  16
ENDBRANCH   4   7
BRANCH   1  19
ATOM     18  N   UNL     1       4.561   5.052  16.572  0.00  0.00    +0.000 N 
ATOM     19  C   UNL     1       3.510   4.693  17.418  0.00  0.00    +0.000 C 
ATOM     20  O   UNL     1       3.059   3.549  17.441  0.00  0.00    +0.000 OA
ATOM     21  H   UNL     1       4.804   6.024  16.472  0.00  0.00    +0.000 HD
BRANCH  18  22
ATOM     22  C   UNL     1       5.336   4.089  15.760  0.00  0.00    +0.000 C 
BRANCH  22  23
ATOM     23  C   UNL     1       6.849   4.310  15.827  0.00  0.00    +0.000 C 
BRANCH  23  24
ATOM     24  C   UNL     1       7.279   5.058  17.077  0.00  0.00    +0.000 C 
ATOM     25  O   UNL     1       7.331   4.602  18.206  0.00  0.00    +0.000 OA
BRANCH  24  27
ATOM     26  C   UNL     1       7.641   7.273  17.838  0.00  0.00    +0.000 C 
ATOM     27  O   UNL     1       7.581   6.354  16.743  0.00  0.00    +0.000 OA
ENDBRANCH  24  27
ENDBRANCH  23  24
ENDBRANCH  22  23
ENDBRANCH  18  22
ENDBRANCH   1  19
BRANCH   6  28
ATOM     28  N   UNL     1       2.660   4.223  20.280  0.00  0.00    +0.000 N 
ATOM     29  H   UNL     1       3.407   4.221  20.989  0.00  0.00    +0.000 HD
BRANCH  28  30
ATOM     30  C   UNL     1       1.400   3.615  20.772  0.00  0.00    +0.000 C 
ATOM     31  C   UNL     1       0.654   2.955  19.616  0.00  0.00    +0.000 C 
ATOM     32  C   UNL     1       1.676   2.611  21.886  0.00  0.00    +0.000 C 
ENDBRANCH  28  30
ENDBRANCH   6  28
TORSDOF 9
ENDMDL
MODEL 2
REMARK VINA RESULT:      -7.4      1.307      1.431
REMARK  Name = 
REMARK  12 active torsions:
REMARK  status: ('A' for Active; 'I' for Inactive)
REMARK    1  A    between atoms: C_1  and  O_2
REMARK    2  A    between atoms: O_2  and  C_3
REMARK    3  A    between atoms: C_3  and  C_5
REMARK    4  A    between atoms: C_5  and  C_6
REMARK    5  A    between atoms: C_6  and  N_7
REMARK    6  A    between atoms: C_8  and  C_10
REMARK    7  A    between atoms: C_13  and  N_14
REMARK    8  A    between atoms: C_19  and  C_20
REMARK    9  A    between atoms: C_26  and  N_27
REMARK   10  A    between atoms: N_27  and  C_28
REMARK   11  A    between atoms: C_28  and  C_29
REMARK   12  A    between atoms: C_28  and  C_30
REMARK                            x       y       z     vdW  Elec       q    Type
REMARK                         _______ _______ _______ _____ _____    ______ ____
ROOT
ATOM      1  C   UNL     1       2.628   6.934  18.605  0.00  0.00    +0.000 A 
ATOM      2  C   UNL     1       2.252   8.244  18.272  0.00  0.00    +0.000 A 
ATOM      3  N   UNL     1       1.666   9.161  19.112  0.00  0.00    +0.000 NA
ATOM      4  C   UNL     1       1.409   8.753  20.375  0.00  0.00    +0.000 A 
ATOM      5  C   UNL     1       1.708   7.447  20.770  0.00  0.00    +0.000 A 
ATOM      6  C   UNL     1       2.415   6.550  19.944  0.00  0.00    +0.000 A 
ENDROOT
BRANCH   4   7
ATOM      7  N   UNL     1       0.768   9.594  21.357  0.00  0.00    +0.000 N 
ATOM      8  N   UNL     1       0.516   9.087  22.618  0.00  0.00    +0.000 NA
ATOM      9  C   UNL     1      -0.478   9.842  23.076  0.00  0.00    +0.000 A 
ATOM     10  C   UNL     1      -0.795  10.897  22.209  0.00  0.00    +0.000 A 
ATOM     11  C   UNL     1      -1.769  11.903  22.145  0.00  0.00    +0.000 A 
ATOM     12  C   UNL     1      -1.514  12.975  21.294  0.00  0.00    +0.000 A 
ATOM     13  C   UNL     1      -0.322  12.972  20.570  0.00  0.00    +0.000 A 
ATOM     14  N   UNL     1       0.537  11.919  20.442  0.00  0.00    +0.000 NA
ATOM     15  C   UNL     1       0.230  10.885  21.261  0.00  0.00    +0.000 A 
BRANCH  12  16
ATOM     16  C   UNL     1      -2.443  14.056  21.178  0.00  0.00    +0.000 C 
ATOM     17  N   UNL     1      -3.204  14.930  21.109  0.00  0.00    +0.000 NA
ENDBRANCH  12  16
ENDBRANCH   4   7
BRANCH   1  19
ATOM     18  N   UNL     1       4.371   6.577  16.862  0.00  0.00    +0.000 N 
ATOM     19  C   UNL     1       3.312   6.044  17.599  0.00  0.00    +0.000 C 
ATOM     20  O   UNL     1       2.941   4.881  17.450  0.00  0.00    +0.000 OA
ATOM     21  H   UNL     1       4.550   7.568  16.902  0.00  0.00    +0.000 HD
BRANCH  18  22
ATOM     22  C   UNL     1       5.245   5.781  15.973  0.00  0.00    +0.000 C 
BRANCH  22  23
ATOM     23  C   UNL     1       6.733   5.892  16.318  0.00  0.00    +0.000 C 
BRANCH  23  24
ATOM     24  C   UNL     1       7.201   4.795  17.259  0.00  0.00    +0.000 C 
ATOM     25  O   UNL     1       8.226   4.146  17.151  0.00  0.00    +0.000 OA
BRANCH  24  27
ATOM     26  C   UNL     1       6.508   5.363  19.453  0.00  0.00    +0.000 C 
ATOM     27  O   UNL     1       6.269   4.625  18.250  0.00  0.00    +0.000 OA
ENDBRANCH  24  27
ENDBRANCH  23  24
ENDBRANCH  22  23
ENDBRANCH  18  22
ENDBRANCH   1  19
BRANCH   6  28
ATOM     28  N   UNL     1       2.784   5.290  20.478  0.00  0.00    +0.000 N 
ATOM     29  H   UNL     1       3.563   5.395  21.144  0.00  0.00    +0.000 HD
BRANCH  28  30
ATOM     30  C   UNL     1       1.695   4.430  20.998  0.00  0.00    +0.000 C 
ATOM     31  C   UNL     1       0.879   3.864  19.839  0.00  0.00    +0.000 C 
ATOM     32  C   UNL     1       2.251   3.310  21.870  0.00  0.00    +0.000 C 
ENDBRANCH  28  30
ENDBRANCH   6  28
TORSDOF 9
ENDMDL
MODEL 3
REMARK VINA RESULT:      -7.3      1.559      1.820
REMARK  Name = 
REMARK  12 active torsions:
REMARK  status: ('A' for Active; 'I' for Inactive)
REMARK    1  A    between atoms: C_1  and  O_2
REMARK    2  A    between atoms: O_2  and  C_3
REMARK    3  A    between atoms: C_3  and  C_5
REMARK    4  A    between atoms: C_5  and  C_6
REMARK    5  A    between atoms: C_6  and  N_7
REMARK    6  A    between atoms: C_8  and  C_10
REMARK    7  A    between atoms: C_13  and  N_14
REMARK    8  A    between atoms: C_19  and  C_20
REMARK    9  A    between atoms: C_26  and  N_27
REMARK   10  A    between atoms: N_27  and  C_28
REMARK   11  A    between atoms: C_28  and  C_29
REMARK   12  A    between atoms: C_28  and  C_30
REMARK                            x       y       z     vdW  Elec       q    Type
REMARK                         _______ _______ _______ _____ _____    ______ ____
ROOT
ATOM      1  C   UNL     1       3.090   6.576  18.110  0.00  0.00    +0.000 A 
ATOM      2  C   UNL     1       2.795   7.774  17.442  0.00  0.00    +0.000 A 
ATOM      3  N   UNL     1       2.140   8.862  17.972  0.00  0.00    +0.000 NA
ATOM      4  C   UNL     1       1.723   8.756  19.253  0.00  0.00    +0.000 A 
ATOM      5  C   UNL     1       1.935   7.577  19.971  0.00  0.00    +0.000 A 
ATOM      6  C   UNL     1       2.709   6.513  19.465  0.00  0.00    +0.000 A 
ENDROOT
BRANCH   4   7
ATOM      7  N   UNL     1       0.995   9.802  19.930  0.00  0.00    +0.000 N 
ATOM      8  N   UNL     1       0.038   9.460  20.866  0.00  0.00    +0.000 NA
ATOM      9  C   UNL     1      -0.764  10.520  20.911  0.00  0.00    +0.000 A 
ATOM     10  C   UNL     1      -0.291  11.583  20.129  0.00  0.00    +0.000 A 
ATOM     11  C   UNL     1      -0.754  12.852  19.752  0.00  0.00    +0.000 A 
ATOM     12  C   UNL     1       0.190  13.743  19.247  0.00  0.00    +0.000 A 
ATOM     13  C   UNL     1       1.514  13.315  19.149  0.00  0.00    +0.000 A 
ATOM     14  N   UNL     1       1.956  12.032  19.300  0.00  0.00    +0.000 NA
ATOM     15  C   UNL     1       0.997  11.193  19.758  0.00  0.00    +0.000 A 
BRANCH  12  16
ATOM     16  C   UNL     1      -0.187  15.065  18.853  0.00  0.00    +0.000 C 
ATOM     17  N   UNL     1      -0.486  16.147  18.558  0.00  0.00    +0.000 NA
ENDBRANCH  12  16
ENDBRANCH   4   7
BRANCH   1  19
ATOM     18  N   UNL     1       4.957   5.836  16.637  0.00  0.00    +0.000 N 
ATOM     19  C   UNL     1       3.863   5.477  17.426  0.00  0.00    +0.000 C 
ATOM     20  O   UNL     1       3.530   4.302  17.577  0.00  0.00    +0.000 OA
ATOM     21  H   UNL     1       5.109   6.807  16.416  0.00  0.00    +0.000 HD
BRANCH  18  22
ATOM     22  C   UNL     1       5.908   4.866  16.051  0.00  0.00    +0.000 C 
BRANCH  22  23
ATOM     23  C   UNL     1       7.145   4.622  16.920  0.00  0.00    +0.000 C 
BRANCH  23  24
ATOM     24  C   UNL     1       7.527   5.833  17.752  0.00  0.00    +0.000 C 
ATOM     25  O   UNL     1       7.691   5.852  18.960  0.00  0.00    +0.000 OA
BRANCH  24  27
ATOM     26  C   UNL     1       7.803   8.182  17.598  0.00  0.00    +0.000 C 
ATOM     27  O   UNL     1       7.637   6.926  16.932  0.00  0.00    +0.000 OA
ENDBRANCH  24  27
ENDBRANCH  23  24
ENDBRANCH  22  23
ENDBRANCH  18  22
ENDBRANCH   1  19
BRANCH   6  28
ATOM     28  N   UNL     1       2.976   5.410  20.315  0.00  0.00    +0.000 N 
ATOM     29  H   UNL     1       3.628   5.682  21.064  0.00  0.00    +0.000 HD
BRANCH  28  30
ATOM     30  C   UNL     1       1.809   4.646  20.818  0.00  0.00    +0.000 C 
ATOM     31  C   UNL     1       1.025   4.061  19.646  0.00  0.00    +0.000 C 
ATOM     32  C   UNL     1       2.248   3.549  21.781  0.00  0.00    +0.000 C 
ENDBRANCH  28  30
ENDBRANCH   6  28
TORSDOF 9
ENDMDL
MODEL 4
REMARK VINA RESULT:      -7.0      1.604      2.400
REMARK  Name = 
REMARK  12 active torsions:
REMARK  status: ('A' for Active; 'I' for Inactive)
REMARK    1  A    between atoms: C_1  and  O_2
REMARK    2  A    between atoms: O_2  and  C_3
REMARK    3  A    between atoms: C_3  and  C_5
REMARK    4  A    between atoms: C_5  and  C_6
REMARK    5  A    between atoms: C_6  and  N_7
REMARK    6  A    between atoms: C_8  and  C_10
REMARK    7  A    between atoms: C_13  and  N_14
REMARK    8  A    between atoms: C_19  and  C_20
REMARK    9  A    between atoms: C_26  and  N_27
REMARK   10  A    between atoms: N_27  and  C_28
REMARK   11  A    between atoms: C_28  and  C_29
REMARK   12  A    between atoms: C_28  and  C_30
REMARK                            x       y       z     vdW  Elec       q    Type
REMARK                         _______ _______ _______ _____ _____    ______ ____
ROOT
ATOM      1  C   UNL     1       3.169   6.712  18.786  0.00  0.00    +0.000 A 
ATOM      2  C   UNL     1       3.056   7.786  17.892  0.00  0.00    +0.000 A 
ATOM      3  N   UNL     1       2.157   8.824  17.975  0.00  0.00    +0.000 NA
ATOM      4  C   UNL     1       1.287   8.793  19.009  0.00  0.00    +0.000 A 
ATOM      5  C   UNL     1       1.303   7.731  19.916  0.00  0.00    +0.000 A 
ATOM      6  C   UNL     1       2.299   6.735  19.895  0.00  0.00    +0.000 A 
ENDROOT
BRANCH   4   7
ATOM      7  N   UNL     1       0.267   9.795  19.205  0.00  0.00    +0.000 N 
ATOM      8  N   UNL     1      -0.393  10.310  18.106  0.00  0.00    +0.000 NA
ATOM      9  C   UNL     1      -0.843  11.490  18.523  0.00  0.00    +0.000 A 
ATOM     10  C   UNL     1      -0.605  11.703  19.888  0.00  0.00    +0.000 A 
ATOM     11  C   UNL     1      -0.777  12.756  20.798  0.00  0.00    +0.000 A 
ATOM     12  C   UNL     1      -0.738  12.432  22.152  0.00  0.00    +0.000 A 
ATOM     13  C   UNL     1      -0.531  11.099  22.504  0.00  0.00    +0.000 A 
ATOM     14  N   UNL     1      -0.147  10.096  21.662  0.00  0.00    +0.000 NA
ATOM     15  C   UNL     1      -0.164  10.465  20.359  0.00  0.00    +0.000 A 
BRANCH  12  16
ATOM     16  C   UNL     1      -0.921  13.438  23.151  0.00  0.00    +0.000 C 
ATOM     17  N   UNL     1      -1.089  14.266  23.948  0.00  0.00    +0.000 NA
ENDBRANCH  12  16
ENDBRANCH   4   7
BRANCH   1  19
ATOM     18  N   UNL     1       4.213   4.891  17.444  0.00  0.00    +0.000 N 
ATOM     19  C   UNL     1       4.237   5.663  18.608  0.00  0.00    +0.000 C 
ATOM     20  O   UNL     1       5.103   5.509  19.468  0.00  0.00    +0.000 OA
ATOM     21  H   UNL     1       3.411   4.940  16.836  0.00  0.00    +0.000 HD
BRANCH  18  22
ATOM     22  C   UNL     1       5.286   3.953  17.051  0.00  0.00    +0.000 C 
BRANCH  22  23
ATOM     23  C   UNL     1       5.831   4.201  15.642  0.00  0.00    +0.000 C 
BRANCH  23  24
ATOM     24  C   UNL     1       7.068   5.081  15.637  0.00  0.00    +0.000 C 
ATOM     25  O   UNL     1       7.712   5.409  14.655  0.00  0.00    +0.000 OA
BRANCH  24  27
ATOM     26  C   UNL     1       7.433   6.842  17.180  0.00  0.00    +0.000 C 
ATOM     27  O   UNL     1       7.373   5.435  16.926  0.00  0.00    +0.000 OA
ENDBRANCH  24  27
ENDBRANCH  23  24
ENDBRANCH  22  23
ENDBRANCH  18  22
ENDBRANCH   1  19
BRANCH   6  28
ATOM     28  N   UNL     1       2.308   5.769  20.932  0.00  0.00    +0.000 N 
ATOM     29  H   UNL     1       1.694   6.064  21.705  0.00  0.00    +0.000 HD
BRANCH  28  30
ATOM     30  C   UNL     1       2.100   4.354  20.541  0.00  0.00    +0.000 C 
ATOM     31  C   UNL     1       2.406   3.437  21.722  0.00  0.00    +0.000 C 
ATOM     32  C   UNL     1       0.680   4.130  20.032  0.00  0.00    +0.000 C 
ENDBRANCH  28  30
ENDBRANCH   6  28
TORSDOF 9
ENDMDL
MODEL 5
REMARK VINA RESULT:      -7.0      4.489      9.732
REMARK  Name = 
REMARK  12 active torsions:
REMARK  status: ('A' for Active; 'I' for Inactive)
REMARK    1  A    between atoms: C_1  and  O_2
REMARK    2  A    between atoms: O_2  and  C_3
REMARK    3  A    between atoms: C_3  and  C_5
REMARK    4  A    between atoms: C_5  and  C_6
REMARK    5  A    between atoms: C_6  and  N_7
REMARK    6  A    between atoms: C_8  and  C_10
REMARK    7  A    between atoms: C_13  and  N_14
REMARK    8  A    between atoms: C_19  and  C_20
REMARK    9  A    between atoms: C_26  and  N_27
REMARK   10  A    between atoms: N_27  and  C_28
REMARK   11  A    between atoms: C_28  and  C_29
REMARK   12  A    between atoms: C_28  and  C_30
REMARK                            x       y       z     vdW  Elec       q    Type
REMARK                         _______ _______ _______ _____ _____    ______ ____
ROOT
ATOM      1  C   UNL     1      -1.135  11.312  19.869  0.00  0.00    +0.000 A 
ATOM      2  C   UNL     1      -0.253  10.803  20.833  0.00  0.00    +0.000 A 
ATOM      3  N   UNL     1       0.770   9.910  20.611  0.00  0.00    +0.000 NA
ATOM      4  C   UNL     1       0.926   9.467  19.344  0.00  0.00    +0.000 A 
ATOM      5  C   UNL     1       0.058   9.888  18.335  0.00  0.00    +0.000 A 
ATOM      6  C   UNL     1      -0.911  10.891  18.542  0.00  0.00    +0.000 A 
ENDROOT
BRANCH   4   7
ATOM      7  N   UNL     1       1.934   8.504  18.968  0.00  0.00    +0.000 N 
ATOM      8  N   UNL     1       2.851   8.836  17.989  0.00  0.00    +0.000 NA
ATOM      9  C   UNL     1       3.265   7.661  17.524  0.00  0.00    +0.000 A 
ATOM     10  C   UNL     1       2.742   6.582  18.249  0.00  0.00    +0.000 A 
ATOM     11  C   UNL     1       2.768   5.184  18.152  0.00  0.00    +0.000 A 
ATOM     12  C   UNL     1       2.410   4.465  19.290  0.00  0.00    +0.000 A 
ATOM     13  C   UNL     1       2.051   5.179  20.433  0.00  0.00    +0.000 A 
ATOM     14  N   UNL     1       1.806   6.520  20.498  0.00  0.00    +0.000 NA
ATOM     15  C   UNL     1       2.135   7.173  19.359  0.00  0.00    +0.000 A 
BRANCH  12  16
ATOM     16  C   UNL     1       2.424   3.035  19.288  0.00  0.00    +0.000 C 
ATOM     17  N   UNL     1       2.455   1.875  19.306  0.00  0.00    +0.000 NA
ENDBRANCH  12  16
ENDBRANCH   4   7
BRANCH   1  19
ATOM     18  N   UNL     1      -2.007  13.061  21.412  0.00  0.00    +0.000 N 
ATOM     19  C   UNL     1      -2.184  12.329  20.237  0.00  0.00    +0.000 C 
ATOM     20  O   UNL     1      -3.160  12.502  19.508  0.00  0.00    +0.000 OA
ATOM     21  H   UNL     1      -1.280  12.792  22.056  0.00  0.00    +0.000 HD
BRANCH  18  22
ATOM     22  C   UNL     1      -2.854  14.206  21.810  0.00  0.00    +0.000 C 
BRANCH  22  23
ATOM     23  C   UNL     1      -3.494  14.043  23.192  0.00  0.00    +0.000 C 
BRANCH  23  24
ATOM     24  C   UNL     1      -4.171  12.695  23.370  0.00  0.00    +0.000 C 
ATOM     25  O   UNL     1      -4.017  11.933  24.309  0.00  0.00    +0.000 OA
BRANCH  24  27
ATOM     26  C   UNL     1      -6.328  12.897  22.410  0.00  0.00    +0.000 C 
ATOM     27  O   UNL     1      -4.974  12.449  22.287  0.00  0.00    +0.000 OA
ENDBRANCH  24  27
ENDBRANCH  23  24
ENDBRANCH  22  23
ENDBRANCH  18  22
ENDBRANCH   1  19
BRANCH   6  28
ATOM     28  N   UNL     1      -1.661  11.344  17.428  0.00  0.00    +0.000 N 
ATOM     29  H   UNL     1      -1.091  11.967  16.838  0.00  0.00    +0.000 HD
BRANCH  28  30
ATOM     30  C   UNL     1      -2.392  10.321  16.643  0.00  0.00    +0.000 C 
ATOM     31  C   UNL     1      -3.453   9.654  17.515  0.00  0.00    +0.000 C 
ATOM     32  C   UNL     1      -3.020  10.933  15.396  0.00  0.00    +0.000 C 
ENDBRANCH  28  30
ENDBRANCH   6  28
TORSDOF 9
ENDMDL
MODEL 6
REMARK VINA RESULT:      -6.9      1.733      2.692
REMARK  Name = 
REMARK  12 active torsions:
REMARK  status: ('A' for Active; 'I' for Inactive)
REMARK    1  A    between atoms: C_1  and  O_2
REMARK    2  A    between atoms: O_2  and  C_3
REMARK    3  A    between atoms: C_3  and  C_5
REMARK    4  A    between atoms: C_5  and  C_6
REMARK    5  A    between atoms: C_6  and  N_7
REMARK    6  A    between atoms: C_8  and  C_10
REMARK    7  A    between atoms: C_13  and  N_14
REMARK    8  A    between atoms: C_19  and  C_20
REMARK    9  A    between atoms: C_26  and  N_27
REMARK   10  A    between atoms: N_27  and  C_28
REMARK   11  A    between atoms: C_28  and  C_29
REMARK   12  A    between atoms: C_28  and  C_30
REMARK                            x       y       z     vdW  Elec       q    Type
REMARK                         _______ _______ _______ _____ _____    ______ ____
ROOT
ATOM      1  C   UNL     1       3.427   6.556  18.688  0.00  0.00    +0.000 A 
ATOM      2  C   UNL     1       3.297   7.642  17.810  0.00  0.00    +0.000 A 
ATOM      3  N   UNL     1       2.365   8.651  17.895  0.00  0.00    +0.000 NA
ATOM      4  C   UNL     1       1.478   8.576  18.912  0.00  0.00    +0.000 A 
ATOM      5  C   UNL     1       1.511   7.499  19.801  0.00  0.00    +0.000 A 
ATOM      6  C   UNL     1       2.538   6.534  19.781  0.00  0.00    +0.000 A 
ENDROOT
BRANCH   4   7
ATOM      7  N   UNL     1       0.425   9.543  19.108  0.00  0.00    +0.000 N 
ATOM      8  N   UNL     1      -0.258  10.028  18.008  0.00  0.00    +0.000 NA
ATOM      9  C   UNL     1      -0.746  11.194  18.420  0.00  0.00    +0.000 A 
ATOM     10  C   UNL     1      -0.509  11.425  19.782  0.00  0.00    +0.000 A 
ATOM     11  C   UNL     1      -0.712  12.477  20.686  0.00  0.00    +0.000 A 
ATOM     12  C   UNL     1      -0.655  12.165  22.042  0.00  0.00    +0.000 A 
ATOM     13  C   UNL     1      -0.399  10.841  22.402  0.00  0.00    +0.000 A 
ATOM     14  N   UNL     1       0.015   9.847  21.564  0.00  0.00    +0.000 NA
ATOM     15  C   UNL     1      -0.022  10.206  20.260  0.00  0.00    +0.000 A 
BRANCH  12  16
ATOM     16  C   UNL     1      -0.867  13.170  23.035  0.00  0.00    +0.000 C 
ATOM     17  N   UNL     1      -1.020  13.976  23.857  0.00  0.00    +0.000 NA
ENDBRANCH  12  16
ENDBRANCH   4   7
BRANCH   1  19
ATOM     18  N   UNL     1       4.588   4.840  17.306  0.00  0.00    +0.000 N 
ATOM     19  C   UNL     1       4.529   5.543  18.511  0.00  0.00    +0.000 C 
ATOM     20  O   UNL     1       5.350   5.360  19.408  0.00  0.00    +0.000 OA
ATOM     21  H   UNL     1       3.819   4.906  16.658  0.00  0.00    +0.000 HD
BRANCH  18  22
ATOM     22  C   UNL     1       5.704   3.949  16.921  0.00  0.00    +0.000 C 
BRANCH  22  23
ATOM     23  C   UNL     1       6.953   4.701  16.452  0.00  0.00    +0.000 C 
BRANCH  23  24
ATOM     24  C   UNL     1       6.991   4.897  14.947  0.00  0.00    +0.000 C 
ATOM     25  O   UNL     1       7.828   5.527  14.325  0.00  0.00    +0.000 OA
BRANCH  24  27
ATOM     26  C   UNL     1       6.136   3.684  13.099  0.00  0.00    +0.000 C 
ATOM     27  O   UNL     1       5.909   4.270  14.385  0.00  0.00    +0.000 OA
ENDBRANCH  24  27
ENDBRANCH  23  24
ENDBRANCH  22  23
ENDBRANCH  18  22
ENDBRANCH   1  19
BRANCH   6  28
ATOM     28  N   UNL     1       2.558   5.550  20.802  0.00  0.00    +0.000 N 
ATOM     29  H   UNL     1       2.019   5.868  21.620  0.00  0.00    +0.000 HD
BRANCH  28  30
ATOM     30  C   UNL     1       2.234   4.158  20.407  0.00  0.00    +0.000 C 
ATOM     31  C   UNL     1       2.604   3.198  21.534  0.00  0.00    +0.000 C 
ATOM     32  C   UNL     1       0.762   4.023  20.037  0.00  0.00    +0.000 C 
ENDBRANCH  28  30
ENDBRANCH   6  28
TORSDOF 9
ENDMDL
MODEL 7
REMARK VINA RESULT:      -6.8      2.188      3.016
REMARK  Name = 
REMARK  12 active torsions:
REMARK  status: ('A' for Active; 'I' for Inactive)
REMARK    1  A    between atoms: C_1  and  O_2
REMARK    2  A    between atoms: O_2  and  C_3
REMARK    3  A    between atoms: C_3  and  C_5
REMARK    4  A    between atoms: C_5  and  C_6
REMARK    5  A    between atoms: C_6  and  N_7
REMARK    6  A    between atoms: C_8  and  C_10
REMARK    7  A    between atoms: C_13  and  N_14
REMARK    8  A    between atoms: C_19  and  C_20
REMARK    9  A    between atoms: C_26  and  N_27
REMARK   10  A    between atoms: N_27  and  C_28
REMARK   11  A    between atoms: C_28  and  C_29
REMARK   12  A    between atoms: C_28  and  C_30
REMARK                            x       y       z     vdW  Elec       q    Type
REMARK                         _______ _______ _______ _____ _____    ______ ____
ROOT
ATOM      1  C   UNL     1       3.370   6.725  18.462  0.00  0.00    +0.000 A 
ATOM      2  C   UNL     1       3.282   7.791  17.555  0.00  0.00    +0.000 A 
ATOM      3  N   UNL     1       2.462   8.890  17.668  0.00  0.00    +0.000 NA
ATOM      4  C   UNL     1       1.649   8.934  18.747  0.00  0.00    +0.000 A 
ATOM      5  C   UNL     1       1.642   7.887  19.671  0.00  0.00    +0.000 A 
ATOM      6  C   UNL     1       2.565   6.824  19.615  0.00  0.00    +0.000 A 
ENDROOT
BRANCH   4   7
ATOM      7  N   UNL     1       0.712  10.007  18.980  0.00  0.00    +0.000 N 
ATOM      8  N   UNL     1      -0.643   9.752  18.882  0.00  0.00    +0.000 NA
ATOM      9  C   UNL     1      -1.178  10.944  18.635  0.00  0.00    +0.000 A 
ATOM     10  C   UNL     1      -0.235  11.979  18.692  0.00  0.00    +0.000 A 
ATOM     11  C   UNL     1      -0.222  13.358  18.440  0.00  0.00    +0.000 A 
ATOM     12  C   UNL     1       0.845  14.085  18.964  0.00  0.00    +0.000 A 
ATOM     13  C   UNL     1       1.816  13.397  19.691  0.00  0.00    +0.000 A 
ATOM     14  N   UNL     1       1.950  12.041  19.770  0.00  0.00    +0.000 NA
ATOM     15  C   UNL     1       0.910  11.375  19.217  0.00  0.00    +0.000 A 
BRANCH  12  16
ATOM     16  C   UNL     1       0.932  15.499  18.772  0.00  0.00    +0.000 C 
ATOM     17  N   UNL     1       1.018  16.649  18.639  0.00  0.00    +0.000 NA
ENDBRANCH  12  16
ENDBRANCH   4   7
BRANCH   1  19
ATOM     18  N   UNL     1       4.612   5.199  16.934  0.00  0.00    +0.000 N 
ATOM     19  C   UNL     1       4.352   5.602  18.246  0.00  0.00    +0.000 C 
ATOM     20  O   UNL     1       4.907   5.072  19.207  0.00  0.00    +0.000 OA
ATOM     21  H   UNL     1       4.034   5.549  16.187  0.00  0.00    +0.000 HD
BRANCH  18  22
ATOM     22  C   UNL     1       5.672   4.239  16.558  0.00  0.00    +0.000 C 
BRANCH  22  23
ATOM     23  C   UNL     1       6.937   4.907  16.013  0.00  0.00    +0.000 C 
BRANCH  23  24
ATOM     24  C   UNL     1       6.979   4.938  14.495  0.00  0.00    +0.000 C 
ATOM     25  O   UNL     1       7.783   5.547  13.811  0.00  0.00    +0.000 OA
BRANCH  24  27
ATOM     26  C   UNL     1       6.206   3.513  12.767  0.00  0.00    +0.000 C 
ATOM     27  O   UNL     1       5.944   4.187  14.002  0.00  0.00    +0.000 OA
ENDBRANCH  24  27
ENDBRANCH  23  24
ENDBRANCH  22  23
ENDBRANCH  18  22
ENDBRANCH   1  19
BRANCH   6  28
ATOM     28  N   UNL     1       2.564   5.874  20.667  0.00  0.00    +0.000 N 
ATOM     29  H   UNL     1       2.593   6.348  21.581  0.00  0.00    +0.000 HD
BRANCH  28  30
ATOM     30  C   UNL     1       1.544   4.800  20.609  0.00  0.00    +0.000 C 
ATOM     31  C   UNL     1       1.362   4.331  19.168  0.00  0.00    +0.000 C 
ATOM     32  C   UNL     1       1.922   3.636  21.517  0.00  0.00    +0.000 C 
ENDBRANCH  28  30
ENDBRANCH   6  28
TORSDOF 9
ENDMDL
MODEL 8
REMARK VINA RESULT:      -6.8      1.319      1.845
REMARK  Name = 
REMARK  12 active torsions:
REMARK  status: ('A' for Active; 'I' for Inactive)
REMARK    1  A    between atoms: C_1  and  O_2
REMARK    2  A    between atoms: O_2  and  C_3
REMARK    3  A    between atoms: C_3  and  C_5
REMARK    4  A    between atoms: C_5  and  C_6
REMARK    5  A    between atoms: C_6  and  N_7
REMARK    6  A    between atoms: C_8  and  C_10
REMARK    7  A    between atoms: C_13  and  N_14
REMARK    8  A    between atoms: C_19  and  C_20
REMARK    9  A    between atoms: C_26  and  N_27
REMARK   10  A    between atoms: N_27  and  C_28
REMARK   11  A    between atoms: C_28  and  C_29
REMARK   12  A    between atoms: C_28  and  C_30
REMARK                            x       y       z     vdW  Elec       q    Type
REMARK                         _______ _______ _______ _____ _____    ______ ____
ROOT
ATOM      1  C   UNL     1       2.867   5.645  18.177  0.00  0.00    +0.000 A 
ATOM      2  C   UNL     1       3.125   7.004  17.944  0.00  0.00    +0.000 A 
ATOM      3  N   UNL     1       2.717   8.057  18.729  0.00  0.00    +0.000 NA
ATOM      4  C   UNL     1       1.978   7.752  19.820  0.00  0.00    +0.000 A 
ATOM      5  C   UNL     1       1.637   6.426  20.094  0.00  0.00    +0.000 A 
ATOM      6  C   UNL     1       2.156   5.343  19.356  0.00  0.00    +0.000 A 
ENDROOT
BRANCH   4   7
ATOM      7  N   UNL     1       1.453   8.753  20.716  0.00  0.00    +0.000 N 
ATOM      8  N   UNL     1       1.599   8.581  22.080  0.00  0.00    +0.000 NA
ATOM      9  C   UNL     1       0.627   9.321  22.605  0.00  0.00    +0.000 A 
ATOM     10  C   UNL     1      -0.065  10.063  21.637  0.00  0.00    +0.000 A 
ATOM     11  C   UNL     1      -1.186  10.905  21.611  0.00  0.00    +0.000 A 
ATOM     12  C   UNL     1      -1.330  11.729  20.497  0.00  0.00    +0.000 A 
ATOM     13  C   UNL     1      -0.362  11.657  19.496  0.00  0.00    +0.000 A 
ATOM     14  N   UNL     1       0.611  10.707  19.386  0.00  0.00    +0.000 NA
ATOM     15  C   UNL     1       0.692   9.906  20.474  0.00  0.00    +0.000 A 
BRANCH  12  16
ATOM     16  C   UNL     1      -2.433  12.632  20.392  0.00  0.00    +0.000 C 
ATOM     17  N   UNL     1      -3.329  13.368  20.334  0.00  0.00    +0.000 NA
ENDBRANCH  12  16
ENDBRANCH   4   7
BRANCH   1  19
ATOM     18  N   UNL     1       4.695   4.773  16.727  0.00  0.00    +0.000 N 
ATOM     19  C   UNL     1       3.419   4.583  17.261  0.00  0.00    +0.000 C 
ATOM     20  O   UNL     1       2.755   3.578  17.009  0.00  0.00    +0.000 OA
ATOM     21  H   UNL     1       5.146   5.668  16.833  0.00  0.00    +0.000 HD
BRANCH  18  22
ATOM     22  C   UNL     1       5.433   3.746  15.961  0.00  0.00    +0.000 C 
BRANCH  22  23
ATOM     23  C   UNL     1       5.644   4.114  14.489  0.00  0.00    +0.000 C 
BRANCH  23  24
ATOM     24  C   UNL     1       6.940   4.871  14.253  0.00  0.00    +0.000 C 
ATOM     25  O   UNL     1       7.549   5.527  15.079  0.00  0.00    +0.000 OA
BRANCH  24  27
ATOM     26  C   UNL     1       6.623   3.701  12.216  0.00  0.00    +0.000 C 
ATOM     27  O   UNL     1       7.312   4.725  12.941  0.00  0.00    +0.000 OA
ENDBRANCH  24  27
ENDBRANCH  23  24
ENDBRANCH  22  23
ENDBRANCH  18  22
ENDBRANCH   1  19
BRANCH   6  28
ATOM     28  N   UNL     1       1.854   4.027  19.787  0.00  0.00    +0.000 N 
ATOM     29  H   UNL     1       1.779   3.392  18.979  0.00  0.00    +0.000 HD
BRANCH  28  30
ATOM     30  C   UNL     1       2.680   3.467  20.883  0.00  0.00    +0.000 C 
ATOM     31  C   UNL     1       1.797   2.690  21.856  0.00  0.00    +0.000 C 
ATOM     32  C   UNL     1       3.793   2.583  20.333  0.00  0.00    +0.000 C 
ENDBRANCH  28  30
ENDBRANCH   6  28
TORSDOF 9
ENDMDL
MODEL 9
REMARK VINA RESULT:      -6.7      1.578      1.966
REMARK  Name = 
REMARK  12 active torsions:
REMARK  status: ('A' for Active; 'I' for Inactive)
REMARK    1  A    between atoms: C_1  and  O_2
REMARK    2  A    between atoms: O_2  and  C_3
REMARK    3  A    between atoms: C_3  and  C_5
REMARK    4  A    between atoms: C_5  and  C_6
REMARK    5  A    between atoms: C_6  and  N_7
REMARK    6  A    between atoms: C_8  and  C_10
REMARK    7  A    between atoms: C_13  and  N_14
REMARK    8  A    between atoms: C_19  and  C_20
REMARK    9  A    between atoms: C_26  and  N_27
REMARK   10  A    between atoms: N_27  and  C_28
REMARK   11  A    between atoms: C_28  and  C_29
REMARK   12  A    between atoms: C_28  and  C_30
REMARK                            x       y       z     vdW  Elec       q    Type
REMARK                         _______ _______ _______ _____ _____    ______ ____
ROOT
ATOM      1  C   UNL     1       3.161   6.528  18.599  0.00  0.00    +0.000 A 
ATOM      2  C   UNL     1       3.056   7.639  17.749  0.00  0.00    +0.000 A 
ATOM      3  N   UNL     1       2.337   8.786  17.994  0.00  0.00    +0.000 NA
ATOM      4  C   UNL     1       1.651   8.838  19.157  0.00  0.00    +0.000 A 
ATOM      5  C   UNL     1       1.665   7.752  20.036  0.00  0.00    +0.000 A 
ATOM      6  C   UNL     1       2.495   6.631  19.837  0.00  0.00    +0.000 A 
ENDROOT
BRANCH   4   7
ATOM      7  N   UNL     1       0.827   9.962  19.533  0.00  0.00    +0.000 N 
ATOM      8  N   UNL     1       1.072  10.607  20.731  0.00  0.00    +0.000 NA
ATOM      9  C   UNL     1      -0.084  11.194  21.023  0.00  0.00    +0.000 A 
ATOM     10  C   UNL     1      -1.031  11.057  19.999  0.00  0.00    +0.000 A 
ATOM     11  C   UNL     1      -2.381  11.383  19.811  0.00  0.00    +0.000 A 
ATOM     12  C   UNL     1      -2.853  11.389  18.500  0.00  0.00    +0.000 A 
ATOM     13  C   UNL     1      -1.959  11.070  17.478  0.00  0.00    +0.000 A 
ATOM     14  N   UNL     1      -0.711  10.541  17.638  0.00  0.00    +0.000 NA
ATOM     15  C   UNL     1      -0.308  10.521  18.930  0.00  0.00    +0.000 A 
BRANCH  12  16
ATOM     16  C   UNL     1      -4.211  11.727  18.212  0.00  0.00    +0.000 C 
ATOM     17  N   UNL     1      -5.315  12.018  17.999  0.00  0.00    +0.000 NA
ENDBRANCH  12  16
ENDBRANCH   4   7
BRANCH   1  19
ATOM     18  N   UNL     1       3.992   4.893  16.914  0.00  0.00    +0.000 N 
ATOM     19  C   UNL     1       4.027   5.351  18.233  0.00  0.00    +0.000 C 
ATOM     20  O   UNL     1       4.745   4.824  19.082  0.00  0.00    +0.000 OA
ATOM     21  H   UNL     1       3.288   5.249  16.287  0.00  0.00    +0.000 HD
BRANCH  18  22
ATOM     22  C   UNL     1       4.909   3.869  16.368  0.00  0.00    +0.000 C 
BRANCH  22  23
ATOM     23  C   UNL     1       5.653   4.322  15.109  0.00  0.00    +0.000 C 
BRANCH  23  24
ATOM     24  C   UNL     1       6.943   5.060  15.421  0.00  0.00    +0.000 C 
ATOM     25  O   UNL     1       7.832   5.319  14.629  0.00  0.00    +0.000 OA
BRANCH  24  27
ATOM     26  C   UNL     1       7.823   4.553  17.563  0.00  0.00    +0.000 C 
ATOM     27  O   UNL     1       6.970   5.372  16.756  0.00  0.00    +0.000 OA
ENDBRANCH  24  27
ENDBRANCH  23  24
ENDBRANCH  22  23
ENDBRANCH  18  22
ENDBRANCH   1  19
BRANCH   6  28
ATOM     28  N   UNL     1       2.537   5.636  20.846  0.00  0.00    +0.000 N 
ATOM     29  H   UNL     1       2.648   6.068  21.775  0.00  0.00    +0.000 HD
BRANCH  28  30
ATOM     30  C   UNL     1       1.477   4.599  20.819  0.00  0.00    +0.000 C 
ATOM     31  C   UNL     1       1.187   4.189  19.378  0.00  0.00    +0.000 C 
ATOM     32  C   UNL     1       1.873   3.391  21.660  0.00  0.00    +0.000 C 
ENDBRANCH  28  30
ENDBRANCH   6  28
TORSDOF 9
ENDMDL
