MODEL 1
REMARK VINA RESULT:      -8.7      0.000      0.000
REMARK  Name = 
REMARK  13 active torsions:
REMARK  status: ('A' for Active; 'I' for Inactive)
REMARK    1  A    between atoms: C_1  and  O_2
REMARK    2  A    between atoms: O_2  and  C_3
REMARK    3  A    between atoms: C_5  and  O_6
REMARK    4  A    between atoms: O_6  and  C_7
REMARK    5  A    between atoms: C_9  and  N_10
REMARK    6  A    between atoms: N_10  and  C_11
REMARK    7  A    between atoms: N_10  and  C_20
REMARK    8  A    between atoms: C_11  and  C_12
REMARK    9  A    between atoms: C_12  and  N_13
REMARK   10  A    between atoms: C_14  and  C_15
REMARK   11  A    between atoms: C_18  and  C_19
REMARK   12  A    between atoms: C_26  and  C_27
REMARK   13  A    between atoms: N_30  and  C_31
REMARK                            x       y       z     vdW  Elec       q    Type
REMARK                         _______ _______ _______ _____ _____    ______ ____
ROOT
ATOM      1  N   UNL     1       0.119  10.819  19.062  0.00  0.00    +0.000 N 
ENDROOT
BRANCH   1   2
ATOM      2  C   UNL     1       0.931   9.629  19.255  0.00  0.00    +0.000 A 
ATOM      3  C   UNL     1       0.935   8.946  20.480  0.00  0.00    +0.000 A 
ATOM      4  C   UNL     1       1.618   7.747  20.643  0.00  0.00    +0.000 A 
ATOM      5  C   UNL     1       2.330   7.176  19.619  0.00  0.00    +0.000 A 
ATOM      6  N   UNL     1       2.848   5.979  19.894  0.00  0.00    +0.000 NA
ATOM      7  C   UNL     1       3.561   5.409  18.911  0.00  0.00    +0.000 A 
ATOM      8  C   UNL     1       3.808   6.020  17.689  0.00  0.00    +0.000 A 
ATOM      9  N   UNL     1       3.254   7.241  17.399  0.00  0.00    +0.000 NA
ATOM     10  C   UNL     1       2.470   7.833  18.372  0.00  0.00    +0.000 A 
ATOM     11  C   UNL     1       1.754   9.063  18.231  0.00  0.00    +0.000 A 
BRANCH   8  12
ATOM     12  C   UNL     1       4.704   5.334  16.759  0.00  0.00    +0.000 A 
ATOM     13  C   UNL     1       5.134   3.975  16.777  0.00  0.00    +0.000 A 
ATOM     14  N   UNL     1       6.006   3.682  15.815  0.00  0.00    +0.000 NA
ATOM     15  N   UNL     1       6.167   4.853  15.179  0.00  0.00    +0.000 N 
ATOM     16  C   UNL     1       7.112   4.919  14.089  0.00  0.00    +0.000 C 
ATOM     17  C   UNL     1       5.401   5.867  15.692  0.00  0.00    +0.000 A 
ENDBRANCH   8  12
ENDBRANCH   1   2
BRANCH   1  22
ATOM     18  C   UNL     1      -2.756  10.098  16.740  0.00  0.00    +0.000 A 
ATOM     19  C   UNL     1      -3.767  10.869  17.303  0.00  0.00    +0.000 A 
ATOM     20  C   UNL     1      -3.509  11.643  18.426  0.00  0.00    +0.000 A 
ATOM     21  C   UNL     1      -2.226  11.636  18.989  0.00  0.00    +0.000 A 
ATOM     22  C   UNL     1      -1.185  10.831  18.495  0.00  0.00    +0.000 A 
ATOM     23  C   UNL     1      -1.492  10.063  17.350  0.00  0.00    +0.000 A 
BRANCH  18  25
ATOM     24  C   UNL     1      -3.458  10.246  14.472  0.00  0.00    +0.000 C 
ATOM     25  O   UNL     1      -3.126   9.445  15.596  0.00  0.00    +0.000 OA
ENDBRANCH  18  25
BRANCH  20  26
ATOM     26  O   UNL     1      -4.577  12.367  18.884  0.00  0.00    +0.000 OA
ATOM     27  C   UNL     1      -5.638  11.627  19.477  0.00  0.00    +0.000 C 
ENDBRANCH  20  26
ENDBRANCH   1  22
BRANCH   1  28
ATOM     28  C   UNL     1       0.674  12.034  19.793  0.00  0.00    +0.000 C 
BRANCH  28  29
ATOM     29  C   UNL     1       0.735  12.137  21.323  0.00  0.00    +0.000 C 
BRANCH  29  30
ATOM     30  N   UNL     1      -0.584  12.334  21.943  0.00  0.00    +0.000 N 
ATOM     31  C   UNL     1      -1.228  11.439  22.777  0.00  0.00    +0.000 A 
ATOM     32  C   UNL     1      -0.783  10.063  23.105  0.00  0.00    +0.000 C 
ATOM     33  C   UNL     1      -2.345  12.110  23.226  0.00  0.00    +0.000 A 
ATOM     34  N   UNL     1      -2.408  13.365  22.691  0.00  0.00    +0.000 NA
ATOM     35  C   UNL     1      -1.337  13.497  21.942  0.00  0.00    +0.000 A 
ATOM     36  C   UNL     1      -0.976  14.743  21.217  0.00  0.00    +0.000 C 
ENDBRANCH  29  30
ENDBRANCH  28  29
ENDBRANCH   1  28
TORSDOF 8
ENDMDL
MODEL 2
REMARK VINA RESULT:      -8.6      4.020      9.610
REMARK  Name = 
REMARK  13 active torsions:
REMARK  status: ('A' for Active; 'I' for Inactive)
REMARK    1  A    between atoms: C_1  and  O_2
REMARK    2  A    between atoms: O_2  and  C_3
REMARK    3  A    between atoms: C_5  and  O_6
REMARK    4  A    between atoms: O_6  and  C_7
REMARK    5  A    between atoms: C_9  and  N_10
REMARK    6  A    between atoms: N_10  and  C_11
REMARK    7  A    between atoms: N_10  and  C_20
REMARK    8  A    between atoms: C_11  and  C_12
REMARK    9  A    between atoms: C_12  and  N_13
REMARK   10  A    between atoms: C_14  and  C_15
REMARK   11  A    between atoms: C_18  and  C_19
REMARK   12  A    between atoms: C_26  and  C_27
REMARK   13  A    between atoms: N_30  and  C_31
REMARK                            x       y       z     vdW  Elec       q    Type
REMARK                         _______ _______ _______ _____ _____    ______ ____
ROOT
ATOM      1  N   UNL     1       3.296   5.436  17.606  0.00  0.00    +0.000 N 
ENDROOT
BRANCH   1   2
ATOM      2  C   UNL     1       2.622   6.394  18.466  0.00  0.00    +0.000 A 
ATOM      3  C   UNL     1       2.241   6.054  19.772  0.00  0.00    +0.000 A 
ATOM      4  C   UNL     1       1.699   6.992  20.642  0.00  0.00    +0.000 A 
ATOM      5  C   UNL     1       1.499   8.296  20.264  0.00  0.00    +0.000 A 
ATOM      6  N   UNL     1       1.065   9.101  21.234  0.00  0.00    +0.000 NA
ATOM      7  C   UNL     1       0.849  10.377  20.883  0.00  0.00    +0.000 A 
ATOM      8  C   UNL     1       1.007  10.854  19.588  0.00  0.00    +0.000 A 
ATOM      9  N   UNL     1       1.477  10.030  18.598  0.00  0.00    +0.000 NA
ATOM     10  C   UNL     1       1.759   8.720  18.939  0.00  0.00    +0.000 A 
ATOM     11  C   UNL     1       2.320   7.734  18.067  0.00  0.00    +0.000 A 
BRANCH   8  12
ATOM     12  C   UNL     1       0.617  12.239  19.326  0.00  0.00    +0.000 A 
ATOM     13  C   UNL     1      -0.462  12.725  18.532  0.00  0.00    +0.000 A 
ATOM     14  N   UNL     1      -0.504  14.053  18.449  0.00  0.00    +0.000 NA
ATOM     15  N   UNL     1       0.561  14.439  19.169  0.00  0.00    +0.000 N 
ATOM     16  C   UNL     1       0.862  15.849  19.248  0.00  0.00    +0.000 C 
ATOM     17  C   UNL     1       1.255  13.397  19.727  0.00  0.00    +0.000 A 
ENDBRANCH   8  12
ENDBRANCH   1   2
BRANCH   1  22
ATOM     18  C   UNL     1       6.950   6.341  17.606  0.00  0.00    +0.000 A 
ATOM     19  C   UNL     1       7.384   5.742  16.427  0.00  0.00    +0.000 A 
ATOM     20  C   UNL     1       6.484   5.062  15.620  0.00  0.00    +0.000 A 
ATOM     21  C   UNL     1       5.139   4.979  16.004  0.00  0.00    +0.000 A 
ATOM     22  C   UNL     1       4.660   5.515  17.211  0.00  0.00    +0.000 A 
ATOM     23  C   UNL     1       5.610   6.202  17.999  0.00  0.00    +0.000 A 
BRANCH  18  25
ATOM     24  C   UNL     1       8.106   8.400  17.898  0.00  0.00    +0.000 C 
ATOM     25  O   UNL     1       7.924   7.040  18.265  0.00  0.00    +0.000 OA
ENDBRANCH  18  25
BRANCH  20  26
ATOM     26  O   UNL     1       7.023   4.523  14.483  0.00  0.00    +0.000 OA
ATOM     27  C   UNL     1       6.128   3.822  13.627  0.00  0.00    +0.000 C 
ENDBRANCH  20  26
ENDBRANCH   1  22
BRANCH   1  28
ATOM     28  C   UNL     1       2.484   4.164  17.394  0.00  0.00    +0.000 C 
BRANCH  28  29
ATOM     29  C   UNL     1       2.909   2.797  17.946  0.00  0.00    +0.000 C 
BRANCH  29  30
ATOM     30  N   UNL     1       2.585   2.620  19.370  0.00  0.00    +0.000 N 
ATOM     31  C   UNL     1       3.501   2.510  20.400  0.00  0.00    +0.000 A 
ATOM     32  C   UNL     1       4.975   2.418  20.264  0.00  0.00    +0.000 C 
ATOM     33  C   UNL     1       2.744   2.514  21.552  0.00  0.00    +0.000 A 
ATOM     34  N   UNL     1       1.413   2.610  21.261  0.00  0.00    +0.000 NA
ATOM     35  C   UNL     1       1.331   2.697  19.953  0.00  0.00    +0.000 A 
ATOM     36  C   UNL     1       0.057   2.879  19.208  0.00  0.00    +0.000 C 
ENDBRANCH  29  30
ENDBRANCH  28  29
ENDBRANCH   1  28
TORSDOF 8
ENDMDL
MODEL 3
REMARK VINA RESULT:      -8.6      4.007      9.507
REMARK  Name = 
REMARK  13 active torsions:
REMARK  status: ('A' for Active; 'I' for Inactive)
REMARK    1  A    between atoms: C_1  and  O_2
REMARK    2  A    between atoms: O_2  and  C_3
REMARK    3  A    between atoms: C_5  and  O_6
REMARK    4  A    between atoms: O_6  and  C_7
REMARK    5  A    between atoms: C_9  and  N_10
REMARK    6  A    between atoms: N_10  and  C_11
REMARK    7  A    between atoms: N_10  and  C_20
REMARK    8  A    between atoms: C_11  and  C_12
REMARK    9  A    between atoms: C_12  and  N_13
REMARK   10  A    between atoms: C_14  and  C_15
REMARK   11  A    between atoms: C_18  and  C_19
REMARK   12  A    between atoms: C_26  and  C_27
REMARK   13  A    between atoms: N_30  and  C_31
REMARK                            x       y       z     vdW  Elec       q    Type
REMARK                         _______ _______ _______ _____ _____    ______ ____
ROOT
ATOM      1  N   UNL     1       3.152   5.470  17.744  0.00  0.00    +0.000 N 
ENDROOT
BRANCH   1   2
ATOM      2  C   UNL     1       2.518   6.420  18.643  0.00  0.00    +0.000 A 
ATOM      3  C   UNL     1       2.276   6.097  19.986  0.00  0.00    +0.000 A 
ATOM      4  C   UNL     1       1.774   7.033  20.882  0.00  0.00    +0.000 A 
ATOM      5  C   UNL     1       1.481   8.316  20.497  0.00  0.00    +0.000 A 
ATOM      6  N   UNL     1       1.103   9.127  21.486  0.00  0.00    +0.000 NA
ATOM      7  C   UNL     1       0.797  10.383  21.129  0.00  0.00    +0.000 A 
ATOM      8  C   UNL     1       0.813  10.833  19.815  0.00  0.00    +0.000 A 
ATOM      9  N   UNL     1       1.226  10.005  18.803  0.00  0.00    +0.000 NA
ATOM     10  C   UNL     1       1.598   8.717  19.144  0.00  0.00    +0.000 A 
ATOM     11  C   UNL     1       2.119   7.735  18.245  0.00  0.00    +0.000 A 
BRANCH   8  12
ATOM     12  C   UNL     1       0.338  12.193  19.561  0.00  0.00    +0.000 A 
ATOM     13  C   UNL     1       0.539  13.005  18.407  0.00  0.00    +0.000 A 
ATOM     14  N   UNL     1       0.022  14.226  18.522  0.00  0.00    +0.000 NA
ATOM     15  N   UNL     1      -0.497  14.225  19.760  0.00  0.00    +0.000 N 
ATOM     16  C   UNL     1      -1.103  15.440  20.252  0.00  0.00    +0.000 C 
ATOM     17  C   UNL     1      -0.351  13.031  20.416  0.00  0.00    +0.000 A 
ENDBRANCH   8  12
ENDBRANCH   1   2
BRANCH   1  22
ATOM     18  C   UNL     1       6.308   4.779  15.811  0.00  0.00    +0.000 A 
ATOM     19  C   UNL     1       7.224   5.588  16.477  0.00  0.00    +0.000 A 
ATOM     20  C   UNL     1       6.820   6.342  17.569  0.00  0.00    +0.000 A 
ATOM     21  C   UNL     1       5.485   6.286  17.991  0.00  0.00    +0.000 A 
ATOM     22  C   UNL     1       4.508   5.532  17.320  0.00  0.00    +0.000 A 
ATOM     23  C   UNL     1       4.964   4.777  16.216  0.00  0.00    +0.000 A 
BRANCH  18  25
ATOM     24  C   UNL     1       6.091   3.894  13.613  0.00  0.00    +0.000 C 
ATOM     25  O   UNL     1       6.855   4.035  14.802  0.00  0.00    +0.000 OA
ENDBRANCH  18  25
BRANCH  20  26
ATOM     26  O   UNL     1       7.808   7.090  18.149  0.00  0.00    +0.000 OA
ATOM     27  C   UNL     1       7.878   8.459  17.765  0.00  0.00    +0.000 C 
ENDBRANCH  20  26
ENDBRANCH   1  22
BRANCH   1  28
ATOM     28  C   UNL     1       2.309   4.221  17.520  0.00  0.00    +0.000 C 
BRANCH  28  29
ATOM     29  C   UNL     1       2.657   2.855  18.126  0.00  0.00    +0.000 C 
BRANCH  29  30
ATOM     30  N   UNL     1       2.491   2.809  19.586  0.00  0.00    +0.000 N 
ATOM     31  C   UNL     1       1.292   2.906  20.269  0.00  0.00    +0.000 A 
ATOM     32  C   UNL     1      -0.037   3.202  19.678  0.00  0.00    +0.000 C 
ATOM     33  C   UNL     1       1.610   2.661  21.587  0.00  0.00    +0.000 A 
ATOM     34  N   UNL     1       2.949   2.433  21.731  0.00  0.00    +0.000 NA
ATOM     35  C   UNL     1       3.463   2.502  20.524  0.00  0.00    +0.000 A 
ATOM     36  C   UNL     1       4.895   2.252  20.213  0.00  0.00    +0.000 C 
ENDBRANCH  29  30
ENDBRANCH  28  29
ENDBRANCH   1  28
TORSDOF 8
ENDMDL
MODEL 4
REMARK VINA RESULT:      -8.6      3.679     10.184
REMARK  Name = 
REMARK  13 active torsions:
REMARK  status: ('A' for Active; 'I' for Inactive)
REMARK    1  A    between atoms: C_1  and  O_2
REMARK    2  A    between atoms: O_2  and  C_3
REMARK    3  A    between atoms: C_5  and  O_6
REMARK    4  A    between atoms: O_6  and  C_7
REMARK    5  A    between atoms: C_9  and  N_10
REMARK    6  A    between atoms: N_10  and  C_11
REMARK    7  A    between atoms: N_10  and  C_20
REMARK    8  A    between atoms: C_11  and  C_12
REMARK    9  A    between atoms: C_12  and  N_13
REMARK   10  A    between atoms: C_14  and  C_15
REMARK   11  A    between atoms: C_18  and  C_19
REMARK   12  A    between atoms: C_26  and  C_27
REMARK   13  A    between atoms: N_30  and  C_31
REMARK                            x       y       z     vdW  Elec       q    Type
REMARK                         _______ _______ _______ _____ _____    ______ ____
ROOT
ATOM      1  N   UNL     1       2.607   6.021  19.392  0.00  0.00    +0.000 N 
ENDROOT
BRANCH   1   2
ATOM      2  C   UNL     1       2.135   7.395  19.340  0.00  0.00    +0.000 A 
ATOM      3  C   UNL     1       2.256   8.160  18.171  0.00  0.00    +0.000 A 
ATOM      4  C   UNL     1       1.709   9.434  18.073  0.00  0.00    +0.000 A 
ATOM      5  C   UNL     1       1.032  10.011  19.117  0.00  0.00    +0.000 A 
ATOM      6  N   UNL     1       0.480  11.193  18.843  0.00  0.00    +0.000 NA
ATOM      7  C   UNL     1      -0.174  11.783  19.855  0.00  0.00    +0.000 A 
ATOM      8  C   UNL     1      -0.248  11.249  21.135  0.00  0.00    +0.000 A 
ATOM      9  N   UNL     1       0.300  10.023  21.408  0.00  0.00    +0.000 NA
ATOM     10  C   UNL     1       0.938   9.364  20.372  0.00  0.00    +0.000 A 
ATOM     11  C   UNL     1       1.506   8.053  20.444  0.00  0.00    +0.000 A 
BRANCH   8  12
ATOM     12  C   UNL     1      -0.890  12.061  22.168  0.00  0.00    +0.000 A 
ATOM     13  C   UNL     1      -2.068  11.779  22.918  0.00  0.00    +0.000 A 
ATOM     14  N   UNL     1      -2.420  12.762  23.744  0.00  0.00    +0.000 NA
ATOM     15  N   UNL     1      -1.487  13.700  23.519  0.00  0.00    +0.000 N 
ATOM     16  C   UNL     1      -1.595  14.958  24.220  0.00  0.00    +0.000 C 
ATOM     17  C   UNL     1      -0.541  13.326  22.600  0.00  0.00    +0.000 A 
ENDBRANCH   8  12
ENDBRANCH   1   2
BRANCH   1  22
ATOM     18  C   UNL     1       6.212   5.170  18.723  0.00  0.00    +0.000 A 
ATOM     19  C   UNL     1       6.137   4.629  17.443  0.00  0.00    +0.000 A 
ATOM     20  C   UNL     1       4.916   4.562  16.787  0.00  0.00    +0.000 A 
ATOM     21  C   UNL     1       3.763   5.036  17.425  0.00  0.00    +0.000 A 
ATOM     22  C   UNL     1       3.774   5.537  18.739  0.00  0.00    +0.000 A 
ATOM     23  C   UNL     1       5.039   5.591  19.366  0.00  0.00    +0.000 A 
BRANCH  18  25
ATOM     24  C   UNL     1       8.203   6.446  18.986  0.00  0.00    +0.000 C 
ATOM     25  O   UNL     1       7.485   5.244  19.220  0.00  0.00    +0.000 OA
ENDBRANCH  18  25
BRANCH  20  26
ATOM     26  O   UNL     1       4.967   4.021  15.531  0.00  0.00    +0.000 OA
ATOM     27  C   UNL     1       6.260   3.862  14.960  0.00  0.00    +0.000 C 
ENDBRANCH  20  26
ENDBRANCH   1  22
BRANCH   1  28
ATOM     28  C   UNL     1       1.896   5.196  20.456  0.00  0.00    +0.000 C 
BRANCH  28  29
ATOM     29  C   UNL     1       2.426   3.848  20.965  0.00  0.00    +0.000 C 
BRANCH  29  30
ATOM     30  N   UNL     1       2.570   2.843  19.901  0.00  0.00    +0.000 N 
ATOM     31  C   UNL     1       1.653   2.588  18.898  0.00  0.00    +0.000 A 
ATOM     32  C   UNL     1       0.298   3.180  18.771  0.00  0.00    +0.000 C 
ATOM     33  C   UNL     1       2.278   1.688  18.063  0.00  0.00    +0.000 A 
ATOM     34  N   UNL     1       3.526   1.380  18.524  0.00  0.00    +0.000 NA
ATOM     35  C   UNL     1       3.700   2.095  19.612  0.00  0.00    +0.000 A 
ATOM     36  C   UNL     1       4.956   2.112  20.407  0.00  0.00    +0.000 C 
ENDBRANCH  29  30
ENDBRANCH  28  29
ENDBRANCH   1  28
TORSDOF 8
ENDMDL
MODEL 5
REMARK VINA RESULT:      -8.5      3.531     10.117
REMARK  Name = 
REMARK  13 active torsions:
REMARK  status: ('A' for Active; 'I' for Inactive)
REMARK    1  A    between atoms: C_1  and  O_2
REMARK    2  A    between atoms: O_2  and  C_3
REMARK    3  A    between atoms: C_5  and  O_6
REMARK    4  A    between atoms: O_6  and  C_7
REMARK    5  A    between atoms: C_9  and  N_10
REMARK    6  A    between atoms: N_10  and  C_11
REMARK    7  A    between atoms: N_10  and  C_20
REMARK    8  A    between atoms: C_11  and  C_12
REMARK    9  A    between atoms: C_12  and  N_13
REMARK   10  A    between atoms: C_14  and  C_15
REMARK   11  A    between atoms: C_18  and  C_19
REMARK   12  A    between atoms: C_26  and  C_27
REMARK   13  A    between atoms: N_30  and  C_31
REMARK                            x       y       z     vdW  Elec       q    Type
REMARK                         _______ _______ _______ _____ _____    ______ ____
ROOT
ATOM      1  N   UNL     1       3.023   6.069  19.459  0.00  0.00    +0.000 N 
ENDROOT
BRANCH   1   2
ATOM      2  C   UNL     1       2.359   7.357  19.341  0.00  0.00    +0.000 A 
ATOM      3  C   UNL     1       2.219   7.989  18.096  0.00  0.00    +0.000 A 
ATOM      4  C   UNL     1       1.490   9.164  17.953  0.00  0.00    +0.000 A 
ATOM      5  C   UNL     1       0.880   9.770  19.022  0.00  0.00    +0.000 A 
ATOM      6  N   UNL     1       0.136  10.832  18.715  0.00  0.00    +0.000 NA
ATOM      7  C   UNL     1      -0.458  11.449  19.747  0.00  0.00    +0.000 A 
ATOM      8  C   UNL     1      -0.290  11.064  21.071  0.00  0.00    +0.000 A 
ATOM      9  N   UNL     1       0.456   9.957  21.382  0.00  0.00    +0.000 NA
ATOM     10  C   UNL     1       1.040   9.267  20.336  0.00  0.00    +0.000 A 
ATOM     11  C   UNL     1       1.792   8.055  20.453  0.00  0.00    +0.000 A 
BRANCH   8  12
ATOM     12  C   UNL     1      -0.900  11.904  22.101  0.00  0.00    +0.000 A 
ATOM     13  C   UNL     1      -2.026  11.621  22.929  0.00  0.00    +0.000 A 
ATOM     14  N   UNL     1      -2.365  12.631  23.727  0.00  0.00    +0.000 NA
ATOM     15  N   UNL     1      -1.477  13.586  23.407  0.00  0.00    +0.000 N 
ATOM     16  C   UNL     1      -1.588  14.872  24.055  0.00  0.00    +0.000 C 
ATOM     17  C   UNL     1      -0.571  13.198  22.454  0.00  0.00    +0.000 A 
ENDBRANCH   8  12
ENDBRANCH   1   2
BRANCH   1  22
ATOM     18  C   UNL     1       6.495   4.991  18.482  0.00  0.00    +0.000 A 
ATOM     19  C   UNL     1       6.364   4.850  17.104  0.00  0.00    +0.000 A 
ATOM     20  C   UNL     1       5.152   5.127  16.488  0.00  0.00    +0.000 A 
ATOM     21  C   UNL     1       4.063   5.544  17.265  0.00  0.00    +0.000 A 
ATOM     22  C   UNL     1       4.124   5.646  18.665  0.00  0.00    +0.000 A 
ATOM     23  C   UNL     1       5.378   5.358  19.248  0.00  0.00    +0.000 A 
BRANCH  18  25
ATOM     24  C   UNL     1       8.307   5.714  19.843  0.00  0.00    +0.000 C 
ATOM     25  O   UNL     1       7.760   4.758  18.946  0.00  0.00    +0.000 OA
ENDBRANCH  18  25
BRANCH  20  26
ATOM     26  O   UNL     1       5.146   4.963  15.129  0.00  0.00    +0.000 OA
ATOM     27  C   UNL     1       6.415   4.838  14.499  0.00  0.00    +0.000 C 
ENDBRANCH  20  26
ENDBRANCH   1  22
BRANCH   1  28
ATOM     28  C   UNL     1       2.619   5.314  20.718  0.00  0.00    +0.000 C 
BRANCH  28  29
ATOM     29  C   UNL     1       2.087   3.875  20.699  0.00  0.00    +0.000 C 
BRANCH  29  30
ATOM     30  N   UNL     1       2.568   3.094  19.549  0.00  0.00    +0.000 N 
ATOM     31  C   UNL     1       3.636   2.216  19.557  0.00  0.00    +0.000 A 
ATOM     32  C   UNL     1       4.580   1.985  20.678  0.00  0.00    +0.000 C 
ATOM     33  C   UNL     1       3.613   1.615  18.317  0.00  0.00    +0.000 A 
ATOM     34  N   UNL     1       2.586   2.102  17.558  0.00  0.00    +0.000 NA
ATOM     35  C   UNL     1       1.954   2.969  18.314  0.00  0.00    +0.000 A 
ATOM     36  C   UNL     1       0.725   3.696  17.899  0.00  0.00    +0.000 C 
ENDBRANCH  29  30
ENDBRANCH  28  29
ENDBRANCH   1  28
TORSDOF 8
ENDMDL
MODEL 6
REMARK VINA RESULT:      -8.5      4.199      9.667
REMARK  Name = 
REMARK  13 active torsions:
REMARK  status: ('A' for Active; 'I' for Inactive)
REMARK    1  A    between atoms: C_1  and  O_2
REMARK    2  A    between atoms: O_2  and  C_3
REMARK    3  A    between atoms: C_5  and  O_6
REMARK    4  A    between atoms: O_6  and  C_7
REMARK    5  A    between atoms: C_9  and  N_10
REMARK    6  A    between atoms: N_10  and  C_11
REMARK    7  A    between atoms: N_10  and  C_20
REMARK    8  A    between atoms: C_11  and  C_12
REMARK    9  A    between atoms: C_12  and  N_13
REMARK   10  A    between atoms: C_14  and  C_15
REMARK   11  A    between atoms: C_18  and  C_19
REMARK   12  A    between atoms: C_26  and  C_27
REMARK   13  A    between atoms: N_30  and  C_31
REMARK                            x       y       z     vdW  Elec       q    Type
REMARK                         _______ _______ _______ _____ _____    ______ ____
ROOT
ATOM      1  N   UNL     1       2.745   5.736  18.231  0.00  0.00    +0.000 N 
ENDROOT
BRANCH   1   2
ATOM      2  C   UNL     1       2.151   6.856  18.942  0.00  0.00    +0.000 A 
ATOM      3  C   UNL     1       1.601   6.693  20.222  0.00  0.00    +0.000 A 
ATOM      4  C   UNL     1       1.133   7.775  20.957  0.00  0.00    +0.000 A 
ATOM      5  C   UNL     1       1.175   9.055  20.465  0.00  0.00    +0.000 A 
ATOM      6  N   UNL     1       0.782   9.999  21.321  0.00  0.00    +0.000 NA
ATOM      7  C   UNL     1       0.801  11.256  20.856  0.00  0.00    +0.000 A 
ATOM      8  C   UNL     1       1.153  11.587  19.554  0.00  0.00    +0.000 A 
ATOM      9  N   UNL     1       1.579  10.618  18.682  0.00  0.00    +0.000 NA
ATOM     10  C   UNL     1       1.620   9.316  19.147  0.00  0.00    +0.000 A 
ATOM     11  C   UNL     1       2.100   8.185  18.415  0.00  0.00    +0.000 A 
BRANCH   8  12
ATOM     12  C   UNL     1       1.010  12.986  19.150  0.00  0.00    +0.000 A 
ATOM     13  C   UNL     1       2.013  13.886  18.687  0.00  0.00    +0.000 A 
ATOM     14  N   UNL     1       1.558  15.116  18.460  0.00  0.00    +0.000 NA
ATOM     15  N   UNL     1       0.261  15.031  18.797  0.00  0.00    +0.000 N 
ATOM     16  C   UNL     1      -0.546  16.226  18.728  0.00  0.00    +0.000 C 
ATOM     17  C   UNL     1      -0.121  13.778  19.199  0.00  0.00    +0.000 A 
ENDBRANCH   8  12
ENDBRANCH   1   2
BRANCH   1  22
ATOM     18  C   UNL     1       6.096   4.847  16.765  0.00  0.00    +0.000 A 
ATOM     19  C   UNL     1       6.921   4.936  17.882  0.00  0.00    +0.000 A 
ATOM     20  C   UNL     1       6.383   5.264  19.118  0.00  0.00    +0.000 A 
ATOM     21  C   UNL     1       5.008   5.509  19.230  0.00  0.00    +0.000 A 
ATOM     22  C   UNL     1       4.141   5.489  18.124  0.00  0.00    +0.000 A 
ATOM     23  C   UNL     1       4.731   5.148  16.886  0.00  0.00    +0.000 A 
BRANCH  18  25
ATOM     24  C   UNL     1       5.935   4.073  14.521  0.00  0.00    +0.000 C 
ATOM     25  O   UNL     1       6.743   4.443  15.628  0.00  0.00    +0.000 OA
ENDBRANCH  18  25
BRANCH  20  26
ATOM     26  O   UNL     1       7.288   5.312  20.144  0.00  0.00    +0.000 OA
ATOM     27  C   UNL     1       8.660   5.396  19.778  0.00  0.00    +0.000 C 
ENDBRANCH  20  26
ENDBRANCH   1  22
BRANCH   1  28
ATOM     28  C   UNL     1       1.723   4.673  17.850  0.00  0.00    +0.000 C 
BRANCH  28  29
ATOM     29  C   UNL     1       1.316   3.527  18.786  0.00  0.00    +0.000 C 
BRANCH  29  30
ATOM     30  N   UNL     1       2.464   2.865  19.423  0.00  0.00    +0.000 N 
ATOM     31  C   UNL     1       3.465   2.171  18.768  0.00  0.00    +0.000 A 
ATOM     32  C   UNL     1       3.512   1.849  17.320  0.00  0.00    +0.000 C 
ATOM     33  C   UNL     1       4.387   1.866  19.746  0.00  0.00    +0.000 A 
ATOM     34  N   UNL     1       3.980   2.334  20.963  0.00  0.00    +0.000 NA
ATOM     35  C   UNL     1       2.839   2.950  20.754  0.00  0.00    +0.000 A 
ATOM     36  C   UNL     1       2.073   3.665  21.808  0.00  0.00    +0.000 C 
ENDBRANCH  29  30
ENDBRANCH  28  29
ENDBRANCH   1  28
TORSDOF 8
ENDMDL
MODEL 7
REMARK VINA RESULT:      -8.5      3.465      9.987
REMARK  Name = 
REMARK  13 active torsions:
REMARK  status: ('A' for Active; 'I' for Inactive)
REMARK    1  A    between atoms: C_1  and  O_2
REMARK    2  A    between atoms: O_2  and  C_3
REMARK    3  A    between atoms: C_5  and  O_6
REMARK    4  A    between atoms: O_6  and  C_7
REMARK    5  A    between atoms: C_9  and  N_10
REMARK    6  A    between atoms: N_10  and  C_11
REMARK    7  A    between atoms: N_10  and  C_20
REMARK    8  A    between atoms: C_11  and  C_12
REMARK    9  A    between atoms: C_12  and  N_13
REMARK   10  A    between atoms: C_14  and  C_15
REMARK   11  A    between atoms: C_18  and  C_19
REMARK   12  A    between atoms: C_26  and  C_27
REMARK   13  A    between atoms: N_30  and  C_31
REMARK                            x       y       z     vdW  Elec       q    Type
REMARK                         _______ _______ _______ _____ _____    ______ ____
ROOT
ATOM      1  N   UNL     1       2.483   6.712  19.431  0.00  0.00    +0.000 N 
ENDROOT
BRANCH   1   2
ATOM      2  C   UNL     1       1.832   8.009  19.338  0.00  0.00    +0.000 A 
ATOM      3  C   UNL     1       1.725   8.680  18.112  0.00  0.00    +0.000 A 
ATOM      4  C   UNL     1       1.009   9.865  17.989  0.00  0.00    +0.000 A 
ATOM      5  C   UNL     1       0.379  10.442  19.062  0.00  0.00    +0.000 A 
ATOM      6  N   UNL     1      -0.350  11.520  18.772  0.00  0.00    +0.000 NA
ATOM      7  C   UNL     1      -0.963  12.109  19.810  0.00  0.00    +0.000 A 
ATOM      8  C   UNL     1      -0.829  11.681  21.124  0.00  0.00    +0.000 A 
ATOM      9  N   UNL     1      -0.098  10.558  21.417  0.00  0.00    +0.000 NA
ATOM     10  C   UNL     1       0.505   9.897  20.363  0.00  0.00    +0.000 A 
ATOM     11  C   UNL     1       1.245   8.676  20.459  0.00  0.00    +0.000 A 
BRANCH   8  12
ATOM     12  C   UNL     1      -1.456  12.493  22.166  0.00  0.00    +0.000 A 
ATOM     13  C   UNL     1      -0.897  13.572  22.912  0.00  0.00    +0.000 A 
ATOM     14  N   UNL     1      -1.721  14.061  23.835  0.00  0.00    +0.000 NA
ATOM     15  N   UNL     1      -2.813  13.289  23.713  0.00  0.00    +0.000 N 
ATOM     16  C   UNL     1      -3.914  13.508  24.622  0.00  0.00    +0.000 C 
ATOM     17  C   UNL     1      -2.713  12.349  22.721  0.00  0.00    +0.000 A 
ENDBRANCH   8  12
ENDBRANCH   1   2
BRANCH   1  22
ATOM     18  C   UNL     1       5.061   6.212  16.733  0.00  0.00    +0.000 A 
ATOM     19  C   UNL     1       6.106   5.640  17.451  0.00  0.00    +0.000 A 
ATOM     20  C   UNL     1       5.965   5.395  18.809  0.00  0.00    +0.000 A 
ATOM     21  C   UNL     1       4.766   5.734  19.451  0.00  0.00    +0.000 A 
ATOM     22  C   UNL     1       3.702   6.367  18.786  0.00  0.00    +0.000 A 
ATOM     23  C   UNL     1       3.889   6.593  17.404  0.00  0.00    +0.000 A 
BRANCH  18  25
ATOM     24  C   UNL     1       5.817   5.184  14.726  0.00  0.00    +0.000 C 
ATOM     25  O   UNL     1       5.306   6.329  15.392  0.00  0.00    +0.000 OA
ENDBRANCH  18  25
BRANCH  20  26
ATOM     26  O   UNL     1       7.054   4.819  19.407  0.00  0.00    +0.000 OA
ATOM     27  C   UNL     1       8.195   5.651  19.582  0.00  0.00    +0.000 C 
ENDBRANCH  20  26
ENDBRANCH   1  22
BRANCH   1  28
ATOM     28  C   UNL     1       1.891   5.835  20.526  0.00  0.00    +0.000 C 
BRANCH  28  29
ATOM     29  C   UNL     1       1.042   4.590  20.237  0.00  0.00    +0.000 C 
BRANCH  29  30
ATOM     30  N   UNL     1       1.785   3.531  19.538  0.00  0.00    +0.000 N 
ATOM     31  C   UNL     1       1.892   3.386  18.167  0.00  0.00    +0.000 A 
ATOM     32  C   UNL     1       1.181   4.184  17.138  0.00  0.00    +0.000 C 
ATOM     33  C   UNL     1       2.796   2.362  17.986  0.00  0.00    +0.000 A 
ATOM     34  N   UNL     1       3.229   1.875  19.187  0.00  0.00    +0.000 NA
ATOM     35  C   UNL     1       2.635   2.598  20.109  0.00  0.00    +0.000 A 
ATOM     36  C   UNL     1       2.872   2.444  21.568  0.00  0.00    +0.000 C 
ENDBRANCH  29  30
ENDBRANCH  28  29
ENDBRANCH   1  28
TORSDOF 8
ENDMDL
MODEL 8
REMARK VINA RESULT:      -8.4      4.059      9.655
REMARK  Name = 
REMARK  13 active torsions:
REMARK  status: ('A' for Active; 'I' for Inactive)
REMARK    1  A    between atoms: C_1  and  O_2
REMARK    2  A    between atoms: O_2  and  C_3
REMARK    3  A    between atoms: C_5  and  O_6
REMARK    4  A    between atoms: O_6  and  C_7
REMARK    5  A    between atoms: C_9  and  N_10
REMARK    6  A    between atoms: N_10  and  C_11
REMARK    7  A    between atoms: N_10  and  C_20
REMARK    8  A    between atoms: C_11  and  C_12
REMARK    9  A    between atoms: C_12  and  N_13
REMARK   10  A    between atoms: C_14  and  C_15
REMARK   11  A    between atoms: C_18  and  C_19
REMARK   12  A    between atoms: C_26  and  C_27
REMARK   13  A    between atoms: N_30  and  C_31
REMARK                            x       y       z     vdW  Elec       q    Type
REMARK                         _______ _______ _______ _____ _____    ______ ____
ROOT
ATOM      1  N   UNL     1       2.767   6.006  18.211  0.00  0.00    +0.000 N 
ENDROOT
BRANCH   1   2
ATOM      2  C   UNL     1       2.148   7.078  18.975  0.00  0.00    +0.000 A 
ATOM      3  C   UNL     1       1.671   6.859  20.275  0.00  0.00    +0.000 A 
ATOM      4  C   UNL     1       1.181   7.899  21.056  0.00  0.00    +0.000 A 
ATOM      5  C   UNL     1       1.130   9.189  20.592  0.00  0.00    +0.000 A 
ATOM      6  N   UNL     1       0.729  10.092  21.487  0.00  0.00    +0.000 NA
ATOM      7  C   UNL     1       0.658  11.358  21.050  0.00  0.00    +0.000 A 
ATOM      8  C   UNL     1       0.927  11.733  19.740  0.00  0.00    +0.000 A 
ATOM      9  N   UNL     1       1.362  10.807  18.828  0.00  0.00    +0.000 NA
ATOM     10  C   UNL     1       1.496   9.500  19.261  0.00  0.00    +0.000 A 
ATOM     11  C   UNL     1       2.000   8.412  18.481  0.00  0.00    +0.000 A 
BRANCH   8  12
ATOM     12  C   UNL     1       0.689  13.130  19.375  0.00  0.00    +0.000 A 
ATOM     13  C   UNL     1      -0.501  13.726  18.866  0.00  0.00    +0.000 A 
ATOM     14  N   UNL     1      -0.365  15.019  18.577  0.00  0.00    +0.000 NA
ATOM     15  N   UNL     1       0.921  15.266  18.874  0.00  0.00    +0.000 N 
ATOM     16  C   UNL     1       1.442  16.589  18.622  0.00  0.00    +0.000 C 
ATOM     17  C   UNL     1       1.590  14.177  19.370  0.00  0.00    +0.000 A 
ENDBRANCH   8  12
ENDBRANCH   1   2
BRANCH   1  22
ATOM     18  C   UNL     1       6.152   5.588  16.617  0.00  0.00    +0.000 A 
ATOM     19  C   UNL     1       6.960   5.384  17.731  0.00  0.00    +0.000 A 
ATOM     20  C   UNL     1       6.401   5.360  19.001  0.00  0.00    +0.000 A 
ATOM     21  C   UNL     1       5.020   5.548  19.151  0.00  0.00    +0.000 A 
ATOM     22  C   UNL     1       4.168   5.816  18.066  0.00  0.00    +0.000 A 
ATOM     23  C   UNL     1       4.780   5.827  16.792  0.00  0.00    +0.000 A 
BRANCH  18  25
ATOM     24  C   UNL     1       6.588   4.364  14.624  0.00  0.00    +0.000 C 
ATOM     25  O   UNL     1       6.820   5.514  15.425  0.00  0.00    +0.000 OA
ENDBRANCH  18  25
BRANCH  20  26
ATOM     26  O   UNL     1       7.291   5.142  20.017  0.00  0.00    +0.000 OA
ATOM     27  C   UNL     1       8.640   5.520  19.772  0.00  0.00    +0.000 C 
ENDBRANCH  20  26
ENDBRANCH   1  22
BRANCH   1  28
ATOM     28  C   UNL     1       1.775   4.920  17.814  0.00  0.00    +0.000 C 
BRANCH  28  29
ATOM     29  C   UNL     1       1.413   3.741  18.727  0.00  0.00    +0.000 C 
BRANCH  29  30
ATOM     30  N   UNL     1       2.586   3.098  19.336  0.00  0.00    +0.000 N 
ATOM     31  C   UNL     1       2.830   2.977  20.692  0.00  0.00    +0.000 A 
ATOM     32  C   UNL     1       2.033   3.580  21.789  0.00  0.00    +0.000 C 
ATOM     33  C   UNL     1       3.951   2.181  20.784  0.00  0.00    +0.000 A 
ATOM     34  N   UNL     1       4.400   1.827  19.543  0.00  0.00    +0.000 NA
ATOM     35  C   UNL     1       3.562   2.362  18.685  0.00  0.00    +0.000 A 
ATOM     36  C   UNL     1       3.643   2.173  17.213  0.00  0.00    +0.000 C 
ENDBRANCH  29  30
ENDBRANCH  28  29
ENDBRANCH   1  28
TORSDOF 8
ENDMDL
MODEL 9
REMARK VINA RESULT:      -8.4      3.671     10.041
REMARK  Name = 
REMARK  13 active torsions:
REMARK  status: ('A' for Active; 'I' for Inactive)
REMARK    1  A    between atoms: C_1  and  O_2
REMARK    2  A    between atoms: O_2  and  C_3
REMARK    3  A    between atoms: C_5  and  O_6
REMARK    4  A    between atoms: O_6  and  C_7
REMARK    5  A    between atoms: C_9  and  N_10
REMARK    6  A    between atoms: N_10  and  C_11
REMARK    7  A    between atoms: N_10  and  C_20
REMARK    8  A    between atoms: C_11  and  C_12
REMARK    9  A    between atoms: C_12  and  N_13
REMARK   10  A    between atoms: C_14  and  C_15
REMARK   11  A    between atoms: C_18  and  C_19
REMARK   12  A    between atoms: C_26  and  C_27
REMARK   13  A    between atoms: N_30  and  C_31
REMARK                            x       y       z     vdW  Elec       q    Type
REMARK                         _______ _______ _______ _____ _____    ______ ____
ROOT
ATOM      1  N   UNL     1       2.601   6.493  18.863  0.00  0.00    +0.000 N 
ENDROOT
BRANCH   1   2
ATOM      2  C   UNL     1       2.048   7.837  18.909  0.00  0.00    +0.000 A 
ATOM      3  C   UNL     1       2.042   8.657  17.772  0.00  0.00    +0.000 A 
ATOM      4  C   UNL     1       1.417   9.898  17.773  0.00  0.00    +0.000 A 
ATOM      5  C   UNL     1       0.782  10.387  18.886  0.00  0.00    +0.000 A 
ATOM      6  N   UNL     1       0.144  11.544  18.707  0.00  0.00    +0.000 NA
ATOM      7  C   UNL     1      -0.471  12.047  19.787  0.00  0.00    +0.000 A 
ATOM      8  C   UNL     1      -0.425  11.455  21.042  0.00  0.00    +0.000 A 
ATOM      9  N   UNL     1       0.212  10.253  21.219  0.00  0.00    +0.000 NA
ATOM     10  C   UNL     1       0.813   9.681  20.113  0.00  0.00    +0.000 A 
ATOM     11  C   UNL     1       1.460   8.406  20.083  0.00  0.00    +0.000 A 
BRANCH   8  12
ATOM     12  C   UNL     1      -1.039  12.179  22.154  0.00  0.00    +0.000 A 
ATOM     13  C   UNL     1      -2.217  11.853  22.887  0.00  0.00    +0.000 A 
ATOM     14  N   UNL     1      -2.540  12.762  23.805  0.00  0.00    +0.000 NA
ATOM     15  N   UNL     1      -1.588  13.697  23.658  0.00  0.00    +0.000 N 
ATOM     16  C   UNL     1      -1.661  14.886  24.475  0.00  0.00    +0.000 C 
ATOM     17  C   UNL     1      -0.658  13.390  22.699  0.00  0.00    +0.000 A 
ENDBRANCH   8  12
ENDBRANCH   1   2
BRANCH   1  22
ATOM     18  C   UNL     1       5.674   5.867  16.780  0.00  0.00    +0.000 A 
ATOM     19  C   UNL     1       6.599   5.502  17.753  0.00  0.00    +0.000 A 
ATOM     20  C   UNL     1       6.218   5.437  19.085  0.00  0.00    +0.000 A 
ATOM     21  C   UNL     1       4.899   5.747  19.442  0.00  0.00    +0.000 A 
ATOM     22  C   UNL     1       3.942   6.178  18.508  0.00  0.00    +0.000 A 
ATOM     23  C   UNL     1       4.373   6.225  17.163  0.00  0.00    +0.000 A 
BRANCH  18  25
ATOM     24  C   UNL     1       5.773   4.710  14.704  0.00  0.00    +0.000 C 
ATOM     25  O   UNL     1       6.162   5.817  15.503  0.00  0.00    +0.000 OA
ENDBRANCH  18  25
BRANCH  20  26
ATOM     26  O   UNL     1       7.209   5.057  19.950  0.00  0.00    +0.000 OA
ATOM     27  C   UNL     1       8.531   5.466  19.619  0.00  0.00    +0.000 C 
ENDBRANCH  20  26
ENDBRANCH   1  22
BRANCH   1  28
ATOM     28  C   UNL     1       1.693   5.461  19.517  0.00  0.00    +0.000 C 
BRANCH  28  29
ATOM     29  C   UNL     1       1.558   4.019  19.009  0.00  0.00    +0.000 C 
BRANCH  29  30
ATOM     30  N   UNL     1       2.603   3.122  19.526  0.00  0.00    +0.000 N 
ATOM     31  C   UNL     1       3.636   2.573  18.789  0.00  0.00    +0.000 A 
ATOM     32  C   UNL     1       3.821   2.672  17.320  0.00  0.00    +0.000 C 
ATOM     33  C   UNL     1       4.435   1.937  19.713  0.00  0.00    +0.000 A 
ATOM     34  N   UNL     1       3.924   2.069  20.973  0.00  0.00    +0.000 NA
ATOM     35  C   UNL     1       2.839   2.799  20.852  0.00  0.00    +0.000 A 
ATOM     36  C   UNL     1       1.999   3.240  21.996  0.00  0.00    +0.000 C 
ENDBRANCH  29  30
ENDBRANCH  28  29
ENDBRANCH   1  28
TORSDOF 8
ENDMDL
