MODEL 1
REMARK VINA RESULT:     -10.6      0.000      0.000
REMARK  Name = 
REMARK  5 active torsions:
REMARK  status: ('A' for Active; 'I' for Inactive)
REMARK    1  A    between atoms: N_1  and  C_2
REMARK    2  A    between atoms: C_4  and  C_5
REMARK    3  A    between atoms: N_13  and  C_14
REMARK    4  A    between atoms: C_23  and  C_24
REMARK    5  A    between atoms: C_24  and  C_25
REMARK                            x       y       z     vdW  Elec       q    Type
REMARK                         _______ _______ _______ _____ _____    ______ ____
ROOT
ATOM      1  C   UNL     1       6.638   5.805  16.138  0.00  0.00    +0.000 A 
ATOM      2  N   UNL     1       7.391   5.554  15.013  0.00  0.00    +0.000 NA
ATOM      3  C   UNL     1       6.861   4.804  14.031  0.00  0.00    +0.000 A 
ATOM      4  C   UNL     1       7.594   4.548  12.876  0.00  0.00    +0.000 A 
ATOM      5  C   UNL     1       7.066   3.779  11.835  0.00  0.00    +0.000 A 
ATOM      6  C   UNL     1       5.785   3.257  11.952  0.00  0.00    +0.000 A 
ATOM      7  C   UNL     1       5.046   3.508  13.108  0.00  0.00    +0.000 A 
ATOM      8  C   UNL     1       5.565   4.275  14.144  0.00  0.00    +0.000 A 
ATOM      9  N   UNL     1       4.822   4.513  15.235  0.00  0.00    +0.000 NA
ATOM     10  C   UNL     1       5.340   5.298  16.240  0.00  0.00    +0.000 A 
ENDROOT
BRANCH   1  15
ATOM     11  C   UNL     1       7.810   6.105  18.368  0.00  0.00    +0.000 A 
ATOM     12  C   UNL     1       8.361   7.172  19.023  0.00  0.00    +0.000 A 
ATOM     13  C   UNL     1       8.131   8.301  18.201  0.00  0.00    +0.000 A 
ATOM     14  N   UNL     1       7.448   7.950  17.096  0.00  0.00    +0.000 NA
ATOM     15  N   UNL     1       7.280   6.595  17.165  0.00  0.00    +0.000 N 
BRANCH  13  16
ATOM     16  C   UNL     1       8.592   9.681  18.437  0.00  0.00    +0.000 A 
ATOM     17  C   UNL     1       9.460   9.988  19.499  0.00  0.00    +0.000 A 
ATOM     18  C   UNL     1       9.991  11.277  19.646  0.00  0.00    +0.000 A 
ATOM     19  C   UNL     1       9.659  12.272  18.731  0.00  0.00    +0.000 A 
ATOM     20 CL   UNL     1      10.360  13.836  18.874  0.00  0.00    +0.000 Cl
ATOM     21  C   UNL     1       8.766  12.003  17.701  0.00  0.00    +0.000 A 
ATOM     22  C   UNL     1       8.224  10.719  17.569  0.00  0.00    +0.000 A 
ENDBRANCH  13  16
BRANCH  11  23
ATOM     23  N   UNL     1       7.772   4.807  18.755  0.00  0.00    +0.000 N 
ATOM     24  H   UNL     1       7.856   4.039  18.097  0.00  0.00    +0.000 HD
ATOM     25  H   UNL     1       7.295   4.572  19.632  0.00  0.00    +0.000 HD
ENDBRANCH  11  23
ENDBRANCH   1  15
BRANCH  10  26
ATOM     26  C   UNL     1       4.341   5.547  17.339  0.00  0.00    +0.000 C 
BRANCH  26  27
ATOM     27  C   UNL     1       3.481   4.353  17.713  0.00  0.00    +0.000 A 
ATOM     28  C   UNL     1       4.053   3.124  18.076  0.00  0.00    +0.000 A 
ATOM     29  C   UNL     1       3.252   2.061  18.502  0.00  0.00    +0.000 A 
ATOM     30  C   UNL     1       1.870   2.214  18.579  0.00  0.00    +0.000 A 
ATOM     31  C   UNL     1       1.288   3.426  18.222  0.00  0.00    +0.000 A 
ATOM     32  C   UNL     1       2.090   4.485  17.795  0.00  0.00    +0.000 A 
ENDBRANCH  26  27
ENDBRANCH  10  26
TORSDOF 5
ENDMDL
MODEL 2
REMARK VINA RESULT:      -9.5      1.350      1.980
REMARK  Name = 
REMARK  5 active torsions:
REMARK  status: ('A' for Active; 'I' for Inactive)
REMARK    1  A    between atoms: N_1  and  C_2
REMARK    2  A    between atoms: C_4  and  C_5
REMARK    3  A    between atoms: N_13  and  C_14
REMARK    4  A    between atoms: C_23  and  C_24
REMARK    5  A    between atoms: C_24  and  C_25
REMARK                            x       y       z     vdW  Elec       q    Type
REMARK                         _______ _______ _______ _____ _____    ______ ____
ROOT
ATOM      1  C   UNL     1       6.858   5.720  16.390  0.00  0.00    +0.000 A 
ATOM      2  N   UNL     1       7.444   5.743  15.144  0.00  0.00    +0.000 NA
ATOM      3  C   UNL     1       6.953   4.942  14.181  0.00  0.00    +0.000 A 
ATOM      4  C   UNL     1       7.516   4.957  12.908  0.00  0.00    +0.000 A 
ATOM      5  C   UNL     1       7.022   4.141  11.886  0.00  0.00    +0.000 A 
ATOM      6  C   UNL     1       5.951   3.297  12.141  0.00  0.00    +0.000 A 
ATOM      7  C   UNL     1       5.384   3.276  13.416  0.00  0.00    +0.000 A 
ATOM      8  C   UNL     1       5.869   4.087  14.435  0.00  0.00    +0.000 A 
ATOM      9  N   UNL     1       5.290   4.056  15.644  0.00  0.00    +0.000 NA
ATOM     10  C   UNL     1       5.764   4.886  16.634  0.00  0.00    +0.000 A 
ENDROOT
BRANCH   1  15
ATOM     11  C   UNL     1       7.983   6.179  18.617  0.00  0.00    +0.000 A 
ATOM     12  C   UNL     1       8.482   7.299  19.223  0.00  0.00    +0.000 A 
ATOM     13  C   UNL     1       8.220   8.374  18.342  0.00  0.00    +0.000 A 
ATOM     14  N   UNL     1       7.568   7.941  17.247  0.00  0.00    +0.000 NA
ATOM     15  N   UNL     1       7.453   6.586  17.383  0.00  0.00    +0.000 N 
BRANCH  13  16
ATOM     16  C   UNL     1       8.623   9.782  18.513  0.00  0.00    +0.000 A 
ATOM     17  C   UNL     1       9.477  10.174  19.558  0.00  0.00    +0.000 A 
ATOM     18  C   UNL     1       9.953  11.489  19.644  0.00  0.00    +0.000 A 
ATOM     19  C   UNL     1       9.581  12.426  18.685  0.00  0.00    +0.000 A 
ATOM     20 CL   UNL     1      10.215  14.023  18.754  0.00  0.00    +0.000 Cl
ATOM     21  C   UNL     1       8.699  12.073  17.670  0.00  0.00    +0.000 A 
ATOM     22  C   UNL     1       8.211  10.763  17.599  0.00  0.00    +0.000 A 
ENDBRANCH  13  16
BRANCH  11  23
ATOM     23  N   UNL     1       7.990   4.902  19.069  0.00  0.00    +0.000 N 
ATOM     24  H   UNL     1       7.183   4.476  19.513  0.00  0.00    +0.000 HD
ATOM     25  H   UNL     1       8.890   4.473  19.310  0.00  0.00    +0.000 HD
ENDBRANCH  11  23
ENDBRANCH   1  15
BRANCH  10  26
ATOM     26  C   UNL     1       4.940   4.799  17.892  0.00  0.00    +0.000 C 
BRANCH  26  27
ATOM     27  C   UNL     1       4.040   5.992  18.160  0.00  0.00    +0.000 A 
ATOM     28  C   UNL     1       3.928   7.046  17.239  0.00  0.00    +0.000 A 
ATOM     29  C   UNL     1       3.031   8.094  17.459  0.00  0.00    +0.000 A 
ATOM     30  C   UNL     1       2.229   8.101  18.597  0.00  0.00    +0.000 A 
ATOM     31  C   UNL     1       2.329   7.064  19.520  0.00  0.00    +0.000 A 
ATOM     32  C   UNL     1       3.228   6.019  19.298  0.00  0.00    +0.000 A 
ENDBRANCH  26  27
ENDBRANCH  10  26
TORSDOF 5
ENDMDL
MODEL 3
REMARK VINA RESULT:      -9.4      1.310      2.148
REMARK  Name = 
REMARK  5 active torsions:
REMARK  status: ('A' for Active; 'I' for Inactive)
REMARK    1  A    between atoms: N_1  and  C_2
REMARK    2  A    between atoms: C_4  and  C_5
REMARK    3  A    between atoms: N_13  and  C_14
REMARK    4  A    between atoms: C_23  and  C_24
REMARK    5  A    between atoms: C_24  and  C_25
REMARK                            x       y       z     vdW  Elec       q    Type
REMARK                         _______ _______ _______ _____ _____    ______ ____
ROOT
ATOM      1  C   UNL     1       6.851   5.693  16.328  0.00  0.00    +0.000 A 
ATOM      2  N   UNL     1       7.436   5.720  15.082  0.00  0.00    +0.000 NA
ATOM      3  C   UNL     1       6.948   4.920  14.118  0.00  0.00    +0.000 A 
ATOM      4  C   UNL     1       7.510   4.939  12.845  0.00  0.00    +0.000 A 
ATOM      5  C   UNL     1       7.019   4.123  11.821  0.00  0.00    +0.000 A 
ATOM      6  C   UNL     1       5.951   3.275  12.075  0.00  0.00    +0.000 A 
ATOM      7  C   UNL     1       5.385   3.250  13.350  0.00  0.00    +0.000 A 
ATOM      8  C   UNL     1       5.867   4.060  14.370  0.00  0.00    +0.000 A 
ATOM      9  N   UNL     1       5.289   4.025  15.580  0.00  0.00    +0.000 NA
ATOM     10  C   UNL     1       5.760   4.855  16.572  0.00  0.00    +0.000 A 
ENDROOT
BRANCH   1  15
ATOM     11  C   UNL     1       7.946   6.156  18.570  0.00  0.00    +0.000 A 
ATOM     12  C   UNL     1       8.452   7.274  19.174  0.00  0.00    +0.000 A 
ATOM     13  C   UNL     1       8.223   8.345  18.277  0.00  0.00    +0.000 A 
ATOM     14  N   UNL     1       7.583   7.911  17.175  0.00  0.00    +0.000 NA
ATOM     15  N   UNL     1       7.443   6.560  17.323  0.00  0.00    +0.000 N 
BRANCH  13  16
ATOM     16  C   UNL     1       8.647   9.747  18.441  0.00  0.00    +0.000 A 
ATOM     17  C   UNL     1       8.258  10.739  17.526  0.00  0.00    +0.000 A 
ATOM     18  C   UNL     1       8.562  12.089  17.752  0.00  0.00    +0.000 A 
ATOM     19  C   UNL     1       9.259  12.459  18.898  0.00  0.00    +0.000 A 
ATOM     20 CL   UNL     1       9.577  14.120  19.209  0.00  0.00    +0.000 Cl
ATOM     21  C   UNL     1       9.695  11.490  19.794  0.00  0.00    +0.000 A 
ATOM     22  C   UNL     1       9.405  10.141  19.553  0.00  0.00    +0.000 A 
ENDBRANCH  13  16
BRANCH  11  23
ATOM     23  N   UNL     1       7.923   4.884  19.035  0.00  0.00    +0.000 N 
ATOM     24  H   UNL     1       8.009   4.078  18.424  0.00  0.00    +0.000 HD
ATOM     25  H   UNL     1       7.457   4.698  19.930  0.00  0.00    +0.000 HD
ENDBRANCH  11  23
ENDBRANCH   1  15
BRANCH  10  26
ATOM     26  C   UNL     1       4.937   4.762  17.829  0.00  0.00    +0.000 C 
BRANCH  26  27
ATOM     27  C   UNL     1       3.961   5.904  18.049  0.00  0.00    +0.000 A 
ATOM     28  C   UNL     1       3.088   5.921  19.149  0.00  0.00    +0.000 A 
ATOM     29  C   UNL     1       2.258   7.019  19.385  0.00  0.00    +0.000 A 
ATOM     30  C   UNL     1       2.293   8.119  18.532  0.00  0.00    +0.000 A 
ATOM     31  C   UNL     1       3.151   8.117  17.437  0.00  0.00    +0.000 A 
ATOM     32  C   UNL     1       3.978   7.017  17.202  0.00  0.00    +0.000 A 
ENDBRANCH  26  27
ENDBRANCH  10  26
TORSDOF 5
ENDMDL
MODEL 4
REMARK VINA RESULT:      -8.7      0.895      1.421
REMARK  Name = 
REMARK  5 active torsions:
REMARK  status: ('A' for Active; 'I' for Inactive)
REMARK    1  A    between atoms: N_1  and  C_2
REMARK    2  A    between atoms: C_4  and  C_5
REMARK    3  A    between atoms: N_13  and  C_14
REMARK    4  A    between atoms: C_23  and  C_24
REMARK    5  A    between atoms: C_24  and  C_25
REMARK                            x       y       z     vdW  Elec       q    Type
REMARK                         _______ _______ _______ _____ _____    ______ ____
ROOT
ATOM      1  C   UNL     1       7.060   5.600  16.204  0.00  0.00    +0.000 A 
ATOM      2  N   UNL     1       7.597   5.774  14.948  0.00  0.00    +0.000 NA
ATOM      3  C   UNL     1       7.197   4.963  13.952  0.00  0.00    +0.000 A 
ATOM      4  C   UNL     1       7.712   5.128  12.669  0.00  0.00    +0.000 A 
ATOM      5  C   UNL     1       7.309   4.304  11.614  0.00  0.00    +0.000 A 
ATOM      6  C   UNL     1       6.378   3.302  11.845  0.00  0.00    +0.000 A 
ATOM      7  C   UNL     1       5.860   3.130  13.129  0.00  0.00    +0.000 A 
ATOM      8  C   UNL     1       6.255   3.947  14.181  0.00  0.00    +0.000 A 
ATOM      9  N   UNL     1       5.725   3.768  15.400  0.00  0.00    +0.000 NA
ATOM     10  C   UNL     1       6.105   4.605  16.425  0.00  0.00    +0.000 A 
ENDROOT
BRANCH   1  15
ATOM     11  C   UNL     1       7.996   6.105  18.507  0.00  0.00    +0.000 A 
ATOM     12  C   UNL     1       8.420   7.243  19.138  0.00  0.00    +0.000 A 
ATOM     13  C   UNL     1       8.202   8.304  18.227  0.00  0.00    +0.000 A 
ATOM     14  N   UNL     1       7.649   7.845  17.090  0.00  0.00    +0.000 NA
ATOM     15  N   UNL     1       7.554   6.489  17.231  0.00  0.00    +0.000 N 
BRANCH  13  16
ATOM     16  C   UNL     1       8.558   9.722  18.415  0.00  0.00    +0.000 A 
ATOM     17  C   UNL     1       9.438  10.126  19.433  0.00  0.00    +0.000 A 
ATOM     18  C   UNL     1       9.866  11.456  19.530  0.00  0.00    +0.000 A 
ATOM     19  C   UNL     1       9.419  12.398  18.609  0.00  0.00    +0.000 A 
ATOM     20 CL   UNL     1       9.993  14.017  18.689  0.00  0.00    +0.000 Cl
ATOM     21  C   UNL     1       8.511  12.032  17.622  0.00  0.00    +0.000 A 
ATOM     22  C   UNL     1       8.071  10.705  17.541  0.00  0.00    +0.000 A 
ENDBRANCH  13  16
BRANCH  11  23
ATOM     23  N   UNL     1       7.998   4.833  18.972  0.00  0.00    +0.000 N 
ATOM     24  H   UNL     1       7.289   4.156  18.711  0.00  0.00    +0.000 HD
ATOM     25  H   UNL     1       8.475   4.637  19.859  0.00  0.00    +0.000 HD
ENDBRANCH  11  23
ENDBRANCH   1  15
BRANCH  10  26
ATOM     26  C   UNL     1       5.342   4.331  17.695  0.00  0.00    +0.000 C 
BRANCH  26  27
ATOM     27  C   UNL     1       3.973   4.983  17.779  0.00  0.00    +0.000 A 
ATOM     28  C   UNL     1       2.795   4.222  17.714  0.00  0.00    +0.000 A 
ATOM     29  C   UNL     1       1.546   4.825  17.881  0.00  0.00    +0.000 A 
ATOM     30  C   UNL     1       1.456   6.194  18.122  0.00  0.00    +0.000 A 
ATOM     31  C   UNL     1       2.615   6.961  18.188  0.00  0.00    +0.000 A 
ATOM     32  C   UNL     1       3.862   6.356  18.019  0.00  0.00    +0.000 A 
ENDBRANCH  26  27
ENDBRANCH  10  26
TORSDOF 5
ENDMDL
MODEL 5
REMARK VINA RESULT:      -8.7      0.694      1.423
REMARK  Name = 
REMARK  5 active torsions:
REMARK  status: ('A' for Active; 'I' for Inactive)
REMARK    1  A    between atoms: N_1  and  C_2
REMARK    2  A    between atoms: C_4  and  C_5
REMARK    3  A    between atoms: N_13  and  C_14
REMARK    4  A    between atoms: C_23  and  C_24
REMARK    5  A    between atoms: C_24  and  C_25
REMARK                            x       y       z     vdW  Elec       q    Type
REMARK                         _______ _______ _______ _____ _____    ______ ____
ROOT
ATOM      1  C   UNL     1       7.034   5.644  16.474  0.00  0.00    +0.000 A 
ATOM      2  N   UNL     1       7.471   5.794  15.177  0.00  0.00    +0.000 NA
ATOM      3  C   UNL     1       7.018   4.946  14.237  0.00  0.00    +0.000 A 
ATOM      4  C   UNL     1       7.431   5.086  12.915  0.00  0.00    +0.000 A 
ATOM      5  C   UNL     1       6.971   4.224  11.915  0.00  0.00    +0.000 A 
ATOM      6  C   UNL     1       6.085   3.208  12.242  0.00  0.00    +0.000 A 
ATOM      7  C   UNL     1       5.669   3.061  13.566  0.00  0.00    +0.000 A 
ATOM      8  C   UNL     1       6.121   3.917  14.563  0.00  0.00    +0.000 A 
ATOM      9  N   UNL     1       5.688   3.760  15.823  0.00  0.00    +0.000 NA
ATOM     10  C   UNL     1       6.123   4.633  16.794  0.00  0.00    +0.000 A 
ENDROOT
BRANCH   1  15
ATOM     11  C   UNL     1       8.075   6.241  18.710  0.00  0.00    +0.000 A 
ATOM     12  C   UNL     1       8.537   7.401  19.269  0.00  0.00    +0.000 A 
ATOM     13  C   UNL     1       8.291   8.422  18.321  0.00  0.00    +0.000 A 
ATOM     14  N   UNL     1       7.684   7.919  17.230  0.00  0.00    +0.000 NA
ATOM     15  N   UNL     1       7.582   6.572  17.438  0.00  0.00    +0.000 N 
BRANCH  13  16
ATOM     16  C   UNL     1       8.669   9.843  18.427  0.00  0.00    +0.000 A 
ATOM     17  C   UNL     1       8.204  10.793  17.503  0.00  0.00    +0.000 A 
ATOM     18  C   UNL     1       8.467  12.159  17.679  0.00  0.00    +0.000 A 
ATOM     19  C   UNL     1       9.199  12.587  18.782  0.00  0.00    +0.000 A 
ATOM     20 CL   UNL     1       9.469  14.267  19.032  0.00  0.00    +0.000 Cl
ATOM     21  C   UNL     1       9.710  11.661  19.684  0.00  0.00    +0.000 A 
ATOM     22  C   UNL     1       9.460  10.296  19.493  0.00  0.00    +0.000 A 
ENDBRANCH  13  16
BRANCH  11  23
ATOM     23  N   UNL     1       8.083   4.991  19.232  0.00  0.00    +0.000 N 
ATOM     24  H   UNL     1       7.260   4.567  19.645  0.00  0.00    +0.000 HD
ATOM     25  H   UNL     1       8.976   4.603  19.555  0.00  0.00    +0.000 HD
ENDBRANCH  11  23
ENDBRANCH   1  15
BRANCH  10  26
ATOM     26  C   UNL     1       5.464   4.379  18.124  0.00  0.00    +0.000 C 
BRANCH  26  27
ATOM     27  C   UNL     1       3.970   4.115  18.064  0.00  0.00    +0.000 A 
ATOM     28  C   UNL     1       3.050   5.157  17.868  0.00  0.00    +0.000 A 
ATOM     29  C   UNL     1       1.686   4.888  17.728  0.00  0.00    +0.000 A 
ATOM     30  C   UNL     1       1.223   3.576  17.775  0.00  0.00    +0.000 A 
ATOM     31  C   UNL     1       2.122   2.532  17.970  0.00  0.00    +0.000 A 
ATOM     32  C   UNL     1       3.484   2.804  18.111  0.00  0.00    +0.000 A 
ENDBRANCH  26  27
ENDBRANCH  10  26
TORSDOF 5
ENDMDL
MODEL 6
REMARK VINA RESULT:      -8.6      7.393     10.254
REMARK  Name = 
REMARK  5 active torsions:
REMARK  status: ('A' for Active; 'I' for Inactive)
REMARK    1  A    between atoms: N_1  and  C_2
REMARK    2  A    between atoms: C_4  and  C_5
REMARK    3  A    between atoms: N_13  and  C_14
REMARK    4  A    between atoms: C_23  and  C_24
REMARK    5  A    between atoms: C_24  and  C_25
REMARK                            x       y       z     vdW  Elec       q    Type
REMARK                         _______ _______ _______ _____ _____    ______ ____
ROOT
ATOM      1  C   UNL     1       0.584  11.371  19.810  0.00  0.00    +0.000 A 
ATOM      2  N   UNL     1       1.606  12.292  19.841  0.00  0.00    +0.000 NA
ATOM      3  C   UNL     1       1.361  13.549  19.430  0.00  0.00    +0.000 A 
ATOM      4  C   UNL     1       2.373  14.504  19.467  0.00  0.00    +0.000 A 
ATOM      5  C   UNL     1       2.145  15.820  19.053  0.00  0.00    +0.000 A 
ATOM      6  C   UNL     1       0.886  16.185  18.596  0.00  0.00    +0.000 A 
ATOM      7  C   UNL     1      -0.131  15.231  18.555  0.00  0.00    +0.000 A 
ATOM      8  C   UNL     1       0.089  13.923  18.968  0.00  0.00    +0.000 A 
ATOM      9  N   UNL     1      -0.915  13.035  18.933  0.00  0.00    +0.000 NA
ATOM     10  C   UNL     1      -0.688  11.750  19.372  0.00  0.00    +0.000 A 
ENDROOT
BRANCH   1  15
ATOM     11  C   UNL     1       0.656   9.483  21.504  0.00  0.00    +0.000 A 
ATOM     12  C   UNL     1       1.099   8.190  21.475  0.00  0.00    +0.000 A 
ATOM     13  C   UNL     1       1.651   7.990  20.187  0.00  0.00    +0.000 A 
ATOM     14  N   UNL     1       1.571   9.119  19.458  0.00  0.00    +0.000 NA
ATOM     15  N   UNL     1       0.924  10.033  20.241  0.00  0.00    +0.000 N 
BRANCH  13  16
ATOM     16  C   UNL     1       2.200   6.736  19.641  0.00  0.00    +0.000 A 
ATOM     17  C   UNL     1       2.085   5.523  20.340  0.00  0.00    +0.000 A 
ATOM     18  C   UNL     1       2.501   4.315  19.763  0.00  0.00    +0.000 A 
ATOM     19  C   UNL     1       3.037   4.309  18.479  0.00  0.00    +0.000 A 
ATOM     20 CL   UNL     1       3.488   2.821  17.744  0.00  0.00    +0.000 Cl
ATOM     21  C   UNL     1       3.204   5.503  17.786  0.00  0.00    +0.000 A 
ATOM     22  C   UNL     1       2.804   6.709  18.375  0.00  0.00    +0.000 A 
ENDBRANCH  13  16
BRANCH  11  23
ATOM     23  N   UNL     1       0.055  10.146  22.521  0.00  0.00    +0.000 N 
ATOM     24  H   UNL     1      -0.211   9.691  23.387  0.00  0.00    +0.000 HD
ATOM     25  H   UNL     1      -0.470  11.001  22.305  0.00  0.00    +0.000 HD
ENDBRANCH  11  23
ENDBRANCH   1  15
BRANCH  10  26
ATOM     26  C   UNL     1      -1.942  10.916  19.360  0.00  0.00    +0.000 C 
BRANCH  26  27
ATOM     27  C   UNL     1      -2.599  10.756  18.001  0.00  0.00    +0.000 A 
ATOM     28  C   UNL     1      -3.799  11.414  17.687  0.00  0.00    +0.000 A 
ATOM     29  C   UNL     1      -4.346  11.327  16.404  0.00  0.00    +0.000 A 
ATOM     30  C   UNL     1      -3.698  10.590  15.416  0.00  0.00    +0.000 A 
ATOM     31  C   UNL     1      -2.509   9.932  15.712  0.00  0.00    +0.000 A 
ATOM     32  C   UNL     1      -1.966  10.019  16.995  0.00  0.00    +0.000 A 
ENDBRANCH  26  27
ENDBRANCH  10  26
TORSDOF 5
ENDMDL
MODEL 7
REMARK VINA RESULT:      -8.5      7.223     10.019
REMARK  Name = 
REMARK  5 active torsions:
REMARK  status: ('A' for Active; 'I' for Inactive)
REMARK    1  A    between atoms: N_1  and  C_2
REMARK    2  A    between atoms: C_4  and  C_5
REMARK    3  A    between atoms: N_13  and  C_14
REMARK    4  A    between atoms: C_23  and  C_24
REMARK    5  A    between atoms: C_24  and  C_25
REMARK                            x       y       z     vdW  Elec       q    Type
REMARK                         _______ _______ _______ _____ _____    ______ ____
ROOT
ATOM      1  C   UNL     1       0.704  11.310  19.512  0.00  0.00    +0.000 A 
ATOM      2  N   UNL     1       1.667  12.287  19.634  0.00  0.00    +0.000 NA
ATOM      3  C   UNL     1       1.313  13.573  19.455  0.00  0.00    +0.000 A 
ATOM      4  C   UNL     1       2.263  14.582  19.588  0.00  0.00    +0.000 A 
ATOM      5  C   UNL     1       1.923  15.926  19.415  0.00  0.00    +0.000 A 
ATOM      6  C   UNL     1       0.614  16.267  19.102  0.00  0.00    +0.000 A 
ATOM      7  C   UNL     1      -0.341  15.260  18.964  0.00  0.00    +0.000 A 
ATOM      8  C   UNL     1      -0.010  13.921  19.139  0.00  0.00    +0.000 A 
ATOM      9  N   UNL     1      -0.955  12.979  19.017  0.00  0.00    +0.000 NA
ATOM     10  C   UNL     1      -0.617  11.660  19.221  0.00  0.00    +0.000 A 
ENDROOT
BRANCH   1  15
ATOM     11  C   UNL     1       0.962   9.161  20.837  0.00  0.00    +0.000 A 
ATOM     12  C   UNL     1       1.505   7.935  20.571  0.00  0.00    +0.000 A 
ATOM     13  C   UNL     1       2.044   8.016  19.265  0.00  0.00    +0.000 A 
ATOM     14  N   UNL     1       1.860   9.246  18.753  0.00  0.00    +0.000 NA
ATOM     15  N   UNL     1       1.159   9.949  19.692  0.00  0.00    +0.000 N 
BRANCH  13  16
ATOM     16  C   UNL     1       2.680   6.929  18.498  0.00  0.00    +0.000 A 
ATOM     17  C   UNL     1       3.747   7.183  17.620  0.00  0.00    +0.000 A 
ATOM     18  C   UNL     1       4.425   6.133  16.986  0.00  0.00    +0.000 A 
ATOM     19  C   UNL     1       4.043   4.817  17.226  0.00  0.00    +0.000 A 
ATOM     20 CL   UNL     1       4.915   3.525  16.499  0.00  0.00    +0.000 Cl
ATOM     21  C   UNL     1       2.960   4.544  18.054  0.00  0.00    +0.000 A 
ATOM     22  C   UNL     1       2.274   5.598  18.669  0.00  0.00    +0.000 A 
ENDBRANCH  13  16
BRANCH  11  23
ATOM     23  N   UNL     1       0.331   9.579  21.960  0.00  0.00    +0.000 N 
ATOM     24  H   UNL     1      -0.580  10.025  21.941  0.00  0.00    +0.000 HD
ATOM     25  H   UNL     1       0.898   9.794  22.788  0.00  0.00    +0.000 HD
ENDBRANCH  11  23
ENDBRANCH   1  15
BRANCH  10  26
ATOM     26  C   UNL     1      -1.813  10.748  19.146  0.00  0.00    +0.000 C 
BRANCH  26  27
ATOM     27  C   UNL     1      -2.515  10.712  17.800  0.00  0.00    +0.000 A 
ATOM     28  C   UNL     1      -1.991   9.983  16.721  0.00  0.00    +0.000 A 
ATOM     29  C   UNL     1      -2.693   9.888  15.516  0.00  0.00    +0.000 A 
ATOM     30  C   UNL     1      -3.929  10.512  15.375  0.00  0.00    +0.000 A 
ATOM     31  C   UNL     1      -4.461  11.239  16.436  0.00  0.00    +0.000 A 
ATOM     32  C   UNL     1      -3.757  11.334  17.637  0.00  0.00    +0.000 A 
ENDBRANCH  26  27
ENDBRANCH  10  26
TORSDOF 5
ENDMDL
MODEL 8
REMARK VINA RESULT:      -8.4      6.925      9.644
REMARK  Name = 
REMARK  5 active torsions:
REMARK  status: ('A' for Active; 'I' for Inactive)
REMARK    1  A    between atoms: N_1  and  C_2
REMARK    2  A    between atoms: C_4  and  C_5
REMARK    3  A    between atoms: N_13  and  C_14
REMARK    4  A    between atoms: C_23  and  C_24
REMARK    5  A    between atoms: C_24  and  C_25
REMARK                            x       y       z     vdW  Elec       q    Type
REMARK                         _______ _______ _______ _____ _____    ______ ____
ROOT
ATOM      1  C   UNL     1       0.959  10.780  19.104  0.00  0.00    +0.000 A 
ATOM      2  N   UNL     1       1.848  11.820  19.257  0.00  0.00    +0.000 NA
ATOM      3  C   UNL     1       1.404  13.081  19.111  0.00  0.00    +0.000 A 
ATOM      4  C   UNL     1       2.278  14.151  19.276  0.00  0.00    +0.000 A 
ATOM      5  C   UNL     1       1.843  15.473  19.139  0.00  0.00    +0.000 A 
ATOM      6  C   UNL     1       0.514  15.727  18.830  0.00  0.00    +0.000 A 
ATOM      7  C   UNL     1      -0.366  14.658  18.661  0.00  0.00    +0.000 A 
ATOM      8  C   UNL     1       0.060  13.343  18.800  0.00  0.00    +0.000 A 
ATOM      9  N   UNL     1      -0.815  12.339  18.649  0.00  0.00    +0.000 NA
ATOM     10  C   UNL     1      -0.383  11.043  18.817  0.00  0.00    +0.000 A 
ENDROOT
BRANCH   1  15
ATOM     11  C   UNL     1       1.281   8.579  20.324  0.00  0.00    +0.000 A 
ATOM     12  C   UNL     1       1.947   7.418  20.041  0.00  0.00    +0.000 A 
ATOM     13  C   UNL     1       2.588   7.624  18.796  0.00  0.00    +0.000 A 
ATOM     14  N   UNL     1       2.346   8.866  18.339  0.00  0.00    +0.000 NA
ATOM     15  N   UNL     1       1.509   9.451  19.248  0.00  0.00    +0.000 N 
BRANCH  13  16
ATOM     16  C   UNL     1       3.377   6.642  18.030  0.00  0.00    +0.000 A 
ATOM     17  C   UNL     1       3.051   5.276  18.041  0.00  0.00    +0.000 A 
ATOM     18  C   UNL     1       3.729   4.366  17.218  0.00  0.00    +0.000 A 
ATOM     19  C   UNL     1       4.741   4.815  16.374  0.00  0.00    +0.000 A 
ATOM     20 CL   UNL     1       5.529   3.711  15.317  0.00  0.00    +0.000 Cl
ATOM     21  C   UNL     1       5.112   6.155  16.382  0.00  0.00    +0.000 A 
ATOM     22  C   UNL     1       4.445   7.056  17.220  0.00  0.00    +0.000 A 
ENDBRANCH  13  16
BRANCH  11  23
ATOM     23  N   UNL     1       0.522   8.873  21.407  0.00  0.00    +0.000 N 
ATOM     24  H   UNL     1       0.885   8.835  22.353  0.00  0.00    +0.000 HD
ATOM     25  H   UNL     1      -0.496   8.776  21.331  0.00  0.00    +0.000 HD
ENDBRANCH  11  23
ENDBRANCH   1  15
BRANCH  10  26
ATOM     26  C   UNL     1      -1.511  10.050  18.713  0.00  0.00    +0.000 C 
BRANCH  26  27
ATOM     27  C   UNL     1      -2.453  10.262  17.541  0.00  0.00    +0.000 A 
ATOM     28  C   UNL     1      -3.655  10.972  17.687  0.00  0.00    +0.000 A 
ATOM     29  C   UNL     1      -4.468  11.234  16.582  0.00  0.00    +0.000 A 
ATOM     30  C   UNL     1      -4.089  10.799  15.315  0.00  0.00    +0.000 A 
ATOM     31  C   UNL     1      -2.900  10.093  15.154  0.00  0.00    +0.000 A 
ATOM     32  C   UNL     1      -2.091   9.831  16.260  0.00  0.00    +0.000 A 
ENDBRANCH  26  27
ENDBRANCH  10  26
TORSDOF 5
ENDMDL
MODEL 9
REMARK VINA RESULT:      -8.3      3.272      6.042
REMARK  Name = 
REMARK  5 active torsions:
REMARK  status: ('A' for Active; 'I' for Inactive)
REMARK    1  A    between atoms: N_1  and  C_2
REMARK    2  A    between atoms: C_4  and  C_5
REMARK    3  A    between atoms: N_13  and  C_14
REMARK    4  A    between atoms: C_23  and  C_24
REMARK    5  A    between atoms: C_24  and  C_25
REMARK                            x       y       z     vdW  Elec       q    Type
REMARK                         _______ _______ _______ _____ _____    ______ ____
ROOT
ATOM      1  C   UNL     1       5.419   5.134  16.700  0.00  0.00    +0.000 A 
ATOM      2  N   UNL     1       4.833   4.654  15.550  0.00  0.00    +0.000 NA
ATOM      3  C   UNL     1       5.605   4.435  14.471  0.00  0.00    +0.000 A 
ATOM      4  C   UNL     1       5.041   3.936  13.300  0.00  0.00    +0.000 A 
ATOM      5  C   UNL     1       5.821   3.691  12.166  0.00  0.00    +0.000 A 
ATOM      6  C   UNL     1       7.183   3.950  12.202  0.00  0.00    +0.000 A 
ATOM      7  C   UNL     1       7.753   4.453  13.372  0.00  0.00    +0.000 A 
ATOM      8  C   UNL     1       6.984   4.696  14.504  0.00  0.00    +0.000 A 
ATOM      9  N   UNL     1       7.566   5.162  15.618  0.00  0.00    +0.000 NA
ATOM     10  C   UNL     1       6.795   5.370  16.739  0.00  0.00    +0.000 A 
ENDROOT
BRANCH   1  15
ATOM     11  C   UNL     1       4.396   4.559  18.950  0.00  0.00    +0.000 A 
ATOM     12  C   UNL     1       3.484   5.167  19.769  0.00  0.00    +0.000 A 
ATOM     13  C   UNL     1       3.063   6.335  19.091  0.00  0.00    +0.000 A 
ATOM     14  N   UNL     1       3.672   6.435  17.895  0.00  0.00    +0.000 NA
ATOM     15  N   UNL     1       4.526   5.371  17.813  0.00  0.00    +0.000 N 
BRANCH  13  16
ATOM     16  C   UNL     1       2.134   7.365  19.590  0.00  0.00    +0.000 A 
ATOM     17  C   UNL     1       1.583   7.288  20.880  0.00  0.00    +0.000 A 
ATOM     18  C   UNL     1       0.798   8.329  21.393  0.00  0.00    +0.000 A 
ATOM     19  C   UNL     1       0.555   9.460  20.619  0.00  0.00    +0.000 A 
ATOM     20 CL   UNL     1      -0.354  10.766  21.271  0.00  0.00    +0.000 Cl
ATOM     21  C   UNL     1       1.050   9.538  19.323  0.00  0.00    +0.000 A 
ATOM     22  C   UNL     1       1.818   8.486  18.809  0.00  0.00    +0.000 A 
ENDBRANCH  13  16
BRANCH  11  23
ATOM     23  N   UNL     1       5.080   3.408  19.158  0.00  0.00    +0.000 N 
ATOM     24  H   UNL     1       5.509   2.885  18.402  0.00  0.00    +0.000 HD
ATOM     25  H   UNL     1       4.867   2.857  19.996  0.00  0.00    +0.000 HD
ENDBRANCH  11  23
ENDBRANCH   1  15
BRANCH  10  26
ATOM     26  C   UNL     1       7.620   5.797  17.925  0.00  0.00    +0.000 C 
BRANCH  26  27
ATOM     27  C   UNL     1       7.816   7.295  18.071  0.00  0.00    +0.000 A 
ATOM     28  C   UNL     1       8.723   7.828  19.000  0.00  0.00    +0.000 A 
ATOM     29  C   UNL     1       8.957   9.204  19.062  0.00  0.00    +0.000 A 
ATOM     30  C   UNL     1       8.294  10.066  18.192  0.00  0.00    +0.000 A 
ATOM     31  C   UNL     1       7.391   9.553  17.266  0.00  0.00    +0.000 A 
ATOM     32  C   UNL     1       7.158   8.178  17.208  0.00  0.00    +0.000 A 
ENDBRANCH  26  27
ENDBRANCH  10  26
TORSDOF 5
ENDMDL
