MODEL 1
REMARK VINA RESULT:      -7.9      0.000      0.000
REMARK  Name = 
REMARK  7 active torsions:
REMARK  status: ('A' for Active; 'I' for Inactive)
REMARK    1  A    between atoms: C_1  and  C_2
REMARK    2  A    between atoms: C_2  and  N_3
REMARK    3  A    between atoms: C_5  and  C_6
REMARK    4  A    between atoms: C_9  and  S_10
REMARK    5  A    between atoms: N_11  and  N_12
REMARK    6  A    between atoms: C_13  and  C_14
REMARK    7  A    between atoms: C_26  and  C_27
REMARK                            x       y       z     vdW  Elec       q    Type
REMARK                         _______ _______ _______ _____ _____    ______ ____
ROOT
ATOM      1  C   UNL     1       4.509   3.237  19.391  0.00  0.00    +0.000 A 
ATOM      2  N   UNL     1       4.741   2.260  20.252  0.00  0.00    +0.000 NA
ATOM      3  N   UNL     1       3.675   2.176  21.111  0.00  0.00    +0.000 NA
ATOM      4  C   UNL     1       2.825   3.113  20.770  0.00  0.00    +0.000 A 
ATOM      5  N   UNL     1       3.274   3.829  19.676  0.00  0.00    +0.000 N 
ENDROOT
BRANCH   1   8
ATOM      6  N   UNL     1       6.944   5.341  17.561  0.00  0.00    +0.000 N 
ATOM      7  C   UNL     1       6.193   4.733  18.551  0.00  0.00    +0.000 A 
ATOM      8  C   UNL     1       5.333   3.724  18.356  0.00  0.00    +0.000 A 
ATOM      9  C   UNL     1       5.223   3.170  16.982  0.00  0.00    +0.000 A 
ATOM     10  O   UNL     1       4.466   2.242  16.717  0.00  0.00    +0.000 OA
ATOM     11  C   UNL     1       5.968   3.856  15.907  0.00  0.00    +0.000 A 
ATOM     12  C   UNL     1       5.779   3.469  14.579  0.00  0.00    +0.000 A 
ATOM     13  C   UNL     1       6.455   4.149  13.577  0.00  0.00    +0.000 A 
ATOM     14  C   UNL     1       7.299   5.192  13.939  0.00  0.00    +0.000 A 
ATOM     15  C   UNL     1       8.092   5.928  12.903  0.00  0.00    +0.000 C 
ATOM     16  N   UNL     1       7.479   5.577  15.229  0.00  0.00    +0.000 NA
ATOM     17  C   UNL     1       6.816   4.925  16.214  0.00  0.00    +0.000 A 
BRANCH   6  19
ATOM     18  C   UNL     1       7.199   7.789  17.537  0.00  0.00    +0.000 C 
ATOM     19  C   UNL     1       7.867   6.452  17.820  0.00  0.00    +0.000 C 
ENDBRANCH   6  19
ENDBRANCH   1   8
BRANCH   4  20
ATOM     20  S   UNL     1       1.311   3.419  21.549  0.00  0.00    +0.000 S 
ATOM     21  H   UNL     1       1.713   3.119  22.793  0.00  0.00    +0.000 HD
ENDBRANCH   4  20
BRANCH   5  22
ATOM     22  N   UNL     1       2.678   4.984  19.210  0.00  0.00    +0.000 NA
ATOM     23  C   UNL     1       2.965   6.097  19.797  0.00  0.00    +0.000 C 
BRANCH  23  24
ATOM     24  C   UNL     1       2.322   7.362  19.390  0.00  0.00    +0.000 A 
ATOM     25  C   UNL     1       2.455   7.833  18.078  0.00  0.00    +0.000 A 
ATOM     26  C   UNL     1       1.852   9.034  17.713  0.00  0.00    +0.000 A 
ATOM     27  C   UNL     1       1.119   9.749  18.655  0.00  0.00    +0.000 A 
ATOM     28  F   UNL     1       0.540  10.903  18.300  0.00  0.00    +0.000 F 
ATOM     29  C   UNL     1       0.979   9.286  19.960  0.00  0.00    +0.000 A 
ATOM     30  C   UNL     1       1.586   8.086  20.335  0.00  0.00    +0.000 A 
ENDBRANCH  23  24
ENDBRANCH   5  22
TORSDOF 5
ENDMDL
MODEL 2
REMARK VINA RESULT:      -7.8      4.075      6.346
REMARK  Name = 
REMARK  7 active torsions:
REMARK  status: ('A' for Active; 'I' for Inactive)
REMARK    1  A    between atoms: C_1  and  C_2
REMARK    2  A    between atoms: C_2  and  N_3
REMARK    3  A    between atoms: C_5  and  C_6
REMARK    4  A    between atoms: C_9  and  S_10
REMARK    5  A    between atoms: N_11  and  N_12
REMARK    6  A    between atoms: C_13  and  C_14
REMARK    7  A    between atoms: C_26  and  C_27
REMARK                            x       y       z     vdW  Elec       q    Type
REMARK                         _______ _______ _______ _____ _____    ______ ____
ROOT
ATOM      1  C   UNL     1       0.975   8.783  21.513  0.00  0.00    +0.000 A 
ATOM      2  N   UNL     1       1.496   9.281  22.622  0.00  0.00    +0.000 NA
ATOM      3  N   UNL     1       0.659  10.261  23.093  0.00  0.00    +0.000 NA
ATOM      4  C   UNL     1      -0.343  10.353  22.255  0.00  0.00    +0.000 A 
ATOM      5  N   UNL     1      -0.225   9.439  21.224  0.00  0.00    +0.000 N 
ENDROOT
BRANCH   1   8
ATOM      6  N   UNL     1       2.091   5.487  20.252  0.00  0.00    +0.000 N 
ATOM      7  C   UNL     1       1.495   6.497  20.987  0.00  0.00    +0.000 A 
ATOM      8  C   UNL     1       1.494   7.794  20.653  0.00  0.00    +0.000 A 
ATOM      9  C   UNL     1       2.124   8.173  19.362  0.00  0.00    +0.000 A 
ATOM     10  O   UNL     1       2.161   9.337  18.976  0.00  0.00    +0.000 OA
ATOM     11  C   UNL     1       2.820   7.114  18.605  0.00  0.00    +0.000 A 
ATOM     12  C   UNL     1       3.556   7.447  17.465  0.00  0.00    +0.000 A 
ATOM     13  C   UNL     1       4.237   6.447  16.788  0.00  0.00    +0.000 A 
ATOM     14  C   UNL     1       4.159   5.148  17.273  0.00  0.00    +0.000 A 
ATOM     15  C   UNL     1       4.835   4.021  16.552  0.00  0.00    +0.000 C 
ATOM     16  N   UNL     1       3.452   4.820  18.385  0.00  0.00    +0.000 NA
ATOM     17  C   UNL     1       2.790   5.792  19.059  0.00  0.00    +0.000 A 
BRANCH   6  19
ATOM     18  C   UNL     1       0.789   3.398  20.221  0.00  0.00    +0.000 C 
ATOM     19  C   UNL     1       2.076   4.078  20.662  0.00  0.00    +0.000 C 
ENDBRANCH   6  19
ENDBRANCH   1   8
BRANCH   4  20
ATOM     20  S   UNL     1      -1.675  11.447  22.408  0.00  0.00    +0.000 S 
ATOM     21  H   UNL     1      -1.876  11.632  21.095  0.00  0.00    +0.000 HD
ENDBRANCH   4  20
BRANCH   5  22
ATOM     22  N   UNL     1      -1.033   9.430  20.103  0.00  0.00    +0.000 NA
ATOM     23  C   UNL     1      -1.032  10.472  19.342  0.00  0.00    +0.000 C 
BRANCH  23  24
ATOM     24  C   UNL     1      -1.912  10.555  18.161  0.00  0.00    +0.000 A 
ATOM     25  C   UNL     1      -3.035  11.392  18.172  0.00  0.00    +0.000 A 
ATOM     26  C   UNL     1      -3.862  11.451  17.053  0.00  0.00    +0.000 A 
ATOM     27  C   UNL     1      -3.561  10.680  15.934  0.00  0.00    +0.000 A 
ATOM     28  F   UNL     1      -4.358  10.740  14.861  0.00  0.00    +0.000 F 
ATOM     29  C   UNL     1      -2.445   9.848  15.914  0.00  0.00    +0.000 A 
ATOM     30  C   UNL     1      -1.614   9.780  17.033  0.00  0.00    +0.000 A 
ENDBRANCH  23  24
ENDBRANCH   5  22
TORSDOF 5
ENDMDL
MODEL 3
REMARK VINA RESULT:      -7.8      4.272      6.562
REMARK  Name = 
REMARK  7 active torsions:
REMARK  status: ('A' for Active; 'I' for Inactive)
REMARK    1  A    between atoms: C_1  and  C_2
REMARK    2  A    between atoms: C_2  and  N_3
REMARK    3  A    between atoms: C_5  and  C_6
REMARK    4  A    between atoms: C_9  and  S_10
REMARK    5  A    between atoms: N_11  and  N_12
REMARK    6  A    between atoms: C_13  and  C_14
REMARK    7  A    between atoms: C_26  and  C_27
REMARK                            x       y       z     vdW  Elec       q    Type
REMARK                         _______ _______ _______ _____ _____    ______ ____
ROOT
ATOM      1  C   UNL     1       0.778   9.211  21.242  0.00  0.00    +0.000 A 
ATOM      2  N   UNL     1       1.239   9.836  22.312  0.00  0.00    +0.000 NA
ATOM      3  N   UNL     1       0.358  10.835  22.644  0.00  0.00    +0.000 NA
ATOM      4  C   UNL     1      -0.609  10.811  21.761  0.00  0.00    +0.000 A 
ATOM      5  N   UNL     1      -0.425   9.798  20.837  0.00  0.00    +0.000 N 
ENDROOT
BRANCH   1   8
ATOM      6  N   UNL     1       2.044   5.839  20.388  0.00  0.00    +0.000 N 
ATOM      7  C   UNL     1       1.392   6.901  20.988  0.00  0.00    +0.000 A 
ATOM      8  C   UNL     1       1.357   8.152  20.512  0.00  0.00    +0.000 A 
ATOM      9  C   UNL     1       2.014   8.409  19.205  0.00  0.00    +0.000 A 
ATOM     10  O   UNL     1       2.023   9.524  18.693  0.00  0.00    +0.000 OA
ATOM     11  C   UNL     1       2.769   7.300  18.590  0.00  0.00    +0.000 A 
ATOM     12  C   UNL     1       3.528   7.533  17.441  0.00  0.00    +0.000 A 
ATOM     13  C   UNL     1       4.265   6.490  16.899  0.00  0.00    +0.000 A 
ATOM     14  C   UNL     1       4.216   5.250  17.523  0.00  0.00    +0.000 A 
ATOM     15  C   UNL     1       4.952   4.077  16.952  0.00  0.00    +0.000 C 
ATOM     16  N   UNL     1       3.486   5.021  18.645  0.00  0.00    +0.000 NA
ATOM     17  C   UNL     1       2.770   6.036  19.188  0.00  0.00    +0.000 A 
BRANCH   6  19
ATOM     18  C   UNL     1       0.874   3.675  20.461  0.00  0.00    +0.000 C 
ATOM     19  C   UNL     1       2.064   4.485  20.952  0.00  0.00    +0.000 C 
ENDBRANCH   6  19
ENDBRANCH   1   8
BRANCH   4  20
ATOM     20  S   UNL     1      -1.972  11.876  21.744  0.00  0.00    +0.000 S 
ATOM     21  H   UNL     1      -2.783  11.080  21.032  0.00  0.00    +0.000 HD
ENDBRANCH   4  20
BRANCH   5  22
ATOM     22  N   UNL     1      -1.183   9.649  19.692  0.00  0.00    +0.000 NA
ATOM     23  C   UNL     1      -1.277  10.653  18.888  0.00  0.00    +0.000 C 
BRANCH  23  24
ATOM     24  C   UNL     1      -2.116  10.584  17.676  0.00  0.00    +0.000 A 
ATOM     25  C   UNL     1      -1.773   9.724  16.625  0.00  0.00    +0.000 A 
ATOM     26  C   UNL     1      -2.569   9.678  15.483  0.00  0.00    +0.000 A 
ATOM     27  C   UNL     1      -3.700  10.484  15.402  0.00  0.00    +0.000 A 
ATOM     28  F   UNL     1      -4.463  10.437  14.303  0.00  0.00    +0.000 F 
ATOM     29  C   UNL     1      -4.050  11.340  16.443  0.00  0.00    +0.000 A 
ATOM     30  C   UNL     1      -3.254  11.395  17.588  0.00  0.00    +0.000 A 
ENDBRANCH  23  24
ENDBRANCH   5  22
TORSDOF 5
ENDMDL
MODEL 4
REMARK VINA RESULT:      -7.1      5.705      8.841
REMARK  Name = 
REMARK  7 active torsions:
REMARK  status: ('A' for Active; 'I' for Inactive)
REMARK    1  A    between atoms: C_1  and  C_2
REMARK    2  A    between atoms: C_2  and  N_3
REMARK    3  A    between atoms: C_5  and  C_6
REMARK    4  A    between atoms: C_9  and  S_10
REMARK    5  A    between atoms: N_11  and  N_12
REMARK    6  A    between atoms: C_13  and  C_14
REMARK    7  A    between atoms: C_26  and  C_27
REMARK                            x       y       z     vdW  Elec       q    Type
REMARK                         _______ _______ _______ _____ _____    ______ ____
ROOT
ATOM      1  C   UNL     1       1.387  12.565  19.313  0.00  0.00    +0.000 A 
ATOM      2  N   UNL     1       2.450  13.289  19.010  0.00  0.00    +0.000 NA
ATOM      3  N   UNL     1       2.039  14.567  18.726  0.00  0.00    +0.000 NA
ATOM      4  C   UNL     1       0.734  14.591  18.843  0.00  0.00    +0.000 A 
ATOM      5  N   UNL     1       0.238  13.358  19.226  0.00  0.00    +0.000 N 
ENDROOT
BRANCH   1   8
ATOM      6  N   UNL     1       0.916   9.449  21.255  0.00  0.00    +0.000 N 
ATOM      7  C   UNL     1       0.908  10.767  20.834  0.00  0.00    +0.000 A 
ATOM      8  C   UNL     1       1.306  11.193  19.628  0.00  0.00    +0.000 A 
ATOM      9  C   UNL     1       1.729  10.167  18.641  0.00  0.00    +0.000 A 
ATOM     10  O   UNL     1       2.101  10.469  17.512  0.00  0.00    +0.000 OA
ATOM     11  C   UNL     1       1.806   8.766  19.102  0.00  0.00    +0.000 A 
ATOM     12  C   UNL     1       2.341   7.790  18.260  0.00  0.00    +0.000 A 
ATOM     13  C   UNL     1       2.445   6.486  18.722  0.00  0.00    +0.000 A 
ATOM     14  C   UNL     1       2.007   6.204  20.010  0.00  0.00    +0.000 A 
ATOM     15  C   UNL     1       2.049   4.804  20.542  0.00  0.00    +0.000 C 
ATOM     16  N   UNL     1       1.494   7.152  20.836  0.00  0.00    +0.000 NA
ATOM     17  C   UNL     1       1.397   8.431  20.396  0.00  0.00    +0.000 A 
BRANCH   6  19
ATOM     18  C   UNL     1      -0.571   9.980  23.143  0.00  0.00    +0.000 C 
ATOM     19  C   UNL     1       0.480   9.029  22.592  0.00  0.00    +0.000 C 
ENDBRANCH   6  19
ENDBRANCH   1   8
BRANCH   4  20
ATOM     20  S   UNL     1      -0.266  15.980  18.591  0.00  0.00    +0.000 S 
ATOM     21  H   UNL     1      -0.129  16.031  17.258  0.00  0.00    +0.000 HD
ENDBRANCH   4  20
BRANCH   5  22
ATOM     22  N   UNL     1      -1.105  13.039  19.250  0.00  0.00    +0.000 NA
ATOM     23  C   UNL     1      -1.561  12.250  18.337  0.00  0.00    +0.000 C 
BRANCH  23  24
ATOM     24  C   UNL     1      -2.996  11.912  18.267  0.00  0.00    +0.000 A 
ATOM     25  C   UNL     1      -3.845  12.207  19.341  0.00  0.00    +0.000 A 
ATOM     26  C   UNL     1      -5.195  11.871  19.265  0.00  0.00    +0.000 A 
ATOM     27  C   UNL     1      -5.685  11.252  18.120  0.00  0.00    +0.000 A 
ATOM     28  F   UNL     1      -6.983  10.931  18.050  0.00  0.00    +0.000 F 
ATOM     29  C   UNL     1      -4.848  10.958  17.046  0.00  0.00    +0.000 A 
ATOM     30  C   UNL     1      -3.494  11.286  17.118  0.00  0.00    +0.000 A 
ENDBRANCH  23  24
ENDBRANCH   5  22
TORSDOF 5
ENDMDL
MODEL 5
REMARK VINA RESULT:      -7.0      5.812      8.833
REMARK  Name = 
REMARK  7 active torsions:
REMARK  status: ('A' for Active; 'I' for Inactive)
REMARK    1  A    between atoms: C_1  and  C_2
REMARK    2  A    between atoms: C_2  and  N_3
REMARK    3  A    between atoms: C_5  and  C_6
REMARK    4  A    between atoms: C_9  and  S_10
REMARK    5  A    between atoms: N_11  and  N_12
REMARK    6  A    between atoms: C_13  and  C_14
REMARK    7  A    between atoms: C_26  and  C_27
REMARK                            x       y       z     vdW  Elec       q    Type
REMARK                         _______ _______ _______ _____ _____    ______ ____
ROOT
ATOM      1  C   UNL     1       1.343  12.735  19.518  0.00  0.00    +0.000 A 
ATOM      2  N   UNL     1       2.369  13.562  19.622  0.00  0.00    +0.000 NA
ATOM      3  N   UNL     1       1.941  14.827  19.310  0.00  0.00    +0.000 NA
ATOM      4  C   UNL     1       0.669  14.744  19.005  0.00  0.00    +0.000 A 
ATOM      5  N   UNL     1       0.206  13.446  19.122  0.00  0.00    +0.000 N 
ENDROOT
BRANCH   1   8
ATOM      6  N   UNL     1       0.976   9.428  21.141  0.00  0.00    +0.000 N 
ATOM      7  C   UNL     1       0.925  10.781  20.853  0.00  0.00    +0.000 A 
ATOM      8  C   UNL     1       1.306  11.337  19.695  0.00  0.00    +0.000 A 
ATOM      9  C   UNL     1       1.757  10.427  18.611  0.00  0.00    +0.000 A 
ATOM     10  O   UNL     1       2.116  10.852  17.518  0.00  0.00    +0.000 OA
ATOM     11  C   UNL     1       1.880   8.991  18.930  0.00  0.00    +0.000 A 
ATOM     12  C   UNL     1       2.443   8.120  17.996  0.00  0.00    +0.000 A 
ATOM     13  C   UNL     1       2.588   6.781  18.326  0.00  0.00    +0.000 A 
ATOM     14  C   UNL     1       2.164   6.359  19.580  0.00  0.00    +0.000 A 
ATOM     15  C   UNL     1       2.251   4.915  19.970  0.00  0.00    +0.000 C 
ATOM     16  N   UNL     1       1.624   7.204  20.495  0.00  0.00    +0.000 NA
ATOM     17  C   UNL     1       1.486   8.516  20.185  0.00  0.00    +0.000 A 
BRANCH   6  19
ATOM     18  C   UNL     1      -0.411   9.796  23.140  0.00  0.00    +0.000 C 
ATOM     19  C   UNL     1       0.558   8.864  22.429  0.00  0.00    +0.000 C 
ENDBRANCH   6  19
ENDBRANCH   1   8
BRANCH   4  20
ATOM     20  S   UNL     1      -0.336  16.074  18.542  0.00  0.00    +0.000 S 
ATOM     21  H   UNL     1      -0.925  16.245  19.733  0.00  0.00    +0.000 HD
ENDBRANCH   4  20
BRANCH   5  22
ATOM     22  N   UNL     1      -1.039  13.028  18.693  0.00  0.00    +0.000 NA
ATOM     23  C   UNL     1      -1.912  12.700  19.585  0.00  0.00    +0.000 C 
BRANCH  23  24
ATOM     24  C   UNL     1      -3.242  12.189  19.198  0.00  0.00    +0.000 A 
ATOM     25  C   UNL     1      -3.383  11.358  18.080  0.00  0.00    +0.000 A 
ATOM     26  C   UNL     1      -4.646  10.893  17.721  0.00  0.00    +0.000 A 
ATOM     27  C   UNL     1      -5.753  11.256  18.482  0.00  0.00    +0.000 A 
ATOM     28  F   UNL     1      -6.965  10.807  18.135  0.00  0.00    +0.000 F 
ATOM     29  C   UNL     1      -5.621  12.079  19.597  0.00  0.00    +0.000 A 
ATOM     30  C   UNL     1      -4.359  12.553  19.959  0.00  0.00    +0.000 A 
ENDBRANCH  23  24
ENDBRANCH   5  22
TORSDOF 5
ENDMDL
MODEL 6
REMARK VINA RESULT:      -6.9      5.980      9.100
REMARK  Name = 
REMARK  7 active torsions:
REMARK  status: ('A' for Active; 'I' for Inactive)
REMARK    1  A    between atoms: C_1  and  C_2
REMARK    2  A    between atoms: C_2  and  N_3
REMARK    3  A    between atoms: C_5  and  C_6
REMARK    4  A    between atoms: C_9  and  S_10
REMARK    5  A    between atoms: N_11  and  N_12
REMARK    6  A    between atoms: C_13  and  C_14
REMARK    7  A    between atoms: C_26  and  C_27
REMARK                            x       y       z     vdW  Elec       q    Type
REMARK                         _______ _______ _______ _____ _____    ______ ____
ROOT
ATOM      1  C   UNL     1       1.368  12.796  19.360  0.00  0.00    +0.000 A 
ATOM      2  N   UNL     1       2.431  13.542  19.111  0.00  0.00    +0.000 NA
ATOM      3  N   UNL     1       2.010  14.816  18.821  0.00  0.00    +0.000 NA
ATOM      4  C   UNL     1       0.701  14.815  18.880  0.00  0.00    +0.000 A 
ATOM      5  N   UNL     1       0.211  13.570  19.228  0.00  0.00    +0.000 N 
ENDROOT
BRANCH   1   8
ATOM      6  N   UNL     1       0.976   9.653  21.275  0.00  0.00    +0.000 N 
ATOM      7  C   UNL     1       0.952  10.977  20.874  0.00  0.00    +0.000 A 
ATOM      8  C   UNL     1       1.298  11.420  19.658  0.00  0.00    +0.000 A 
ATOM      9  C   UNL     1       1.675  10.408  18.639  0.00  0.00    +0.000 A 
ATOM     10  O   UNL     1       1.998  10.726  17.499  0.00  0.00    +0.000 OA
ATOM     11  C   UNL     1       1.769   9.001  19.075  0.00  0.00    +0.000 A 
ATOM     12  C   UNL     1       2.264   8.035  18.196  0.00  0.00    +0.000 A 
ATOM     13  C   UNL     1       2.384   6.725  18.635  0.00  0.00    +0.000 A 
ATOM     14  C   UNL     1       2.003   6.425  19.937  0.00  0.00    +0.000 A 
ATOM     15  C   UNL     1       2.066   5.017  20.446  0.00  0.00    +0.000 C 
ATOM     16  N   UNL     1       1.529   7.362  20.798  0.00  0.00    +0.000 NA
ATOM     17  C   UNL     1       1.416   8.647  20.381  0.00  0.00    +0.000 A 
BRANCH   6  19
ATOM     18  C   UNL     1      -0.678   9.904  23.080  0.00  0.00    +0.000 C 
ATOM     19  C   UNL     1       0.598   9.214  22.623  0.00  0.00    +0.000 C 
ENDBRANCH   6  19
ENDBRANCH   1   8
BRANCH   4  20
ATOM     20  S   UNL     1      -0.311  16.189  18.595  0.00  0.00    +0.000 S 
ATOM     21  H   UNL     1      -1.333  15.792  19.367  0.00  0.00    +0.000 HD
ENDBRANCH   4  20
BRANCH   5  22
ATOM     22  N   UNL     1      -1.127  13.227  19.189  0.00  0.00    +0.000 NA
ATOM     23  C   UNL     1      -1.798  13.268  20.290  0.00  0.00    +0.000 C 
BRANCH  23  24
ATOM     24  C   UNL     1      -3.216  12.860  20.334  0.00  0.00    +0.000 A 
ATOM     25  C   UNL     1      -3.977  13.068  21.492  0.00  0.00    +0.000 A 
ATOM     26  C   UNL     1      -5.310  12.667  21.522  0.00  0.00    +0.000 A 
ATOM     27  C   UNL     1      -5.873  12.069  20.399  0.00  0.00    +0.000 A 
ATOM     28  F   UNL     1      -7.155  11.685  20.431  0.00  0.00    +0.000 F 
ATOM     29  C   UNL     1      -5.124  11.861  19.243  0.00  0.00    +0.000 A 
ATOM     30  C   UNL     1      -3.786  12.255  19.208  0.00  0.00    +0.000 A 
ENDBRANCH  23  24
ENDBRANCH   5  22
TORSDOF 5
ENDMDL
MODEL 7
REMARK VINA RESULT:      -6.7      8.476     11.419
REMARK  Name = 
REMARK  7 active torsions:
REMARK  status: ('A' for Active; 'I' for Inactive)
REMARK    1  A    between atoms: C_1  and  C_2
REMARK    2  A    between atoms: C_2  and  N_3
REMARK    3  A    between atoms: C_5  and  C_6
REMARK    4  A    between atoms: C_9  and  S_10
REMARK    5  A    between atoms: N_11  and  N_12
REMARK    6  A    between atoms: C_13  and  C_14
REMARK    7  A    between atoms: C_26  and  C_27
REMARK                            x       y       z     vdW  Elec       q    Type
REMARK                         _______ _______ _______ _____ _____    ______ ____
ROOT
ATOM      1  C   UNL     1      -2.474  13.290  22.044  0.00  0.00    +0.000 A 
ATOM      2  N   UNL     1      -2.964  12.968  23.229  0.00  0.00    +0.000 NA
ATOM      3  N   UNL     1      -2.714  13.999  24.098  0.00  0.00    +0.000 NA
ATOM      4  C   UNL     1      -2.061  14.919  23.432  0.00  0.00    +0.000 A 
ATOM      5  N   UNL     1      -1.875  14.552  22.112  0.00  0.00    +0.000 N 
ENDROOT
BRANCH   1   8
ATOM      6  N   UNL     1      -1.210  11.241  19.232  0.00  0.00    +0.000 N 
ATOM      7  C   UNL     1      -1.344  11.901  20.440  0.00  0.00    +0.000 A 
ATOM      8  C   UNL     1      -2.450  12.532  20.855  0.00  0.00    +0.000 A 
ATOM      9  C   UNL     1      -3.649  12.463  19.982  0.00  0.00    +0.000 A 
ATOM     10  O   UNL     1      -4.706  13.007  20.288  0.00  0.00    +0.000 OA
ATOM     11  C   UNL     1      -3.498  11.820  18.662  0.00  0.00    +0.000 A 
ATOM     12  C   UNL     1      -4.550  11.865  17.745  0.00  0.00    +0.000 A 
ATOM     13  C   UNL     1      -4.377  11.291  16.494  0.00  0.00    +0.000 A 
ATOM     14  C   UNL     1      -3.158  10.691  16.204  0.00  0.00    +0.000 A 
ATOM     15  C   UNL     1      -2.935  10.013  14.887  0.00  0.00    +0.000 C 
ATOM     16  N   UNL     1      -2.129  10.653  17.089  0.00  0.00    +0.000 NA
ATOM     17  C   UNL     1      -2.285  11.219  18.311  0.00  0.00    +0.000 A 
BRANCH   6  19
ATOM     18  C   UNL     1       0.520   9.621  19.894  0.00  0.00    +0.000 C 
ATOM     19  C   UNL     1       0.027  10.572  18.814  0.00  0.00    +0.000 C 
ENDBRANCH   6  19
ENDBRANCH   1   8
BRANCH   4  20
ATOM     20  S   UNL     1      -1.515  16.426  24.084  0.00  0.00    +0.000 S 
ATOM     21  H   UNL     1      -1.680  16.106  25.375  0.00  0.00    +0.000 HD
ENDBRANCH   4  20
BRANCH   5  22
ATOM     22  N   UNL     1      -1.068  15.237  21.224  0.00  0.00    +0.000 NA
ATOM     23  C   UNL     1      -1.635  15.968  20.325  0.00  0.00    +0.000 C 
BRANCH  23  24
ATOM     24  C   UNL     1      -0.837  16.682  19.308  0.00  0.00    +0.000 A 
ATOM     25  C   UNL     1      -1.434  17.650  18.492  0.00  0.00    +0.000 A 
ATOM     26  C   UNL     1      -0.671  18.306  17.529  0.00  0.00    +0.000 A 
ATOM     27  C   UNL     1       0.679  17.997  17.395  0.00  0.00    +0.000 A 
ATOM     28  F   UNL     1       1.410  18.630  16.470  0.00  0.00    +0.000 F 
ATOM     29  C   UNL     1       1.281  17.038  18.205  0.00  0.00    +0.000 A 
ATOM     30  C   UNL     1       0.521  16.372  19.168  0.00  0.00    +0.000 A 
ENDBRANCH  23  24
ENDBRANCH   5  22
TORSDOF 5
ENDMDL
MODEL 8
REMARK VINA RESULT:      -6.7      5.565      8.454
REMARK  Name = 
REMARK  7 active torsions:
REMARK  status: ('A' for Active; 'I' for Inactive)
REMARK    1  A    between atoms: C_1  and  C_2
REMARK    2  A    between atoms: C_2  and  N_3
REMARK    3  A    between atoms: C_5  and  C_6
REMARK    4  A    between atoms: C_9  and  S_10
REMARK    5  A    between atoms: N_11  and  N_12
REMARK    6  A    between atoms: C_13  and  C_14
REMARK    7  A    between atoms: C_26  and  C_27
REMARK                            x       y       z     vdW  Elec       q    Type
REMARK                         _______ _______ _______ _____ _____    ______ ____
ROOT
ATOM      1  C   UNL     1      -0.770  11.731  21.809  0.00  0.00    +0.000 A 
ATOM      2  N   UNL     1      -0.644  12.270  23.010  0.00  0.00    +0.000 NA
ATOM      3  N   UNL     1      -1.721  13.091  23.233  0.00  0.00    +0.000 NA
ATOM      4  C   UNL     1      -2.470  13.051  22.158  0.00  0.00    +0.000 A 
ATOM      5  N   UNL     1      -1.942  12.199  21.206  0.00  0.00    +0.000 N 
ENDROOT
BRANCH   1   8
ATOM      6  N   UNL     1       1.504  10.393  19.213  0.00  0.00    +0.000 N 
ATOM      7  C   UNL     1       0.727  11.227  19.998  0.00  0.00    +0.000 A 
ATOM      8  C   UNL     1       0.107  10.863  21.128  0.00  0.00    +0.000 A 
ATOM      9  C   UNL     1       0.321   9.475  21.614  0.00  0.00    +0.000 A 
ATOM     10  O   UNL     1      -0.202   9.062  22.644  0.00  0.00    +0.000 OA
ATOM     11  C   UNL     1       1.092   8.560  20.750  0.00  0.00    +0.000 A 
ATOM     12  C   UNL     1       1.193   7.209  21.088  0.00  0.00    +0.000 A 
ATOM     13  C   UNL     1       1.886   6.354  20.245  0.00  0.00    +0.000 A 
ATOM     14  C   UNL     1       2.457   6.880  19.093  0.00  0.00    +0.000 A 
ATOM     15  C   UNL     1       3.260   6.012  18.173  0.00  0.00    +0.000 C 
ATOM     16  N   UNL     1       2.355   8.192  18.755  0.00  0.00    +0.000 NA
ATOM     17  C   UNL     1       1.672   9.033  19.569  0.00  0.00    +0.000 A 
BRANCH   6  19
ATOM     18  C   UNL     1       2.537  12.304  18.056  0.00  0.00    +0.000 C 
ATOM     19  C   UNL     1       2.156  10.834  17.974  0.00  0.00    +0.000 C 
ENDBRANCH   6  19
ENDBRANCH   1   8
BRANCH   4  20
ATOM     20  S   UNL     1      -3.952  13.917  21.942  0.00  0.00    +0.000 S 
ATOM     21  H   UNL     1      -3.637  14.962  22.721  0.00  0.00    +0.000 HD
ENDBRANCH   4  20
BRANCH   5  22
ATOM     22  N   UNL     1      -2.415  12.098  19.912  0.00  0.00    +0.000 NA
ATOM     23  C   UNL     1      -2.365  10.945  19.334  0.00  0.00    +0.000 C 
BRANCH  23  24
ATOM     24  C   UNL     1      -2.799  10.776  17.933  0.00  0.00    +0.000 A 
ATOM     25  C   UNL     1      -2.059   9.973  17.056  0.00  0.00    +0.000 A 
ATOM     26  C   UNL     1      -2.475   9.832  15.734  0.00  0.00    +0.000 A 
ATOM     27  C   UNL     1      -3.625  10.485  15.302  0.00  0.00    +0.000 A 
ATOM     28  F   UNL     1      -4.023  10.347  14.032  0.00  0.00    +0.000 F 
ATOM     29  C   UNL     1      -4.368  11.282  16.169  0.00  0.00    +0.000 A 
ATOM     30  C   UNL     1      -3.954  11.434  17.493  0.00  0.00    +0.000 A 
ENDBRANCH  23  24
ENDBRANCH   5  22
TORSDOF 5
ENDMDL
MODEL 9
REMARK VINA RESULT:      -6.7      8.198     11.031
REMARK  Name = 
REMARK  7 active torsions:
REMARK  status: ('A' for Active; 'I' for Inactive)
REMARK    1  A    between atoms: C_1  and  C_2
REMARK    2  A    between atoms: C_2  and  N_3
REMARK    3  A    between atoms: C_5  and  C_6
REMARK    4  A    between atoms: C_9  and  S_10
REMARK    5  A    between atoms: N_11  and  N_12
REMARK    6  A    between atoms: C_13  and  C_14
REMARK    7  A    between atoms: C_26  and  C_27
REMARK                            x       y       z     vdW  Elec       q    Type
REMARK                         _______ _______ _______ _____ _____    ______ ____
ROOT
ATOM      1  C   UNL     1      -1.255  13.295  22.028  0.00  0.00    +0.000 A 
ATOM      2  N   UNL     1      -1.140  12.971  23.304  0.00  0.00    +0.000 NA
ATOM      3  N   UNL     1      -0.861  14.109  24.018  0.00  0.00    +0.000 NA
ATOM      4  C   UNL     1      -0.793  15.098  23.162  0.00  0.00    +0.000 A 
ATOM      5  N   UNL     1      -1.043  14.668  21.872  0.00  0.00    +0.000 N 
ENDROOT
BRANCH   1   8
ATOM      6  N   UNL     1      -0.658  10.908  19.262  0.00  0.00    +0.000 N 
ATOM      7  C   UNL     1      -0.539  11.662  20.416  0.00  0.00    +0.000 A 
ATOM      8  C   UNL     1      -1.492  12.460  20.917  0.00  0.00    +0.000 A 
ATOM      9  C   UNL     1      -2.802  12.489  20.217  0.00  0.00    +0.000 A 
ATOM     10  O   UNL     1      -3.731  13.186  20.612  0.00  0.00    +0.000 OA
ATOM     11  C   UNL     1      -2.917  11.742  18.949  0.00  0.00    +0.000 A 
ATOM     12  C   UNL     1      -4.075  11.860  18.179  0.00  0.00    +0.000 A 
ATOM     13  C   UNL     1      -4.151  11.184  16.970  0.00  0.00    +0.000 A 
ATOM     14  C   UNL     1      -3.067  10.411  16.575  0.00  0.00    +0.000 A 
ATOM     15  C   UNL     1      -3.115   9.619  15.304  0.00  0.00    +0.000 C 
ATOM     16  N   UNL     1      -1.935  10.299  17.317  0.00  0.00    +0.000 NA
ATOM     17  C   UNL     1      -1.847  10.963  18.495  0.00  0.00    +0.000 A 
BRANCH   6  19
ATOM     18  C   UNL     1       1.663  10.876  18.445  0.00  0.00    +0.000 C 
ATOM     19  C   UNL     1       0.418  10.055  18.744  0.00  0.00    +0.000 C 
ENDBRANCH   6  19
ENDBRANCH   1   8
BRANCH   4  20
ATOM     20  S   UNL     1      -0.467  16.748  23.567  0.00  0.00    +0.000 S 
ATOM     21  H   UNL     1      -1.517  17.277  22.924  0.00  0.00    +0.000 HD
ENDBRANCH   4  20
BRANCH   5  22
ATOM     22  N   UNL     1      -0.862  15.450  20.747  0.00  0.00    +0.000 NA
ATOM     23  C   UNL     1       0.293  15.431  20.171  0.00  0.00    +0.000 C 
BRANCH  23  24
ATOM     24  C   UNL     1       0.575  16.284  19.000  0.00  0.00    +0.000 A 
ATOM     25  C   UNL     1      -0.441  17.058  18.427  0.00  0.00    +0.000 A 
ATOM     26  C   UNL     1      -0.162  17.849  17.316  0.00  0.00    +0.000 A 
ATOM     27  C   UNL     1       1.127  17.866  16.791  0.00  0.00    +0.000 A 
ATOM     28  F   UNL     1       1.392  18.628  15.723  0.00  0.00    +0.000 F 
ATOM     29  C   UNL     1       2.144  17.102  17.357  0.00  0.00    +0.000 A 
ATOM     30  C   UNL     1       1.870  16.302  18.468  0.00  0.00    +0.000 A 
ENDBRANCH  23  24
ENDBRANCH   5  22
TORSDOF 5
ENDMDL
