MODEL 1
REMARK VINA RESULT:      -8.7      0.000      0.000
REMARK  Name = 
REMARK  3 active torsions:
REMARK  status: ('A' for Active; 'I' for Inactive)
REMARK    1  A    between atoms: S_2  and  N_4
REMARK    2  A    between atoms: S_2  and  C_15
REMARK    3  A    between atoms: N_4  and  C_5
REMARK                            x       y       z     vdW  Elec       q    Type
REMARK                         _______ _______ _______ _____ _____    ______ ____
ROOT
ATOM      1  N   UNL     1       5.174   3.662  18.494  0.00  0.00    +0.000 NA
ATOM      2  H   UNL     1       5.628   2.752  18.530  0.00  0.00    +0.000 HD
ENDROOT
BRANCH   1   3
ATOM      3  C   UNL     1       4.106   3.931  19.473  0.00  0.00    +0.000 C 
ATOM      4  C   UNL     1       2.942   4.752  18.886  0.00  0.00    +0.000 C 
ATOM      5  C   UNL     1       2.217   3.949  17.789  0.00  0.00    +0.000 C 
ATOM      6  C   UNL     1       1.649   2.645  18.373  0.00  0.00    +0.000 C 
ATOM      7  C   UNL     1       0.666   2.989  19.506  0.00  0.00    +0.000 C 
ATOM      8  C   UNL     1       1.391   3.771  20.614  0.00  0.00    +0.000 C 
ATOM      9  C   UNL     1       1.953   5.072  20.020  0.00  0.00    +0.000 C 
ATOM     10  C   UNL     1       2.550   2.919  21.162  0.00  0.00    +0.000 C 
ATOM     11  C   UNL     1       3.550   2.593  20.032  0.00  0.00    +0.000 C 
ATOM     12  C   UNL     1       2.802   1.803  18.940  0.00  0.00    +0.000 C 
ENDBRANCH   1   3
BRANCH   1  14
ATOM     13  O   UNL     1       5.565   6.121  18.218  0.00  0.00    +0.000 OA
ATOM     14  S   UNL     1       6.248   4.864  17.998  0.00  0.00    +0.000 S 
ATOM     15  O   UNL     1       7.555   4.611  18.560  0.00  0.00    +0.000 OA
BRANCH  14  16
ATOM     16  C   UNL     1       6.331   4.618  16.240  0.00  0.00    +0.000 A 
ATOM     17  C   UNL     1       5.274   3.947  15.610  0.00  0.00    +0.000 A 
ATOM     18  C   UNL     1       5.319   3.735  14.233  0.00  0.00    +0.000 A 
ATOM     19  C   UNL     1       6.406   4.205  13.502  0.00  0.00    +0.000 A 
ATOM     20  F   UNL     1       6.440   4.004  12.177  0.00  0.00    +0.000 F 
ATOM     21  C   UNL     1       7.455   4.878  14.121  0.00  0.00    +0.000 A 
ATOM     22  C   UNL     1       7.425   5.089  15.503  0.00  0.00    +0.000 A 
ENDBRANCH  14  16
ENDBRANCH   1  14
TORSDOF 3
ENDMDL
MODEL 2
REMARK VINA RESULT:      -8.7      0.398      1.130
REMARK  Name = 
REMARK  3 active torsions:
REMARK  status: ('A' for Active; 'I' for Inactive)
REMARK    1  A    between atoms: S_2  and  N_4
REMARK    2  A    between atoms: S_2  and  C_15
REMARK    3  A    between atoms: N_4  and  C_5
REMARK                            x       y       z     vdW  Elec       q    Type
REMARK                         _______ _______ _______ _____ _____    ______ ____
ROOT
ATOM      1  N   UNL     1       4.811   3.793  17.976  0.00  0.00    +0.000 NA
ATOM      2  H   UNL     1       5.030   2.834  17.717  0.00  0.00    +0.000 HD
ENDROOT
BRANCH   1   3
ATOM      3  C   UNL     1       3.953   4.001  19.156  0.00  0.00    +0.000 C 
ATOM      4  C   UNL     1       2.703   4.851  18.851  0.00  0.00    +0.000 C 
ATOM      5  C   UNL     1       1.775   4.109  17.870  0.00  0.00    +0.000 C 
ATOM      6  C   UNL     1       1.321   2.772  18.477  0.00  0.00    +0.000 C 
ATOM      7  C   UNL     1       0.576   3.046  19.795  0.00  0.00    +0.000 C 
ATOM      8  C   UNL     1       1.505   3.766  20.787  0.00  0.00    +0.000 C 
ATOM      9  C   UNL     1       1.953   5.100  20.171  0.00  0.00    +0.000 C 
ATOM     10  C   UNL     1       2.742   2.888  21.052  0.00  0.00    +0.000 C 
ATOM     11  C   UNL     1       3.504   2.631  19.734  0.00  0.00    +0.000 C 
ATOM     12  C   UNL     1       2.555   1.902  18.762  0.00  0.00    +0.000 C 
ENDBRANCH   1   3
BRANCH   1  14
ATOM     13  O   UNL     1       5.569   6.174  17.801  0.00  0.00    +0.000 OA
ATOM     14  S   UNL     1       6.085   4.835  17.609  0.00  0.00    +0.000 S 
ATOM     15  O   UNL     1       7.285   4.389  18.276  0.00  0.00    +0.000 OA
BRANCH  14  16
ATOM     16  C   UNL     1       6.291   4.604  15.859  0.00  0.00    +0.000 A 
ATOM     17  C   UNL     1       7.421   5.159  15.241  0.00  0.00    +0.000 A 
ATOM     18  C   UNL     1       7.602   4.998  13.868  0.00  0.00    +0.000 A 
ATOM     19  C   UNL     1       6.664   4.278  13.134  0.00  0.00    +0.000 A 
ATOM     20  F   UNL     1       6.847   4.120  11.815  0.00  0.00    +0.000 F 
ATOM     21  C   UNL     1       5.544   3.719  13.742  0.00  0.00    +0.000 A 
ATOM     22  C   UNL     1       5.349   3.881  15.117  0.00  0.00    +0.000 A 
ENDBRANCH  14  16
ENDBRANCH   1  14
TORSDOF 3
ENDMDL
MODEL 3
REMARK VINA RESULT:      -8.5      0.869      1.644
REMARK  Name = 
REMARK  3 active torsions:
REMARK  status: ('A' for Active; 'I' for Inactive)
REMARK    1  A    between atoms: S_2  and  N_4
REMARK    2  A    between atoms: S_2  and  C_15
REMARK    3  A    between atoms: N_4  and  C_5
REMARK                            x       y       z     vdW  Elec       q    Type
REMARK                         _______ _______ _______ _____ _____    ______ ____
ROOT
ATOM      1  N   UNL     1       5.333   3.797  17.839  0.00  0.00    +0.000 NA
ATOM      2  H   UNL     1       5.683   2.984  18.342  0.00  0.00    +0.000 HD
ENDROOT
BRANCH   1   3
ATOM      3  C   UNL     1       4.003   4.309  18.214  0.00  0.00    +0.000 C 
ATOM      4  C   UNL     1       2.861   3.679  17.391  0.00  0.00    +0.000 C 
ATOM      5  C   UNL     1       2.753   2.171  17.689  0.00  0.00    +0.000 C 
ATOM      6  C   UNL     1       2.463   1.944  19.181  0.00  0.00    +0.000 C 
ATOM      7  C   UNL     1       1.144   2.646  19.549  0.00  0.00    +0.000 C 
ATOM      8  C   UNL     1       1.255   4.156  19.276  0.00  0.00    +0.000 C 
ATOM      9  C   UNL     1       1.544   4.371  17.782  0.00  0.00    +0.000 C 
ATOM     10  C   UNL     1       2.413   4.738  20.106  0.00  0.00    +0.000 C 
ATOM     11  C   UNL     1       3.741   4.052  19.722  0.00  0.00    +0.000 C 
ATOM     12  C   UNL     1       3.606   2.544  20.014  0.00  0.00    +0.000 C 
ENDBRANCH   1   3
BRANCH   1  14
ATOM     13  O   UNL     1       6.103   6.172  17.630  0.00  0.00    +0.000 OA
ATOM     14  S   UNL     1       6.590   4.830  17.391  0.00  0.00    +0.000 S 
ATOM     15  O   UNL     1       7.829   4.366  17.969  0.00  0.00    +0.000 OA
BRANCH  14  16
ATOM     16  C   UNL     1       6.670   4.612  15.630  0.00  0.00    +0.000 A 
ATOM     17  C   UNL     1       7.646   5.319  14.914  0.00  0.00    +0.000 A 
ATOM     18  C   UNL     1       7.725   5.171  13.530  0.00  0.00    +0.000 A 
ATOM     19  C   UNL     1       6.842   4.313  12.882  0.00  0.00    +0.000 A 
ATOM     20  F   UNL     1       6.927   4.169  11.551  0.00  0.00    +0.000 F 
ATOM     21  C   UNL     1       5.875   3.603  13.587  0.00  0.00    +0.000 A 
ATOM     22  C   UNL     1       5.782   3.750  14.974  0.00  0.00    +0.000 A 
ENDBRANCH  14  16
ENDBRANCH   1  14
TORSDOF 3
ENDMDL
MODEL 4
REMARK VINA RESULT:      -8.3      2.821      3.569
REMARK  Name = 
REMARK  3 active torsions:
REMARK  status: ('A' for Active; 'I' for Inactive)
REMARK    1  A    between atoms: S_2  and  N_4
REMARK    2  A    between atoms: S_2  and  C_15
REMARK    3  A    between atoms: N_4  and  C_5
REMARK                            x       y       z     vdW  Elec       q    Type
REMARK                         _______ _______ _______ _____ _____    ______ ____
ROOT
ATOM      1  N   UNL     1       5.062   3.694  17.036  0.00  0.00    +0.000 NA
ATOM      2  H   UNL     1       5.673   3.104  17.597  0.00  0.00    +0.000 HD
ENDROOT
BRANCH   1   3
ATOM      3  C   UNL     1       3.853   4.233  17.684  0.00  0.00    +0.000 C 
ATOM      4  C   UNL     1       2.569   3.480  17.285  0.00  0.00    +0.000 C 
ATOM      5  C   UNL     1       2.620   2.025  17.792  0.00  0.00    +0.000 C 
ATOM      6  C   UNL     1       2.744   2.001  19.323  0.00  0.00    +0.000 C 
ATOM      7  C   UNL     1       1.535   2.726  19.937  0.00  0.00    +0.000 C 
ATOM      8  C   UNL     1       1.493   4.186  19.453  0.00  0.00    +0.000 C 
ATOM      9  C   UNL     1       1.367   4.199  17.922  0.00  0.00    +0.000 C 
ATOM     10  C   UNL     1       2.797   4.894  19.862  0.00  0.00    +0.000 C 
ATOM     11  C   UNL     1       4.010   4.181  19.228  0.00  0.00    +0.000 C 
ATOM     12  C   UNL     1       4.034   2.726  19.736  0.00  0.00    +0.000 C 
ENDBRANCH   1   3
BRANCH   1  14
ATOM     13  O   UNL     1       6.913   3.676  15.348  0.00  0.00    +0.000 OA
ATOM     14  S   UNL     1       5.940   4.589  15.908  0.00  0.00    +0.000 S 
ATOM     15  O   UNL     1       5.032   5.330  15.063  0.00  0.00    +0.000 OA
BRANCH  14  16
ATOM     16  C   UNL     1       6.832   5.741  16.926  0.00  0.00    +0.000 A 
ATOM     17  C   UNL     1       7.406   5.273  18.116  0.00  0.00    +0.000 A 
ATOM     18  C   UNL     1       8.105   6.159  18.935  0.00  0.00    +0.000 A 
ATOM     19  C   UNL     1       8.233   7.491  18.552  0.00  0.00    +0.000 A 
ATOM     20  F   UNL     1       8.912   8.336  19.341  0.00  0.00    +0.000 F 
ATOM     21  C   UNL     1       7.671   7.959  17.369  0.00  0.00    +0.000 A 
ATOM     22  C   UNL     1       6.961   7.082  16.543  0.00  0.00    +0.000 A 
ENDBRANCH  14  16
ENDBRANCH   1  14
TORSDOF 3
ENDMDL
MODEL 5
REMARK VINA RESULT:      -8.3      2.784      3.856
REMARK  Name = 
REMARK  3 active torsions:
REMARK  status: ('A' for Active; 'I' for Inactive)
REMARK    1  A    between atoms: S_2  and  N_4
REMARK    2  A    between atoms: S_2  and  C_15
REMARK    3  A    between atoms: N_4  and  C_5
REMARK                            x       y       z     vdW  Elec       q    Type
REMARK                         _______ _______ _______ _____ _____    ______ ____
ROOT
ATOM      1  N   UNL     1       5.138   3.509  17.447  0.00  0.00    +0.000 NA
ATOM      2  H   UNL     1       5.654   3.591  18.320  0.00  0.00    +0.000 HD
ENDROOT
BRANCH   1   3
ATOM      3  C   UNL     1       3.681   3.304  17.533  0.00  0.00    +0.000 C 
ATOM      4  C   UNL     1       3.283   2.222  18.556  0.00  0.00    +0.000 C 
ATOM      5  C   UNL     1       3.661   2.666  19.983  0.00  0.00    +0.000 C 
ATOM      6  C   UNL     1       2.931   3.970  20.343  0.00  0.00    +0.000 C 
ATOM      7  C   UNL     1       1.413   3.738  20.251  0.00  0.00    +0.000 C 
ATOM      8  C   UNL     1       1.028   3.317  18.823  0.00  0.00    +0.000 C 
ATOM      9  C   UNL     1       1.762   2.013  18.474  0.00  0.00    +0.000 C 
ATOM     10  C   UNL     1       1.454   4.419  17.837  0.00  0.00    +0.000 C 
ATOM     11  C   UNL     1       2.980   4.638  17.910  0.00  0.00    +0.000 C 
ATOM     12  C   UNL     1       3.337   5.067  19.347  0.00  0.00    +0.000 C 
ENDBRANCH   1   3
BRANCH   1  14
ATOM     13  O   UNL     1       6.784   3.588  15.559  0.00  0.00    +0.000 OA
ATOM     14  S   UNL     1       5.833   4.449  16.231  0.00  0.00    +0.000 S 
ATOM     15  O   UNL     1       4.798   5.140  15.499  0.00  0.00    +0.000 OA
BRANCH  14  16
ATOM     16  C   UNL     1       6.774   5.646  17.148  0.00  0.00    +0.000 A 
ATOM     17  C   UNL     1       6.853   6.954  16.651  0.00  0.00    +0.000 A 
ATOM     18  C   UNL     1       7.591   7.910  17.349  0.00  0.00    +0.000 A 
ATOM     19  C   UNL     1       8.228   7.553  18.533  0.00  0.00    +0.000 A 
ATOM     20  F   UNL     1       8.930   8.478  19.203  0.00  0.00    +0.000 F 
ATOM     21  C   UNL     1       8.148   6.257  19.034  0.00  0.00    +0.000 A 
ATOM     22  C   UNL     1       7.417   5.289  18.339  0.00  0.00    +0.000 A 
ENDBRANCH  14  16
ENDBRANCH   1  14
TORSDOF 3
ENDMDL
MODEL 6
REMARK VINA RESULT:      -8.2      2.819      3.612
REMARK  Name = 
REMARK  3 active torsions:
REMARK  status: ('A' for Active; 'I' for Inactive)
REMARK    1  A    between atoms: S_2  and  N_4
REMARK    2  A    between atoms: S_2  and  C_15
REMARK    3  A    between atoms: N_4  and  C_5
REMARK                            x       y       z     vdW  Elec       q    Type
REMARK                         _______ _______ _______ _____ _____    ______ ____
ROOT
ATOM      1  N   UNL     1       4.974   3.685  16.890  0.00  0.00    +0.000 NA
ATOM      2  H   UNL     1       5.546   3.033  17.422  0.00  0.00    +0.000 HD
ENDROOT
BRANCH   1   3
ATOM      3  C   UNL     1       3.785   4.247  17.556  0.00  0.00    +0.000 C 
ATOM      4  C   UNL     1       2.488   3.486  17.219  0.00  0.00    +0.000 C 
ATOM      5  C   UNL     1       2.551   2.048  17.770  0.00  0.00    +0.000 C 
ATOM      6  C   UNL     1       2.721   2.071  19.297  0.00  0.00    +0.000 C 
ATOM      7  C   UNL     1       1.532   2.820  19.924  0.00  0.00    +0.000 C 
ATOM      8  C   UNL     1       1.479   4.264  19.395  0.00  0.00    +0.000 C 
ATOM      9  C   UNL     1       1.308   4.228  17.868  0.00  0.00    +0.000 C 
ATOM     10  C   UNL     1       2.796   4.980  19.742  0.00  0.00    +0.000 C 
ATOM     11  C   UNL     1       3.989   4.244  19.096  0.00  0.00    +0.000 C 
ATOM     12  C   UNL     1       4.024   2.805  19.648  0.00  0.00    +0.000 C 
ENDBRANCH   1   3
BRANCH   1  14
ATOM     13  O   UNL     1       6.868   3.675  15.250  0.00  0.00    +0.000 OA
ATOM     14  S   UNL     1       5.910   4.596  15.824  0.00  0.00    +0.000 S 
ATOM     15  O   UNL     1       5.050   5.403  14.989  0.00  0.00    +0.000 OA
BRANCH  14  16
ATOM     16  C   UNL     1       6.813   5.672  16.913  0.00  0.00    +0.000 A 
ATOM     17  C   UNL     1       6.979   7.013  16.539  0.00  0.00    +0.000 A 
ATOM     18  C   UNL     1       7.690   7.875  17.373  0.00  0.00    +0.000 A 
ATOM     19  C   UNL     1       8.212   7.394  18.570  0.00  0.00    +0.000 A 
ATOM     20  F   UNL     1       8.888   8.230  19.372  0.00  0.00    +0.000 F 
ATOM     21  C   UNL     1       8.045   6.066  18.950  0.00  0.00    +0.000 A 
ATOM     22  C   UNL     1       7.341   5.191  18.117  0.00  0.00    +0.000 A 
ENDBRANCH  14  16
ENDBRANCH   1  14
TORSDOF 3
ENDMDL
MODEL 7
REMARK VINA RESULT:      -8.2      2.787      3.838
REMARK  Name = 
REMARK  3 active torsions:
REMARK  status: ('A' for Active; 'I' for Inactive)
REMARK    1  A    between atoms: S_2  and  N_4
REMARK    2  A    between atoms: S_2  and  C_15
REMARK    3  A    between atoms: N_4  and  C_5
REMARK                            x       y       z     vdW  Elec       q    Type
REMARK                         _______ _______ _______ _____ _____    ______ ____
ROOT
ATOM      1  N   UNL     1       5.138   3.541  17.470  0.00  0.00    +0.000 NA
ATOM      2  H   UNL     1       5.639   3.664  18.347  0.00  0.00    +0.000 HD
ENDROOT
BRANCH   1   3
ATOM      3  C   UNL     1       3.685   3.308  17.542  0.00  0.00    +0.000 C 
ATOM      4  C   UNL     1       3.298   2.214  18.557  0.00  0.00    +0.000 C 
ATOM      5  C   UNL     1       3.653   2.661  19.989  0.00  0.00    +0.000 C 
ATOM      6  C   UNL     1       2.895   3.950  20.346  0.00  0.00    +0.000 C 
ATOM      7  C   UNL     1       1.382   3.688  20.239  0.00  0.00    +0.000 C 
ATOM      8  C   UNL     1       1.020   3.264  18.805  0.00  0.00    +0.000 C 
ATOM      9  C   UNL     1       1.782   1.976  18.459  0.00  0.00    +0.000 C 
ATOM     10  C   UNL     1       1.433   4.378  17.827  0.00  0.00    +0.000 C 
ATOM     11  C   UNL     1       2.954   4.626  17.916  0.00  0.00    +0.000 C 
ATOM     12  C   UNL     1       3.289   5.057  19.357  0.00  0.00    +0.000 C 
ENDBRANCH   1   3
BRANCH   1  14
ATOM     13  O   UNL     1       6.789   3.582  15.585  0.00  0.00    +0.000 OA
ATOM     14  S   UNL     1       5.832   4.454  16.233  0.00  0.00    +0.000 S 
ATOM     15  O   UNL     1       4.795   5.123  15.482  0.00  0.00    +0.000 OA
BRANCH  14  16
ATOM     16  C   UNL     1       6.765   5.678  17.123  0.00  0.00    +0.000 A 
ATOM     17  C   UNL     1       7.423   5.290  18.299  0.00  0.00    +0.000 A 
ATOM     18  C   UNL     1       8.155   6.233  19.018  0.00  0.00    +0.000 A 
ATOM     19  C   UNL     1       8.232   7.542  18.552  0.00  0.00    +0.000 A 
ATOM     20  F   UNL     1       8.944   8.443  19.245  0.00  0.00    +0.000 F 
ATOM     21  C   UNL     1       7.586   7.931  17.382  0.00  0.00    +0.000 A 
ATOM     22  C   UNL     1       6.843   6.996  16.657  0.00  0.00    +0.000 A 
ENDBRANCH  14  16
ENDBRANCH   1  14
TORSDOF 3
ENDMDL
MODEL 8
REMARK VINA RESULT:      -8.2      2.786      3.723
REMARK  Name = 
REMARK  3 active torsions:
REMARK  status: ('A' for Active; 'I' for Inactive)
REMARK    1  A    between atoms: S_2  and  N_4
REMARK    2  A    between atoms: S_2  and  C_15
REMARK    3  A    between atoms: N_4  and  C_5
REMARK                            x       y       z     vdW  Elec       q    Type
REMARK                         _______ _______ _______ _____ _____    ______ ____
ROOT
ATOM      1  N   UNL     1       4.035   4.682  16.854  0.00  0.00    +0.000 NA
ATOM      2  H   UNL     1       3.313   5.135  16.298  0.00  0.00    +0.000 HD
ENDROOT
BRANCH   1   3
ATOM      3  C   UNL     1       3.616   3.601  17.764  0.00  0.00    +0.000 C 
ATOM      4  C   UNL     1       4.068   3.829  19.220  0.00  0.00    +0.000 C 
ATOM      5  C   UNL     1       3.374   5.072  19.810  0.00  0.00    +0.000 C 
ATOM      6  C   UNL     1       1.849   4.885  19.795  0.00  0.00    +0.000 C 
ATOM      7  C   UNL     1       1.488   3.641  20.625  0.00  0.00    +0.000 C 
ATOM      8  C   UNL     1       2.160   2.393  20.027  0.00  0.00    +0.000 C 
ATOM      9  C   UNL     1       3.683   2.590  20.047  0.00  0.00    +0.000 C 
ATOM     10  C   UNL     1       1.689   2.212  18.573  0.00  0.00    +0.000 C 
ATOM     11  C   UNL     1       2.071   3.449  17.732  0.00  0.00    +0.000 C 
ATOM     12  C   UNL     1       1.379   4.682  18.347  0.00  0.00    +0.000 C 
ENDBRANCH   1   3
BRANCH   1  14
ATOM     13  O   UNL     1       5.995   3.275  16.179  0.00  0.00    +0.000 OA
ATOM     14  S   UNL     1       5.504   4.628  16.026  0.00  0.00    +0.000 S 
ATOM     15  O   UNL     1       5.348   5.229  14.722  0.00  0.00    +0.000 OA
BRANCH  14  16
ATOM     16  C   UNL     1       6.549   5.675  17.010  0.00  0.00    +0.000 A 
ATOM     17  C   UNL     1       6.670   7.025  16.651  0.00  0.00    +0.000 A 
ATOM     18  C   UNL     1       7.490   7.865  17.403  0.00  0.00    +0.000 A 
ATOM     19  C   UNL     1       8.166   7.354  18.506  0.00  0.00    +0.000 A 
ATOM     20  F   UNL     1       8.948   8.169  19.230  0.00  0.00    +0.000 F 
ATOM     21  C   UNL     1       8.045   6.017  18.872  0.00  0.00    +0.000 A 
ATOM     22  C   UNL     1       7.232   5.163  18.121  0.00  0.00    +0.000 A 
ENDBRANCH  14  16
ENDBRANCH   1  14
TORSDOF 3
ENDMDL
MODEL 9
REMARK VINA RESULT:      -8.2      2.732      3.311
REMARK  Name = 
REMARK  3 active torsions:
REMARK  status: ('A' for Active; 'I' for Inactive)
REMARK    1  A    between atoms: S_2  and  N_4
REMARK    2  A    between atoms: S_2  and  C_15
REMARK    3  A    between atoms: N_4  and  C_5
REMARK                            x       y       z     vdW  Elec       q    Type
REMARK                         _______ _______ _______ _____ _____    ______ ____
ROOT
ATOM      1  N   UNL     1       3.956   4.292  16.545  0.00  0.00    +0.000 NA
ATOM      2  H   UNL     1       3.249   3.808  15.998  0.00  0.00    +0.000 HD
ENDROOT
BRANCH   1   3
ATOM      3  C   UNL     1       3.842   4.229  18.014  0.00  0.00    +0.000 C 
ATOM      4  C   UNL     1       2.614   4.986  18.556  0.00  0.00    +0.000 C 
ATOM      5  C   UNL     1       1.313   4.315  18.074  0.00  0.00    +0.000 C 
ATOM      6  C   UNL     1       1.250   2.862  18.571  0.00  0.00    +0.000 C 
ATOM      7  C   UNL     1       1.304   2.854  20.109  0.00  0.00    +0.000 C 
ATOM      8  C   UNL     1       2.612   3.503  20.595  0.00  0.00    +0.000 C 
ATOM      9  C   UNL     1       2.664   4.954  20.093  0.00  0.00    +0.000 C 
ATOM     10  C   UNL     1       3.809   2.723  20.020  0.00  0.00    +0.000 C 
ATOM     11  C   UNL     1       3.769   2.749  18.477  0.00  0.00    +0.000 C 
ATOM     12  C   UNL     1       2.455   2.087  18.017  0.00  0.00    +0.000 C 
ENDBRANCH   1   3
BRANCH   1  14
ATOM     13  O   UNL     1       5.958   2.925  15.910  0.00  0.00    +0.000 OA
ATOM     14  S   UNL     1       5.453   4.275  15.769  0.00  0.00    +0.000 S 
ATOM     15  O   UNL     1       5.336   4.902  14.473  0.00  0.00    +0.000 OA
BRANCH  14  16
ATOM     16  C   UNL     1       6.450   5.314  16.811  0.00  0.00    +0.000 A 
ATOM     17  C   UNL     1       6.420   6.699  16.597  0.00  0.00    +0.000 A 
ATOM     18  C   UNL     1       7.198   7.534  17.397  0.00  0.00    +0.000 A 
ATOM     19  C   UNL     1       7.984   6.982  18.403  0.00  0.00    +0.000 A 
ATOM     20  F   UNL     1       8.725   7.791  19.174  0.00  0.00    +0.000 F 
ATOM     21  C   UNL     1       8.013   5.608  18.625  0.00  0.00    +0.000 A 
ATOM     22  C   UNL     1       7.242   4.760  17.824  0.00  0.00    +0.000 A 
ENDBRANCH  14  16
ENDBRANCH   1  14
TORSDOF 3
ENDMDL
