MODEL 1
REMARK VINA RESULT:      -7.9      0.000      0.000
REMARK  Name = 
REMARK  9 active torsions:
REMARK  status: ('A' for Active; 'I' for Inactive)
REMARK    1  A    between atoms: C_1  and  C_2
REMARK    2  A    between atoms: C_2  and  N_3
REMARK    3  A    between atoms: N_3  and  C_4
REMARK    4  A    between atoms: N_3  and  C_6
REMARK    5  A    between atoms: C_4  and  C_5
REMARK    6  A    between atoms: C_9  and  C_10
REMARK    7  A    between atoms: C_13  and  C_14
REMARK    8  A    between atoms: N_16  and  C_17
REMARK    9  A    between atoms: C_22  and  C_23
REMARK                            x       y       z     vdW  Elec       q    Type
REMARK                         _______ _______ _______ _____ _____    ______ ____
ROOT
ATOM      1  C   UNL     1       2.050   6.681  20.060  0.00  0.00    +0.000 A 
ATOM      2  N   UNL     1       2.721   5.915  19.212  0.00  0.00    +0.000 NA
ATOM      3  C   UNL     1       2.810   4.679  19.824  0.00  0.00    +0.000 A 
ATOM      4  C   UNL     1       3.381   3.463  19.439  0.00  0.00    +0.000 A 
ATOM      5  C   UNL     1       3.268   2.382  20.331  0.00  0.00    +0.000 A 
ATOM      6  C   UNL     1       2.605   2.560  21.538  0.00  0.00    +0.000 A 
ATOM      7  N   UNL     1       2.048   3.717  21.958  0.00  0.00    +0.000 NA
ATOM      8  C   UNL     1       2.193   4.709  21.064  0.00  0.00    +0.000 A 
ATOM      9  N   UNL     1       1.751   5.984  21.209  0.00  0.00    +0.000 N 
ATOM     10  H   UNL     1       1.277   6.336  22.025  0.00  0.00    +0.000 HD
ENDROOT
BRANCH   1  14
ATOM     11  C   UNL     1       0.888  10.789  19.467  0.00  0.00    +0.000 A 
ATOM     12  C   UNL     1       1.428  10.020  18.427  0.00  0.00    +0.000 A 
ATOM     13  C   UNL     1       1.796   8.686  18.612  0.00  0.00    +0.000 A 
ATOM     14  C   UNL     1       1.647   8.071  19.857  0.00  0.00    +0.000 A 
ATOM     15  C   UNL     1       1.120   8.823  20.910  0.00  0.00    +0.000 A 
ATOM     16  C   UNL     1       0.745  10.162  20.714  0.00  0.00    +0.000 A 
BRANCH  11  17
ATOM     17  N   UNL     1       0.490  12.121  19.280  0.00  0.00    +0.000 N 
BRANCH  17  19
ATOM     18  C   UNL     1       2.526  13.481  18.803  0.00  0.00    +0.000 C 
ATOM     19  C   UNL     1       1.400  13.165  19.774  0.00  0.00    +0.000 C 
ENDBRANCH  17  19
BRANCH  17  20
ATOM     20  C   UNL     1      -0.963  12.379  19.293  0.00  0.00    +0.000 C 
ATOM     21  C   UNL     1      -1.678  11.909  18.030  0.00  0.00    +0.000 C 
ENDBRANCH  17  20
ENDBRANCH  11  17
ENDBRANCH   1  14
BRANCH   4  22
ATOM     22  C   UNL     1       4.100   3.274  18.167  0.00  0.00    +0.000 C 
ATOM     23  O   UNL     1       4.058   2.146  17.679  0.00  0.00    +0.000 OA
ATOM     24  N   UNL     1       4.758   4.366  17.626  0.00  0.00    +0.000 N 
ATOM     25  H   UNL     1       4.799   5.210  18.198  0.00  0.00    +0.000 HD
BRANCH  24  26
ATOM     26  C   UNL     1       5.428   4.382  16.372  0.00  0.00    +0.000 A 
ATOM     27  C   UNL     1       4.757   4.234  15.151  0.00  0.00    +0.000 A 
ATOM     28  N   UNL     1       5.350   4.234  13.927  0.00  0.00    +0.000 NA
ATOM     29  C   UNL     1       6.678   4.396  13.908  0.00  0.00    +0.000 A 
ATOM     30  C   UNL     1       7.443   4.574  15.049  0.00  0.00    +0.000 A 
ATOM     31  C   UNL     1       6.821   4.567  16.310  0.00  0.00    +0.000 A 
ATOM     32  C   UNL     1       7.681   4.758  17.527  0.00  0.00    +0.000 C 
ENDBRANCH  24  26
ENDBRANCH   4  22
TORSDOF 6
ENDMDL
MODEL 2
REMARK VINA RESULT:      -7.9      0.343      1.661
REMARK  Name = 
REMARK  9 active torsions:
REMARK  status: ('A' for Active; 'I' for Inactive)
REMARK    1  A    between atoms: C_1  and  C_2
REMARK    2  A    between atoms: C_2  and  N_3
REMARK    3  A    between atoms: N_3  and  C_4
REMARK    4  A    between atoms: N_3  and  C_6
REMARK    5  A    between atoms: C_4  and  C_5
REMARK    6  A    between atoms: C_9  and  C_10
REMARK    7  A    between atoms: C_13  and  C_14
REMARK    8  A    between atoms: N_16  and  C_17
REMARK    9  A    between atoms: C_22  and  C_23
REMARK                            x       y       z     vdW  Elec       q    Type
REMARK                         _______ _______ _______ _____ _____    ______ ____
ROOT
ATOM      1  C   UNL     1       2.063   6.695  20.039  0.00  0.00    +0.000 A 
ATOM      2  N   UNL     1       2.736   5.932  19.188  0.00  0.00    +0.000 NA
ATOM      3  C   UNL     1       2.816   4.691  19.791  0.00  0.00    +0.000 A 
ATOM      4  C   UNL     1       3.383   3.476  19.399  0.00  0.00    +0.000 A 
ATOM      5  C   UNL     1       3.260   2.389  20.282  0.00  0.00    +0.000 A 
ATOM      6  C   UNL     1       2.593   2.560  21.486  0.00  0.00    +0.000 A 
ATOM      7  N   UNL     1       2.038   3.716  21.914  0.00  0.00    +0.000 NA
ATOM      8  C   UNL     1       2.192   4.714  21.028  0.00  0.00    +0.000 A 
ATOM      9  N   UNL     1       1.756   5.990  21.181  0.00  0.00    +0.000 N 
ATOM     10  H   UNL     1       1.279   6.338  21.997  0.00  0.00    +0.000 HD
ENDROOT
BRANCH   1  14
ATOM     11  C   UNL     1       0.872  10.797  19.463  0.00  0.00    +0.000 A 
ATOM     12  C   UNL     1       0.711  10.150  20.697  0.00  0.00    +0.000 A 
ATOM     13  C   UNL     1       1.104   8.825  20.891  0.00  0.00    +0.000 A 
ATOM     14  C   UNL     1       1.668   8.088  19.846  0.00  0.00    +0.000 A 
ATOM     15  C   UNL     1       1.828   8.711  18.606  0.00  0.00    +0.000 A 
ATOM     16  C   UNL     1       1.436  10.046  18.420  0.00  0.00    +0.000 A 
BRANCH  11  17
ATOM     17  N   UNL     1       0.503  12.136  19.270  0.00  0.00    +0.000 N 
BRANCH  17  19
ATOM     18  C   UNL     1      -1.976  12.317  19.484  0.00  0.00    +0.000 C 
ATOM     19  C   UNL     1      -0.764  12.386  18.567  0.00  0.00    +0.000 C 
ENDBRANCH  17  19
BRANCH  17  20
ATOM     20  C   UNL     1       1.607  13.103  19.111  0.00  0.00    +0.000 C 
ATOM     21  C   UNL     1       2.252  13.516  20.431  0.00  0.00    +0.000 C 
ENDBRANCH  17  20
ENDBRANCH  11  17
ENDBRANCH   1  14
BRANCH   4  22
ATOM     22  C   UNL     1       4.108   3.294  18.129  0.00  0.00    +0.000 C 
ATOM     23  O   UNL     1       4.059   2.172  17.630  0.00  0.00    +0.000 OA
ATOM     24  N   UNL     1       4.779   4.386  17.604  0.00  0.00    +0.000 N 
ATOM     25  H   UNL     1       4.824   5.223  18.184  0.00  0.00    +0.000 HD
BRANCH  24  26
ATOM     26  C   UNL     1       5.455   4.409  16.354  0.00  0.00    +0.000 A 
ATOM     27  C   UNL     1       4.789   4.294  15.127  0.00  0.00    +0.000 A 
ATOM     28  N   UNL     1       5.389   4.302  13.906  0.00  0.00    +0.000 NA
ATOM     29  C   UNL     1       6.719   4.438  13.897  0.00  0.00    +0.000 A 
ATOM     30  C   UNL     1       7.482   4.582  15.045  0.00  0.00    +0.000 A 
ATOM     31  C   UNL     1       6.853   4.567  16.302  0.00  0.00    +0.000 A 
ATOM     32  C   UNL     1       7.709   4.721  17.526  0.00  0.00    +0.000 C 
ENDBRANCH  24  26
ENDBRANCH   4  22
TORSDOF 6
ENDMDL
MODEL 3
REMARK VINA RESULT:      -7.8      3.116      8.748
REMARK  Name = 
REMARK  9 active torsions:
REMARK  status: ('A' for Active; 'I' for Inactive)
REMARK    1  A    between atoms: C_1  and  C_2
REMARK    2  A    between atoms: C_2  and  N_3
REMARK    3  A    between atoms: N_3  and  C_4
REMARK    4  A    between atoms: N_3  and  C_6
REMARK    5  A    between atoms: C_4  and  C_5
REMARK    6  A    between atoms: C_9  and  C_10
REMARK    7  A    between atoms: C_13  and  C_14
REMARK    8  A    between atoms: N_16  and  C_17
REMARK    9  A    between atoms: C_22  and  C_23
REMARK                            x       y       z     vdW  Elec       q    Type
REMARK                         _______ _______ _______ _____ _____    ______ ____
ROOT
ATOM      1  C   UNL     1       1.982   7.898  19.908  0.00  0.00    +0.000 A 
ATOM      2  N   UNL     1       1.089   8.717  19.368  0.00  0.00    +0.000 NA
ATOM      3  C   UNL     1       0.501   9.372  20.433  0.00  0.00    +0.000 A 
ATOM      4  C   UNL     1      -0.492  10.352  20.520  0.00  0.00    +0.000 A 
ATOM      5  C   UNL     1      -0.843  10.809  21.802  0.00  0.00    +0.000 A 
ATOM      6  C   UNL     1      -0.202  10.280  22.913  0.00  0.00    +0.000 A 
ATOM      7  N   UNL     1       0.753   9.325  22.882  0.00  0.00    +0.000 NA
ATOM      8  C   UNL     1       1.040   8.930  21.631  0.00  0.00    +0.000 A 
ATOM      9  N   UNL     1       1.944   7.979  21.282  0.00  0.00    +0.000 N 
ATOM     10  H   UNL     1       2.493   7.445  21.935  0.00  0.00    +0.000 HD
ENDROOT
BRANCH   1  14
ATOM     11  C   UNL     1       4.731   5.312  17.826  0.00  0.00    +0.000 A 
ATOM     12  C   UNL     1       4.265   5.008  19.113  0.00  0.00    +0.000 A 
ATOM     13  C   UNL     1       3.367   5.837  19.787  0.00  0.00    +0.000 A 
ATOM     14  C   UNL     1       2.907   7.017  19.198  0.00  0.00    +0.000 A 
ATOM     15  C   UNL     1       3.367   7.344  17.920  0.00  0.00    +0.000 A 
ATOM     16  C   UNL     1       4.265   6.502  17.247  0.00  0.00    +0.000 A 
BRANCH  11  17
ATOM     17  N   UNL     1       5.612   4.469  17.134  0.00  0.00    +0.000 N 
BRANCH  17  19
ATOM     18  C   UNL     1       7.470   5.900  17.985  0.00  0.00    +0.000 C 
ATOM     19  C   UNL     1       7.029   4.519  17.523  0.00  0.00    +0.000 C 
ENDBRANCH  17  19
BRANCH  17  20
ATOM     20  C   UNL     1       5.270   4.177  15.728  0.00  0.00    +0.000 C 
ATOM     21  C   UNL     1       6.358   4.584  14.739  0.00  0.00    +0.000 C 
ENDBRANCH  17  20
ENDBRANCH  11  17
ENDBRANCH   1  14
BRANCH   4  22
ATOM     22  C   UNL     1      -1.186  10.905  19.343  0.00  0.00    +0.000 C 
ATOM     23  O   UNL     1      -0.965  12.086  19.085  0.00  0.00    +0.000 OA
ATOM     24  N   UNL     1      -2.023  10.063  18.630  0.00  0.00    +0.000 N 
ATOM     25  H   UNL     1      -2.195   9.139  19.026  0.00  0.00    +0.000 HD
BRANCH  24  26
ATOM     26  C   UNL     1      -2.702  10.406  17.429  0.00  0.00    +0.000 A 
ATOM     27  C   UNL     1      -2.263   9.995  16.163  0.00  0.00    +0.000 A 
ATOM     28  N   UNL     1      -2.870  10.302  14.986  0.00  0.00    +0.000 NA
ATOM     29  C   UNL     1      -3.976  11.050  15.063  0.00  0.00    +0.000 A 
ATOM     30  C   UNL     1      -4.517  11.495  16.259  0.00  0.00    +0.000 A 
ATOM     31  C   UNL     1      -3.879  11.176  17.470  0.00  0.00    +0.000 A 
ATOM     32  C   UNL     1      -4.489  11.679  18.748  0.00  0.00    +0.000 C 
ENDBRANCH  24  26
ENDBRANCH   4  22
TORSDOF 6
ENDMDL
MODEL 4
REMARK VINA RESULT:      -7.8      0.516      1.450
REMARK  Name = 
REMARK  9 active torsions:
REMARK  status: ('A' for Active; 'I' for Inactive)
REMARK    1  A    between atoms: C_1  and  C_2
REMARK    2  A    between atoms: C_2  and  N_3
REMARK    3  A    between atoms: N_3  and  C_4
REMARK    4  A    between atoms: N_3  and  C_6
REMARK    5  A    between atoms: C_4  and  C_5
REMARK    6  A    between atoms: C_9  and  C_10
REMARK    7  A    between atoms: C_13  and  C_14
REMARK    8  A    between atoms: N_16  and  C_17
REMARK    9  A    between atoms: C_22  and  C_23
REMARK                            x       y       z     vdW  Elec       q    Type
REMARK                         _______ _______ _______ _____ _____    ______ ____
ROOT
ATOM      1  C   UNL     1       2.058   6.867  19.856  0.00  0.00    +0.000 A 
ATOM      2  N   UNL     1       2.767   6.115  19.025  0.00  0.00    +0.000 NA
ATOM      3  C   UNL     1       2.830   4.869  19.620  0.00  0.00    +0.000 A 
ATOM      4  C   UNL     1       3.419   3.660  19.242  0.00  0.00    +0.000 A 
ATOM      5  C   UNL     1       3.268   2.565  20.109  0.00  0.00    +0.000 A 
ATOM      6  C   UNL     1       2.552   2.722  21.288  0.00  0.00    +0.000 A 
ATOM      7  N   UNL     1       1.975   3.872  21.703  0.00  0.00    +0.000 NA
ATOM      8  C   UNL     1       2.158   4.878  20.832  0.00  0.00    +0.000 A 
ATOM      9  N   UNL     1       1.710   6.151  20.979  0.00  0.00    +0.000 N 
ATOM     10  H   UNL     1       1.199   6.489  21.779  0.00  0.00    +0.000 HD
ENDROOT
BRANCH   1  14
ATOM     11  C   UNL     1       0.918  10.984  19.281  0.00  0.00    +0.000 A 
ATOM     12  C   UNL     1       1.540  10.244  18.266  0.00  0.00    +0.000 A 
ATOM     13  C   UNL     1       1.902   8.907  18.444  0.00  0.00    +0.000 A 
ATOM     14  C   UNL     1       1.663   8.260  19.659  0.00  0.00    +0.000 A 
ATOM     15  C   UNL     1       1.053   8.982  20.687  0.00  0.00    +0.000 A 
ATOM     16  C   UNL     1       0.686  10.324  20.498  0.00  0.00    +0.000 A 
BRANCH  11  17
ATOM     17  N   UNL     1       0.528  12.318  19.098  0.00  0.00    +0.000 N 
BRANCH  17  19
ATOM     18  C   UNL     1      -1.643  11.767  17.999  0.00  0.00    +0.000 C 
ATOM     19  C   UNL     1      -0.916  12.591  19.051  0.00  0.00    +0.000 C 
ENDBRANCH  17  19
BRANCH  17  20
ATOM     20  C   UNL     1       1.438  13.163  18.299  0.00  0.00    +0.000 C 
ATOM     21  C   UNL     1       2.695  13.588  19.053  0.00  0.00    +0.000 C 
ENDBRANCH  17  20
ENDBRANCH  11  17
ENDBRANCH   1  14
BRANCH   4  22
ATOM     22  C   UNL     1       4.194   3.492  17.999  0.00  0.00    +0.000 C 
ATOM     23  O   UNL     1       4.177   2.372  17.493  0.00  0.00    +0.000 OA
ATOM     24  N   UNL     1       4.872   4.594  17.505  0.00  0.00    +0.000 N 
ATOM     25  H   UNL     1       4.885   5.429  18.091  0.00  0.00    +0.000 HD
BRANCH  24  26
ATOM     26  C   UNL     1       5.596   4.631  16.282  0.00  0.00    +0.000 A 
ATOM     27  C   UNL     1       5.160   3.980  15.121  0.00  0.00    +0.000 A 
ATOM     28  N   UNL     1       5.818   3.978  13.931  0.00  0.00    +0.000 NA
ATOM     29  C   UNL     1       6.966   4.661  13.883  0.00  0.00    +0.000 A 
ATOM     30  C   UNL     1       7.485   5.362  14.960  0.00  0.00    +0.000 A 
ATOM     31  C   UNL     1       6.800   5.354  16.187  0.00  0.00    +0.000 A 
ATOM     32  C   UNL     1       7.392   6.120  17.336  0.00  0.00    +0.000 C 
ENDBRANCH  24  26
ENDBRANCH   4  22
TORSDOF 6
ENDMDL
MODEL 5
REMARK VINA RESULT:      -7.7      0.532      1.052
REMARK  Name = 
REMARK  9 active torsions:
REMARK  status: ('A' for Active; 'I' for Inactive)
REMARK    1  A    between atoms: C_1  and  C_2
REMARK    2  A    between atoms: C_2  and  N_3
REMARK    3  A    between atoms: N_3  and  C_4
REMARK    4  A    between atoms: N_3  and  C_6
REMARK    5  A    between atoms: C_4  and  C_5
REMARK    6  A    between atoms: C_9  and  C_10
REMARK    7  A    between atoms: C_13  and  C_14
REMARK    8  A    between atoms: N_16  and  C_17
REMARK    9  A    between atoms: C_22  and  C_23
REMARK                            x       y       z     vdW  Elec       q    Type
REMARK                         _______ _______ _______ _____ _____    ______ ____
ROOT
ATOM      1  C   UNL     1       2.106   6.744  20.013  0.00  0.00    +0.000 A 
ATOM      2  N   UNL     1       2.797   6.006  19.154  0.00  0.00    +0.000 NA
ATOM      3  C   UNL     1       2.894   4.757  19.736  0.00  0.00    +0.000 A 
ATOM      4  C   UNL     1       3.484   3.557  19.328  0.00  0.00    +0.000 A 
ATOM      5  C   UNL     1       3.373   2.454  20.192  0.00  0.00    +0.000 A 
ATOM      6  C   UNL     1       2.696   2.594  21.395  0.00  0.00    +0.000 A 
ATOM      7  N   UNL     1       2.120   3.734  21.837  0.00  0.00    +0.000 NA
ATOM      8  C   UNL     1       2.262   4.749  20.969  0.00  0.00    +0.000 A 
ATOM      9  N   UNL     1       1.804   6.015  21.141  0.00  0.00    +0.000 N 
ATOM     10  H   UNL     1       1.316   6.341  21.960  0.00  0.00    +0.000 HD
ENDROOT
BRANCH   1  14
ATOM     11  C   UNL     1       0.851  10.835  19.497  0.00  0.00    +0.000 A 
ATOM     12  C   UNL     1       0.711  10.171  20.725  0.00  0.00    +0.000 A 
ATOM     13  C   UNL     1       1.125   8.849  20.899  0.00  0.00    +0.000 A 
ATOM     14  C   UNL     1       1.689   8.134  19.840  0.00  0.00    +0.000 A 
ATOM     15  C   UNL     1       1.829   8.773  18.606  0.00  0.00    +0.000 A 
ATOM     16  C   UNL     1       1.416  10.104  18.441  0.00  0.00    +0.000 A 
BRANCH  11  17
ATOM     17  N   UNL     1       0.461  12.171  19.325  0.00  0.00    +0.000 N 
BRANCH  17  19
ATOM     18  C   UNL     1       2.401  13.468  20.206  0.00  0.00    +0.000 C 
ATOM     19  C   UNL     1       0.923  13.136  20.333  0.00  0.00    +0.000 C 
ENDBRANCH  17  19
BRANCH  17  20
ATOM     20  C   UNL     1      -0.843  12.393  18.671  0.00  0.00    +0.000 C 
ATOM     21  C   UNL     1      -1.999  12.551  19.654  0.00  0.00    +0.000 C 
ENDBRANCH  17  20
ENDBRANCH  11  17
ENDBRANCH   1  14
BRANCH   4  22
ATOM     22  C   UNL     1       4.219   3.409  18.060  0.00  0.00    +0.000 C 
ATOM     23  O   UNL     1       4.129   2.317  17.503  0.00  0.00    +0.000 OA
ATOM     24  N   UNL     1       4.945   4.495  17.600  0.00  0.00    +0.000 N 
ATOM     25  H   UNL     1       5.017   5.299  18.224  0.00  0.00    +0.000 HD
BRANCH  24  26
ATOM     26  C   UNL     1       5.641   4.552  16.362  0.00  0.00    +0.000 A 
ATOM     27  C   UNL     1       5.196   3.893  15.209  0.00  0.00    +0.000 A 
ATOM     28  N   UNL     1       5.827   3.909  14.005  0.00  0.00    +0.000 NA
ATOM     29  C   UNL     1       6.958   4.620  13.934  0.00  0.00    +0.000 A 
ATOM     30  C   UNL     1       7.482   5.331  15.001  0.00  0.00    +0.000 A 
ATOM     31  C   UNL     1       6.824   5.305  16.243  0.00  0.00    +0.000 A 
ATOM     32  C   UNL     1       7.422   6.082  17.380  0.00  0.00    +0.000 C 
ENDBRANCH  24  26
ENDBRANCH   4  22
TORSDOF 6
ENDMDL
MODEL 6
REMARK VINA RESULT:      -7.6      4.638      7.487
REMARK  Name = 
REMARK  9 active torsions:
REMARK  status: ('A' for Active; 'I' for Inactive)
REMARK    1  A    between atoms: C_1  and  C_2
REMARK    2  A    between atoms: C_2  and  N_3
REMARK    3  A    between atoms: N_3  and  C_4
REMARK    4  A    between atoms: N_3  and  C_6
REMARK    5  A    between atoms: C_4  and  C_5
REMARK    6  A    between atoms: C_9  and  C_10
REMARK    7  A    between atoms: C_13  and  C_14
REMARK    8  A    between atoms: N_16  and  C_17
REMARK    9  A    between atoms: C_22  and  C_23
REMARK                            x       y       z     vdW  Elec       q    Type
REMARK                         _______ _______ _______ _____ _____    ______ ____
ROOT
ATOM      1  C   UNL     1       7.482   7.847  17.481  0.00  0.00    +0.000 A 
ATOM      2  N   UNL     1       6.500   7.175  18.066  0.00  0.00    +0.000 NA
ATOM      3  C   UNL     1       6.304   6.053  17.283  0.00  0.00    +0.000 A 
ATOM      4  C   UNL     1       5.431   4.966  17.374  0.00  0.00    +0.000 A 
ATOM      5  C   UNL     1       5.521   3.976  16.380  0.00  0.00    +0.000 A 
ATOM      6  C   UNL     1       6.456   4.113  15.364  0.00  0.00    +0.000 A 
ATOM      7  N   UNL     1       7.313   5.149  15.226  0.00  0.00    +0.000 NA
ATOM      8  C   UNL     1       7.174   6.060  16.204  0.00  0.00    +0.000 A 
ATOM      9  N   UNL     1       7.882   7.212  16.327  0.00  0.00    +0.000 N 
ATOM     10  H   UNL     1       8.586   7.523  15.678  0.00  0.00    +0.000 HD
ENDROOT
BRANCH   1  14
ATOM     11  C   UNL     1       9.281  11.504  18.884  0.00  0.00    +0.000 A 
ATOM     12  C   UNL     1       9.551  10.270  19.493  0.00  0.00    +0.000 A 
ATOM     13  C   UNL     1       8.979   9.081  19.036  0.00  0.00    +0.000 A 
ATOM     14  C   UNL     1       8.099   9.086  17.951  0.00  0.00    +0.000 A 
ATOM     15  C   UNL     1       7.808  10.306  17.336  0.00  0.00    +0.000 A 
ATOM     16  C   UNL     1       8.393  11.495  17.797  0.00  0.00    +0.000 A 
BRANCH  11  17
ATOM     17  N   UNL     1       9.875  12.696  19.322  0.00  0.00    +0.000 N 
BRANCH  17  19
ATOM     18  C   UNL     1       9.493  15.143  19.019  0.00  0.00    +0.000 C 
ATOM     19  C   UNL     1       9.888  13.822  18.377  0.00  0.00    +0.000 C 
ENDBRANCH  17  19
BRANCH  17  20
ATOM     20  C   UNL     1      10.989  12.559  20.281  0.00  0.00    +0.000 C 
ATOM     21  C   UNL     1      12.333  12.273  19.618  0.00  0.00    +0.000 C 
ENDBRANCH  17  20
ENDBRANCH  11  17
ENDBRANCH   1  14
BRANCH   4  22
ATOM     22  C   UNL     1       4.425   4.825  18.442  0.00  0.00    +0.000 C 
ATOM     23  O   UNL     1       3.974   5.869  18.907  0.00  0.00    +0.000 OA
ATOM     24  N   UNL     1       4.071   3.544  18.833  0.00  0.00    +0.000 N 
ATOM     25  H   UNL     1       4.610   2.774  18.436  0.00  0.00    +0.000 HD
BRANCH  24  26
ATOM     26  C   UNL     1       3.064   3.226  19.784  0.00  0.00    +0.000 A 
ATOM     27  C   UNL     1       3.355   2.840  21.099  0.00  0.00    +0.000 A 
ATOM     28  N   UNL     1       2.431   2.518  22.044  0.00  0.00    +0.000 NA
ATOM     29  C   UNL     1       1.149   2.587  21.671  0.00  0.00    +0.000 A 
ATOM     30  C   UNL     1       0.740   2.977  20.406  0.00  0.00    +0.000 A 
ATOM     31  C   UNL     1       1.703   3.304  19.435  0.00  0.00    +0.000 A 
ATOM     32  C   UNL     1       1.226   3.718  18.073  0.00  0.00    +0.000 C 
ENDBRANCH  24  26
ENDBRANCH   4  22
TORSDOF 6
ENDMDL
MODEL 7
REMARK VINA RESULT:      -7.6      4.670      7.395
REMARK  Name = 
REMARK  9 active torsions:
REMARK  status: ('A' for Active; 'I' for Inactive)
REMARK    1  A    between atoms: C_1  and  C_2
REMARK    2  A    between atoms: C_2  and  N_3
REMARK    3  A    between atoms: N_3  and  C_4
REMARK    4  A    between atoms: N_3  and  C_6
REMARK    5  A    between atoms: C_4  and  C_5
REMARK    6  A    between atoms: C_9  and  C_10
REMARK    7  A    between atoms: C_13  and  C_14
REMARK    8  A    between atoms: N_16  and  C_17
REMARK    9  A    between atoms: C_22  and  C_23
REMARK                            x       y       z     vdW  Elec       q    Type
REMARK                         _______ _______ _______ _____ _____    ______ ____
ROOT
ATOM      1  C   UNL     1       7.612   7.933  17.579  0.00  0.00    +0.000 A 
ATOM      2  N   UNL     1       6.639   7.244  18.160  0.00  0.00    +0.000 NA
ATOM      3  C   UNL     1       6.449   6.131  17.362  0.00  0.00    +0.000 A 
ATOM      4  C   UNL     1       5.586   5.035  17.444  0.00  0.00    +0.000 A 
ATOM      5  C   UNL     1       5.680   4.060  16.436  0.00  0.00    +0.000 A 
ATOM      6  C   UNL     1       6.607   4.219  15.417  0.00  0.00    +0.000 A 
ATOM      7  N   UNL     1       7.453   5.265  15.288  0.00  0.00    +0.000 NA
ATOM      8  C   UNL     1       7.313   6.160  16.279  0.00  0.00    +0.000 A 
ATOM      9  N   UNL     1       8.011   7.317  16.414  0.00  0.00    +0.000 N 
ATOM     10  H   UNL     1       8.708   7.643  15.765  0.00  0.00    +0.000 HD
ENDROOT
BRANCH   1  14
ATOM     11  C   UNL     1       9.427  11.580  18.986  0.00  0.00    +0.000 A 
ATOM     12  C   UNL     1       8.623  11.553  17.837  0.00  0.00    +0.000 A 
ATOM     13  C   UNL     1       8.025  10.376  17.383  0.00  0.00    +0.000 A 
ATOM     14  C   UNL     1       8.220   9.171  18.062  0.00  0.00    +0.000 A 
ATOM     15  C   UNL     1       9.024   9.174  19.203  0.00  0.00    +0.000 A 
ATOM     16  C   UNL     1       9.617  10.362  19.657  0.00  0.00    +0.000 A 
BRANCH  11  17
ATOM     17  N   UNL     1      10.007  12.765  19.461  0.00  0.00    +0.000 N 
BRANCH  17  19
ATOM     18  C   UNL     1      10.407  15.054  18.554  0.00  0.00    +0.000 C 
ATOM     19  C   UNL     1      10.759  13.575  18.492  0.00  0.00    +0.000 C 
ENDBRANCH  17  19
BRANCH  17  20
ATOM     20  C   UNL     1      10.438  12.762  20.873  0.00  0.00    +0.000 C 
ATOM     21  C   UNL     1       9.382  13.299  21.835  0.00  0.00    +0.000 C 
ENDBRANCH  17  20
ENDBRANCH  11  17
ENDBRANCH   1  14
BRANCH   4  22
ATOM     22  C   UNL     1       4.588   4.870  18.515  0.00  0.00    +0.000 C 
ATOM     23  O   UNL     1       4.210   5.899  19.072  0.00  0.00    +0.000 OA
ATOM     24  N   UNL     1       4.157   3.587  18.808  0.00  0.00    +0.000 N 
ATOM     25  H   UNL     1       4.641   2.820  18.340  0.00  0.00    +0.000 HD
BRANCH  24  26
ATOM     26  C   UNL     1       3.145   3.256  19.749  0.00  0.00    +0.000 A 
ATOM     27  C   UNL     1       3.429   2.814  21.048  0.00  0.00    +0.000 A 
ATOM     28  N   UNL     1       2.500   2.477  21.982  0.00  0.00    +0.000 NA
ATOM     29  C   UNL     1       1.218   2.589  21.614  0.00  0.00    +0.000 A 
ATOM     30  C   UNL     1       0.817   3.036  20.366  0.00  0.00    +0.000 A 
ATOM     31  C   UNL     1       1.785   3.377  19.406  0.00  0.00    +0.000 A 
ATOM     32  C   UNL     1       1.315   3.853  18.061  0.00  0.00    +0.000 C 
ENDBRANCH  24  26
ENDBRANCH   4  22
TORSDOF 6
ENDMDL
MODEL 8
REMARK VINA RESULT:      -7.5      1.037      1.515
REMARK  Name = 
REMARK  9 active torsions:
REMARK  status: ('A' for Active; 'I' for Inactive)
REMARK    1  A    between atoms: C_1  and  C_2
REMARK    2  A    between atoms: C_2  and  N_3
REMARK    3  A    between atoms: N_3  and  C_4
REMARK    4  A    between atoms: N_3  and  C_6
REMARK    5  A    between atoms: C_4  and  C_5
REMARK    6  A    between atoms: C_9  and  C_10
REMARK    7  A    between atoms: C_13  and  C_14
REMARK    8  A    between atoms: N_16  and  C_17
REMARK    9  A    between atoms: C_22  and  C_23
REMARK                            x       y       z     vdW  Elec       q    Type
REMARK                         _______ _______ _______ _____ _____    ______ ____
ROOT
ATOM      1  C   UNL     1       2.043   6.942  20.240  0.00  0.00    +0.000 A 
ATOM      2  N   UNL     1       3.003   6.378  19.519  0.00  0.00    +0.000 NA
ATOM      3  C   UNL     1       3.029   5.054  19.912  0.00  0.00    +0.000 A 
ATOM      4  C   UNL     1       3.802   3.958  19.520  0.00  0.00    +0.000 A 
ATOM      5  C   UNL     1       3.540   2.724  20.140  0.00  0.00    +0.000 A 
ATOM      6  C   UNL     1       2.542   2.642  21.101  0.00  0.00    +0.000 A 
ATOM      7  N   UNL     1       1.777   3.674  21.521  0.00  0.00    +0.000 NA
ATOM      8  C   UNL     1       2.078   4.822  20.893  0.00  0.00    +0.000 A 
ATOM      9  N   UNL     1       1.493   6.027  21.111  0.00  0.00    +0.000 N 
ATOM     10  H   UNL     1       0.771   6.198  21.791  0.00  0.00    +0.000 HD
ENDROOT
BRANCH   1  14
ATOM     11  C   UNL     1       0.715  11.036  20.013  0.00  0.00    +0.000 A 
ATOM     12  C   UNL     1       1.179  10.349  18.882  0.00  0.00    +0.000 A 
ATOM     13  C   UNL     1       1.601   9.020  18.949  0.00  0.00    +0.000 A 
ATOM     14  C   UNL     1       1.584   8.327  20.162  0.00  0.00    +0.000 A 
ATOM     15  C   UNL     1       1.134   8.996  21.303  0.00  0.00    +0.000 A 
ATOM     16  C   UNL     1       0.705  10.330  21.226  0.00  0.00    +0.000 A 
BRANCH  11  17
ATOM     17  N   UNL     1       0.264  12.362  19.946  0.00  0.00    +0.000 N 
BRANCH  17  19
ATOM     18  C   UNL     1      -0.371  14.358  18.591  0.00  0.00    +0.000 C 
ATOM     19  C   UNL     1      -0.180  12.850  18.632  0.00  0.00    +0.000 C 
ENDBRANCH  17  19
BRANCH  17  20
ATOM     20  C   UNL     1       0.890  13.315  20.884  0.00  0.00    +0.000 C 
ATOM     21  C   UNL     1       2.394  13.472  20.682  0.00  0.00    +0.000 C 
ENDBRANCH  17  20
ENDBRANCH  11  17
ENDBRANCH   1  14
BRANCH   4  22
ATOM     22  C   UNL     1       4.874   4.044  18.513  0.00  0.00    +0.000 C 
ATOM     23  O   UNL     1       5.982   3.641  18.860  0.00  0.00    +0.000 OA
ATOM     24  N   UNL     1       4.555   4.564  17.269  0.00  0.00    +0.000 N 
ATOM     25  H   UNL     1       3.622   4.961  17.161  0.00  0.00    +0.000 HD
BRANCH  24  26
ATOM     26  C   UNL     1       5.441   4.643  16.161  0.00  0.00    +0.000 A 
ATOM     27  C   UNL     1       5.389   3.751  15.081  0.00  0.00    +0.000 A 
ATOM     28  N   UNL     1       6.216   3.778  14.003  0.00  0.00    +0.000 NA
ATOM     29  C   UNL     1       7.143   4.742  13.986  0.00  0.00    +0.000 A 
ATOM     30  C   UNL     1       7.276   5.693  14.985  0.00  0.00    +0.000 A 
ATOM     31  C   UNL     1       6.418   5.654  16.099  0.00  0.00    +0.000 A 
ATOM     32  C   UNL     1       6.593   6.696  17.166  0.00  0.00    +0.000 C 
ENDBRANCH  24  26
ENDBRANCH   4  22
TORSDOF 6
ENDMDL
MODEL 9
REMARK VINA RESULT:      -7.5      3.183      8.894
REMARK  Name = 
REMARK  9 active torsions:
REMARK  status: ('A' for Active; 'I' for Inactive)
REMARK    1  A    between atoms: C_1  and  C_2
REMARK    2  A    between atoms: C_2  and  N_3
REMARK    3  A    between atoms: N_3  and  C_4
REMARK    4  A    between atoms: N_3  and  C_6
REMARK    5  A    between atoms: C_4  and  C_5
REMARK    6  A    between atoms: C_9  and  C_10
REMARK    7  A    between atoms: C_13  and  C_14
REMARK    8  A    between atoms: N_16  and  C_17
REMARK    9  A    between atoms: C_22  and  C_23
REMARK                            x       y       z     vdW  Elec       q    Type
REMARK                         _______ _______ _______ _____ _____    ______ ____
ROOT
ATOM      1  C   UNL     1       1.873   8.110  19.963  0.00  0.00    +0.000 A 
ATOM      2  N   UNL     1       0.953   8.922  19.459  0.00  0.00    +0.000 NA
ATOM      3  C   UNL     1       0.357   9.525  20.551  0.00  0.00    +0.000 A 
ATOM      4  C   UNL     1      -0.661  10.473  20.679  0.00  0.00    +0.000 A 
ATOM      5  C   UNL     1      -1.012  10.876  21.979  0.00  0.00    +0.000 A 
ATOM      6  C   UNL     1      -0.348  10.327  23.066  0.00  0.00    +0.000 A 
ATOM      7  N   UNL     1       0.633   9.400  22.994  0.00  0.00    +0.000 NA
ATOM      8  C   UNL     1       0.919   9.057  21.727  0.00  0.00    +0.000 A 
ATOM      9  N   UNL     1       1.846   8.144  21.339  0.00  0.00    +0.000 N 
ATOM     10  H   UNL     1       2.415   7.602  21.969  0.00  0.00    +0.000 HD
ENDROOT
BRANCH   1  14
ATOM     11  C   UNL     1       4.672   5.672  17.772  0.00  0.00    +0.000 A 
ATOM     12  C   UNL     1       4.142   5.259  19.003  0.00  0.00    +0.000 A 
ATOM     13  C   UNL     1       3.227   6.041  19.711  0.00  0.00    +0.000 A 
ATOM     14  C   UNL     1       2.815   7.280  19.215  0.00  0.00    +0.000 A 
ATOM     15  C   UNL     1       3.339   7.715  17.996  0.00  0.00    +0.000 A 
ATOM     16  C   UNL     1       4.253   6.920  17.287  0.00  0.00    +0.000 A 
BRANCH  11  17
ATOM     17  N   UNL     1       5.570   4.878  17.044  0.00  0.00    +0.000 N 
BRANCH  17  19
ATOM     18  C   UNL     1       5.627   4.174  14.652  0.00  0.00    +0.000 C 
ATOM     19  C   UNL     1       4.997   3.988  16.024  0.00  0.00    +0.000 C 
ENDBRANCH  17  19
BRANCH  17  20
ATOM     20  C   UNL     1       6.793   4.453  17.754  0.00  0.00    +0.000 C 
ATOM     21  C   UNL     1       7.650   5.617  18.242  0.00  0.00    +0.000 C 
ENDBRANCH  17  20
ENDBRANCH  11  17
ENDBRANCH   1  14
BRANCH   4  22
ATOM     22  C   UNL     1      -1.381  11.046  19.528  0.00  0.00    +0.000 C 
ATOM     23  O   UNL     1      -1.274  12.260  19.367  0.00  0.00    +0.000 OA
ATOM     24  N   UNL     1      -2.114  10.185  18.728  0.00  0.00    +0.000 N 
ATOM     25  H   UNL     1      -2.202   9.220  19.048  0.00  0.00    +0.000 HD
BRANCH  24  26
ATOM     26  C   UNL     1      -2.798  10.553  17.537  0.00  0.00    +0.000 A 
ATOM     27  C   UNL     1      -2.320  10.238  16.258  0.00  0.00    +0.000 A 
ATOM     28  N   UNL     1      -2.930  10.572  15.090  0.00  0.00    +0.000 NA
ATOM     29  C   UNL     1      -4.078  11.251  15.191  0.00  0.00    +0.000 A 
ATOM     30  C   UNL     1      -4.658  11.600  16.400  0.00  0.00    +0.000 A 
ATOM     31  C   UNL     1      -4.017  11.253  17.602  0.00  0.00    +0.000 A 
ATOM     32  C   UNL     1      -4.670  11.650  18.895  0.00  0.00    +0.000 C 
ENDBRANCH  24  26
ENDBRANCH   4  22
TORSDOF 6
ENDMDL
