MODEL 1
REMARK VINA RESULT:      -7.8      0.000      0.000
REMARK  Name = 
REMARK  2 active torsions:
REMARK  status: ('A' for Active; 'I' for Inactive)
REMARK    1  A    between atoms: C_11  and  C_12
REMARK    2  A    between atoms: C_11  and  C_13
REMARK                            x       y       z     vdW  Elec       q    Type
REMARK                         _______ _______ _______ _____ _____    ______ ____
ROOT
ATOM      1  C   UNL     1       3.068   6.754  18.327  0.00  0.00    +0.000 C 
ATOM      2  C   UNL     1       3.508   5.522  18.614  0.00  0.00    +0.000 C 
ATOM      3  C   UNL     1       3.064   4.656  19.658  0.00  0.00    +0.000 A 
ATOM      4  C   UNL     1       3.785   3.537  19.660  0.00  0.00    +0.000 A 
ATOM      5  N   UNL     1       3.625   2.497  20.532  0.00  0.00    +0.000 NA
ATOM      6  C   UNL     1       2.701   2.649  21.421  0.00  0.00    +0.000 A 
ATOM      7  N   UNL     1       1.907   3.759  21.528  0.00  0.00    +0.000 N 
ATOM      8  C   UNL     1       2.027   4.828  20.681  0.00  0.00    +0.000 A 
ATOM      9  O   UNL     1       1.324   5.825  20.792  0.00  0.00    +0.000 OA
ATOM     10  O   UNL     1       4.781   3.491  18.687  0.00  0.00    +0.000 OA
ATOM     11  C   UNL     1       4.636   4.739  17.935  0.00  0.00    +0.000 C 
ATOM     12  C   UNL     1       4.223   4.314  16.514  0.00  0.00    +0.000 C 
ATOM     13  H   UNL     1       1.209   3.835  22.252  0.00  0.00    +0.000 HD
ENDROOT
BRANCH  11  14
ATOM     14  C   UNL     1       5.945   5.541  17.996  0.00  0.00    +0.000 A 
ATOM     15  C   UNL     1       6.191   6.619  17.125  0.00  0.00    +0.000 A 
ATOM     16  C   UNL     1       7.280   7.470  17.320  0.00  0.00    +0.000 A 
ATOM     17  C   UNL     1       8.154   7.255  18.382  0.00  0.00    +0.000 A 
ATOM     18  C   UNL     1       7.957   6.169  19.230  0.00  0.00    +0.000 A 
ATOM     19  C   UNL     1       6.868   5.317  19.037  0.00  0.00    +0.000 A 
ENDBRANCH  11  14
TORSDOF 1
ENDMDL
MODEL 2
REMARK VINA RESULT:      -7.7      2.420      5.512
REMARK  Name = 
REMARK  2 active torsions:
REMARK  status: ('A' for Active; 'I' for Inactive)
REMARK    1  A    between atoms: C_11  and  C_12
REMARK    2  A    between atoms: C_11  and  C_13
REMARK                            x       y       z     vdW  Elec       q    Type
REMARK                         _______ _______ _______ _____ _____    ______ ____
ROOT
ATOM      1  C   UNL     1       3.357   4.037  16.659  0.00  0.00    +0.000 C 
ATOM      2  C   UNL     1       4.121   4.554  17.629  0.00  0.00    +0.000 C 
ATOM      3  C   UNL     1       5.546   4.619  17.678  0.00  0.00    +0.000 A 
ATOM      4  C   UNL     1       5.940   5.152  18.833  0.00  0.00    +0.000 A 
ATOM      5  N   UNL     1       7.238   5.354  19.207  0.00  0.00    +0.000 NA
ATOM      6  C   UNL     1       8.132   4.975  18.355  0.00  0.00    +0.000 A 
ATOM      7  N   UNL     1       7.850   4.402  17.145  0.00  0.00    +0.000 N 
ATOM      8  C   UNL     1       6.568   4.177  16.723  0.00  0.00    +0.000 A 
ATOM      9  O   UNL     1       6.323   3.649  15.645  0.00  0.00    +0.000 OA
ATOM     10  O   UNL     1       4.899   5.489  19.697  0.00  0.00    +0.000 OA
ATOM     11  C   UNL     1       3.675   5.165  18.962  0.00  0.00    +0.000 C 
ATOM     12  C   UNL     1       2.968   6.513  18.731  0.00  0.00    +0.000 C 
ATOM     13  H   UNL     1       8.588   4.108  16.521  0.00  0.00    +0.000 HD
ENDROOT
BRANCH  11  14
ATOM     14  C   UNL     1       2.842   4.146  19.755  0.00  0.00    +0.000 A 
ATOM     15  C   UNL     1       3.441   3.250  20.660  0.00  0.00    +0.000 A 
ATOM     16  C   UNL     1       2.667   2.476  21.527  0.00  0.00    +0.000 A 
ATOM     17  C   UNL     1       1.278   2.572  21.499  0.00  0.00    +0.000 A 
ATOM     18  C   UNL     1       0.662   3.418  20.581  0.00  0.00    +0.000 A 
ATOM     19  C   UNL     1       1.435   4.194  19.714  0.00  0.00    +0.000 A 
ENDBRANCH  11  14
TORSDOF 1
ENDMDL
MODEL 3
REMARK VINA RESULT:      -7.7      0.403      1.201
REMARK  Name = 
REMARK  2 active torsions:
REMARK  status: ('A' for Active; 'I' for Inactive)
REMARK    1  A    between atoms: C_11  and  C_12
REMARK    2  A    between atoms: C_11  and  C_13
REMARK                            x       y       z     vdW  Elec       q    Type
REMARK                         _______ _______ _______ _____ _____    ______ ____
ROOT
ATOM      1  C   UNL     1       2.648   6.306  18.212  0.00  0.00    +0.000 C 
ATOM      2  C   UNL     1       3.254   5.186  18.623  0.00  0.00    +0.000 C 
ATOM      3  C   UNL     1       2.859   4.318  19.686  0.00  0.00    +0.000 A 
ATOM      4  C   UNL     1       3.749   3.338  19.829  0.00  0.00    +0.000 A 
ATOM      5  N   UNL     1       3.679   2.338  20.758  0.00  0.00    +0.000 NA
ATOM      6  C   UNL     1       2.662   2.382  21.552  0.00  0.00    +0.000 A 
ATOM      7  N   UNL     1       1.692   3.346  21.512  0.00  0.00    +0.000 N 
ATOM      8  C   UNL     1       1.716   4.370  20.603  0.00  0.00    +0.000 A 
ATOM      9  O   UNL     1       0.853   5.239  20.582  0.00  0.00    +0.000 OA
ATOM     10  O   UNL     1       4.827   3.405  18.949  0.00  0.00    +0.000 OA
ATOM     11  C   UNL     1       4.554   4.566  18.100  0.00  0.00    +0.000 C 
ATOM     12  C   UNL     1       4.351   3.997  16.683  0.00  0.00    +0.000 C 
ATOM     13  H   UNL     1       0.925   3.345  22.168  0.00  0.00    +0.000 HD
ENDROOT
BRANCH  11  14
ATOM     14  C   UNL     1       5.703   5.580  18.212  0.00  0.00    +0.000 A 
ATOM     15  C   UNL     1       6.752   5.405  19.133  0.00  0.00    +0.000 A 
ATOM     16  C   UNL     1       7.893   6.209  19.088  0.00  0.00    +0.000 A 
ATOM     17  C   UNL     1       8.002   7.213  18.129  0.00  0.00    +0.000 A 
ATOM     18  C   UNL     1       6.958   7.434  17.237  0.00  0.00    +0.000 A 
ATOM     19  C   UNL     1       5.816   6.630  17.280  0.00  0.00    +0.000 A 
ENDBRANCH  11  14
TORSDOF 1
ENDMDL
MODEL 4
REMARK VINA RESULT:      -7.5      2.466      5.454
REMARK  Name = 
REMARK  2 active torsions:
REMARK  status: ('A' for Active; 'I' for Inactive)
REMARK    1  A    between atoms: C_11  and  C_12
REMARK    2  A    between atoms: C_11  and  C_13
REMARK                            x       y       z     vdW  Elec       q    Type
REMARK                         _______ _______ _______ _____ _____    ______ ____
ROOT
ATOM      1  C   UNL     1       4.648   4.530  15.881  0.00  0.00    +0.000 C 
ATOM      2  C   UNL     1       4.885   4.885  17.150  0.00  0.00    +0.000 C 
ATOM      3  C   UNL     1       6.144   4.952  17.819  0.00  0.00    +0.000 A 
ATOM      4  C   UNL     1       5.966   5.289  19.095  0.00  0.00    +0.000 A 
ATOM      5  N   UNL     1       6.962   5.437  20.018  0.00  0.00    +0.000 NA
ATOM      6  C   UNL     1       8.159   5.212  19.591  0.00  0.00    +0.000 A 
ATOM      7  N   UNL     1       8.465   4.845  18.309  0.00  0.00    +0.000 N 
ATOM      8  C   UNL     1       7.506   4.682  17.346  0.00  0.00    +0.000 A 
ATOM      9  O   UNL     1       7.784   4.338  16.204  0.00  0.00    +0.000 OA
ATOM     10  O   UNL     1       4.634   5.470  19.463  0.00  0.00    +0.000 OA
ATOM     11  C   UNL     1       3.868   5.263  18.232  0.00  0.00    +0.000 C 
ATOM     12  C   UNL     1       3.222   6.625  17.918  0.00  0.00    +0.000 C 
ATOM     13  H   UNL     1       9.418   4.664  18.029  0.00  0.00    +0.000 HD
ENDROOT
BRANCH  11  14
ATOM     14  C   UNL     1       2.860   4.120  18.430  0.00  0.00    +0.000 A 
ATOM     15  C   UNL     1       3.240   2.771  18.300  0.00  0.00    +0.000 A 
ATOM     16  C   UNL     1       2.380   1.739  18.683  0.00  0.00    +0.000 A 
ATOM     17  C   UNL     1       1.119   2.034  19.192  0.00  0.00    +0.000 A 
ATOM     18  C   UNL     1       0.704   3.359  19.288  0.00  0.00    +0.000 A 
ATOM     19  C   UNL     1       1.562   4.392  18.906  0.00  0.00    +0.000 A 
ENDBRANCH  11  14
TORSDOF 1
ENDMDL
MODEL 5
REMARK VINA RESULT:      -7.5      2.495      5.394
REMARK  Name = 
REMARK  2 active torsions:
REMARK  status: ('A' for Active; 'I' for Inactive)
REMARK    1  A    between atoms: C_11  and  C_12
REMARK    2  A    between atoms: C_11  and  C_13
REMARK                            x       y       z     vdW  Elec       q    Type
REMARK                         _______ _______ _______ _____ _____    ______ ____
ROOT
ATOM      1  C   UNL     1       4.538   4.412  16.043  0.00  0.00    +0.000 C 
ATOM      2  C   UNL     1       4.839   4.832  17.277  0.00  0.00    +0.000 C 
ATOM      3  C   UNL     1       6.130   4.918  17.881  0.00  0.00    +0.000 A 
ATOM      4  C   UNL     1       6.018   5.327  19.143  0.00  0.00    +0.000 A 
ATOM      5  N   UNL     1       7.059   5.512  20.008  0.00  0.00    +0.000 NA
ATOM      6  C   UNL     1       8.231   5.247  19.538  0.00  0.00    +0.000 A 
ATOM      7  N   UNL     1       8.471   4.806  18.264  0.00  0.00    +0.000 N 
ATOM      8  C   UNL     1       7.464   4.605  17.359  0.00  0.00    +0.000 A 
ATOM      9  O   UNL     1       7.684   4.195  16.226  0.00  0.00    +0.000 OA
ATOM     10  O   UNL     1       4.707   5.546  19.563  0.00  0.00    +0.000 OA
ATOM     11  C   UNL     1       3.880   5.283  18.384  0.00  0.00    +0.000 C 
ATOM     12  C   UNL     1       3.235   6.635  18.026  0.00  0.00    +0.000 C 
ATOM     13  H   UNL     1       9.407   4.598  17.950  0.00  0.00    +0.000 HD
ENDROOT
BRANCH  11  14
ATOM     14  C   UNL     1       2.870   4.166  18.692  0.00  0.00    +0.000 A 
ATOM     15  C   UNL     1       1.509   4.290  18.357  0.00  0.00    +0.000 A 
ATOM     16  C   UNL     1       0.642   3.199  18.446  0.00  0.00    +0.000 A 
ATOM     17  C   UNL     1       1.115   1.965  18.885  0.00  0.00    +0.000 A 
ATOM     18  C   UNL     1       2.447   1.830  19.265  0.00  0.00    +0.000 A 
ATOM     19  C   UNL     1       3.316   2.920  19.175  0.00  0.00    +0.000 A 
ENDBRANCH  11  14
TORSDOF 1
ENDMDL
MODEL 6
REMARK VINA RESULT:      -7.5      2.381      5.405
REMARK  Name = 
REMARK  2 active torsions:
REMARK  status: ('A' for Active; 'I' for Inactive)
REMARK    1  A    between atoms: C_11  and  C_12
REMARK    2  A    between atoms: C_11  and  C_13
REMARK                            x       y       z     vdW  Elec       q    Type
REMARK                         _______ _______ _______ _____ _____    ______ ____
ROOT
ATOM      1  C   UNL     1       2.972   3.783  16.755  0.00  0.00    +0.000 C 
ATOM      2  C   UNL     1       3.741   4.511  17.574  0.00  0.00    +0.000 C 
ATOM      3  C   UNL     1       5.162   4.645  17.549  0.00  0.00    +0.000 A 
ATOM      4  C   UNL     1       5.566   5.409  18.561  0.00  0.00    +0.000 A 
ATOM      5  N   UNL     1       6.865   5.736  18.834  0.00  0.00    +0.000 NA
ATOM      6  C   UNL     1       7.747   5.238  18.034  0.00  0.00    +0.000 A 
ATOM      7  N   UNL     1       7.455   4.429  16.970  0.00  0.00    +0.000 N 
ATOM      8  C   UNL     1       6.172   4.071  16.654  0.00  0.00    +0.000 A 
ATOM      9  O   UNL     1       5.919   3.334  15.709  0.00  0.00    +0.000 OA
ATOM     10  O   UNL     1       4.539   5.862  19.388  0.00  0.00    +0.000 OA
ATOM     11  C   UNL     1       3.309   5.349  18.781  0.00  0.00    +0.000 C 
ATOM     12  C   UNL     1       2.527   6.595  18.325  0.00  0.00    +0.000 C 
ATOM     13  H   UNL     1       8.185   4.052  16.383  0.00  0.00    +0.000 HD
ENDROOT
BRANCH  11  14
ATOM     14  C   UNL     1       2.556   4.468  19.791  0.00  0.00    +0.000 A 
ATOM     15  C   UNL     1       1.174   4.232  19.676  0.00  0.00    +0.000 A 
ATOM     16  C   UNL     1       0.538   3.271  20.465  0.00  0.00    +0.000 A 
ATOM     17  C   UNL     1       1.269   2.535  21.393  0.00  0.00    +0.000 A 
ATOM     18  C   UNL     1       2.628   2.783  21.557  0.00  0.00    +0.000 A 
ATOM     19  C   UNL     1       3.266   3.743  20.768  0.00  0.00    +0.000 A 
ENDBRANCH  11  14
TORSDOF 1
ENDMDL
MODEL 7
REMARK VINA RESULT:      -7.3      2.391      5.530
REMARK  Name = 
REMARK  2 active torsions:
REMARK  status: ('A' for Active; 'I' for Inactive)
REMARK    1  A    between atoms: C_11  and  C_12
REMARK    2  A    between atoms: C_11  and  C_13
REMARK                            x       y       z     vdW  Elec       q    Type
REMARK                         _______ _______ _______ _____ _____    ______ ____
ROOT
ATOM      1  C   UNL     1       4.071   4.192  16.256  0.00  0.00    +0.000 C 
ATOM      2  C   UNL     1       4.494   4.699  17.420  0.00  0.00    +0.000 C 
ATOM      3  C   UNL     1       5.839   4.828  17.880  0.00  0.00    +0.000 A 
ATOM      4  C   UNL     1       5.854   5.327  19.114  0.00  0.00    +0.000 A 
ATOM      5  N   UNL     1       6.977   5.572  19.853  0.00  0.00    +0.000 NA
ATOM      6  C   UNL     1       8.097   5.274  19.285  0.00  0.00    +0.000 A 
ATOM      7  N   UNL     1       8.208   4.744  18.028  0.00  0.00    +0.000 N 
ATOM      8  C   UNL     1       7.115   4.478  17.247  0.00  0.00    +0.000 A 
ATOM      9  O   UNL     1       7.220   3.988  16.130  0.00  0.00    +0.000 OA
ATOM     10  O   UNL     1       4.592   5.575  19.651  0.00  0.00    +0.000 OA
ATOM     11  C   UNL     1       3.650   5.228  18.584  0.00  0.00    +0.000 C 
ATOM     12  C   UNL     1       2.962   6.551  18.199  0.00  0.00    +0.000 C 
ATOM     13  H   UNL     1       9.109   4.513  17.635  0.00  0.00    +0.000 HD
ENDROOT
BRANCH  11  14
ATOM     14  C   UNL     1       2.685   4.136  19.073  0.00  0.00    +0.000 A 
ATOM     15  C   UNL     1       2.595   3.787  20.433  0.00  0.00    +0.000 A 
ATOM     16  C   UNL     1       1.577   2.951  20.897  0.00  0.00    +0.000 A 
ATOM     17  C   UNL     1       0.636   2.438  20.010  0.00  0.00    +0.000 A 
ATOM     18  C   UNL     1       0.732   2.732  18.653  0.00  0.00    +0.000 A 
ATOM     19  C   UNL     1       1.748   3.569  18.187  0.00  0.00    +0.000 A 
ENDBRANCH  11  14
TORSDOF 1
ENDMDL
MODEL 8
REMARK VINA RESULT:      -7.3      3.231      5.367
REMARK  Name = 
REMARK  2 active torsions:
REMARK  status: ('A' for Active; 'I' for Inactive)
REMARK    1  A    between atoms: C_11  and  C_12
REMARK    2  A    between atoms: C_11  and  C_13
REMARK                            x       y       z     vdW  Elec       q    Type
REMARK                         _______ _______ _______ _____ _____    ______ ____
ROOT
ATOM      1  C   UNL     1       5.536   3.865  19.568  0.00  0.00    +0.000 C 
ATOM      2  C   UNL     1       5.084   4.062  18.323  0.00  0.00    +0.000 C 
ATOM      3  C   UNL     1       5.847   4.348  17.151  0.00  0.00    +0.000 A 
ATOM      4  C   UNL     1       5.035   4.538  16.113  0.00  0.00    +0.000 A 
ATOM      5  N   UNL     1       5.436   4.835  14.841  0.00  0.00    +0.000 NA
ATOM      6  C   UNL     1       6.710   4.947  14.668  0.00  0.00    +0.000 A 
ATOM      7  N   UNL     1       7.641   4.790  15.659  0.00  0.00    +0.000 N 
ATOM      8  C   UNL     1       7.292   4.493  16.949  0.00  0.00    +0.000 A 
ATOM      9  O   UNL     1       8.129   4.369  17.835  0.00  0.00    +0.000 OA
ATOM     10  O   UNL     1       3.678   4.434  16.416  0.00  0.00    +0.000 OA
ATOM     11  C   UNL     1       3.631   4.084  17.837  0.00  0.00    +0.000 C 
ATOM     12  C   UNL     1       3.021   2.671  17.890  0.00  0.00    +0.000 C 
ATOM     13  H   UNL     1       8.627   4.904  15.474  0.00  0.00    +0.000 HD
ENDROOT
BRANCH  11  14
ATOM     14  C   UNL     1       2.833   5.143  18.611  0.00  0.00    +0.000 A 
ATOM     15  C   UNL     1       2.101   4.816  19.768  0.00  0.00    +0.000 A 
ATOM     16  C   UNL     1       1.554   5.811  20.581  0.00  0.00    +0.000 A 
ATOM     17  C   UNL     1       1.715   7.153  20.247  0.00  0.00    +0.000 A 
ATOM     18  C   UNL     1       2.395   7.499  19.084  0.00  0.00    +0.000 A 
ATOM     19  C   UNL     1       2.944   6.506  18.270  0.00  0.00    +0.000 A 
ENDBRANCH  11  14
TORSDOF 1
ENDMDL
MODEL 9
REMARK VINA RESULT:      -7.3      3.070      5.572
REMARK  Name = 
REMARK  2 active torsions:
REMARK  status: ('A' for Active; 'I' for Inactive)
REMARK    1  A    between atoms: C_11  and  C_12
REMARK    2  A    between atoms: C_11  and  C_13
REMARK                            x       y       z     vdW  Elec       q    Type
REMARK                         _______ _______ _______ _____ _____    ______ ____
ROOT
ATOM      1  C   UNL     1       3.709   7.017  17.757  0.00  0.00    +0.000 C 
ATOM      2  C   UNL     1       4.323   5.842  17.568  0.00  0.00    +0.000 C 
ATOM      3  C   UNL     1       5.040   5.406  16.413  0.00  0.00    +0.000 A 
ATOM      4  C   UNL     1       5.456   4.153  16.581  0.00  0.00    +0.000 A 
ATOM      5  N   UNL     1       6.168   3.429  15.666  0.00  0.00    +0.000 NA
ATOM      6  C   UNL     1       6.431   4.033  14.556  0.00  0.00    +0.000 A 
ATOM      7  N   UNL     1       6.044   5.313  14.263  0.00  0.00    +0.000 N 
ATOM      8  C   UNL     1       5.329   6.080  15.143  0.00  0.00    +0.000 A 
ATOM      9  O   UNL     1       4.972   7.219  14.868  0.00  0.00    +0.000 OA
ATOM     10  O   UNL     1       5.086   3.580  17.796  0.00  0.00    +0.000 OA
ATOM     11  C   UNL     1       4.375   4.639  18.515  0.00  0.00    +0.000 C 
ATOM     12  C   UNL     1       5.247   4.954  19.745  0.00  0.00    +0.000 C 
ATOM     13  H   UNL     1       6.261   5.734  13.372  0.00  0.00    +0.000 HD
ENDROOT
BRANCH  11  14
ATOM     14  C   UNL     1       2.951   4.175  18.856  0.00  0.00    +0.000 A 
ATOM     15  C   UNL     1       2.300   3.179  18.105  0.00  0.00    +0.000 A 
ATOM     16  C   UNL     1       1.099   2.616  18.541  0.00  0.00    +0.000 A 
ATOM     17  C   UNL     1       0.518   3.045  19.731  0.00  0.00    +0.000 A 
ATOM     18  C   UNL     1       1.119   4.061  20.468  0.00  0.00    +0.000 A 
ATOM     19  C   UNL     1       2.321   4.625  20.034  0.00  0.00    +0.000 A 
ENDBRANCH  11  14
TORSDOF 1
ENDMDL
