MODEL 1
REMARK VINA RESULT:      -8.0      0.000      0.000
REMARK  Name = 
REMARK  5 active torsions:
REMARK  status: ('A' for Active; 'I' for Inactive)
REMARK    1  A    between atoms: C_1  and  C_2
REMARK    2  A    between atoms: C_11  and  C_13
REMARK    3  A    between atoms: C_13  and  S_14
REMARK    4  A    between atoms: S_14  and  C_15
REMARK    5  A    between atoms: N_19  and  C_20
REMARK                            x       y       z     vdW  Elec       q    Type
REMARK                         _______ _______ _______ _____ _____    ______ ____
ROOT
ATOM      1  C   UNL     1       4.439   7.102  17.533  0.00  0.00    +0.000 C 
ENDROOT
BRANCH   1  12
ATOM      2  C   UNL     1       1.998   7.738  19.454  0.00  0.00    +0.000 C 
ATOM      3  C   UNL     1       2.673   6.411  19.811  0.00  0.00    +0.000 C 
ATOM      4  C   UNL     1       1.791   5.635  20.815  0.00  0.00    +0.000 C 
ATOM      5  C   UNL     1       1.532   4.355  20.094  0.00  0.00    +0.000 A 
ATOM      6  C   UNL     1       0.763   3.293  20.551  0.00  0.00    +0.000 A 
ATOM      7  C   UNL     1       0.653   2.159  19.749  0.00  0.00    +0.000 A 
ATOM      8  C   UNL     1       1.311   2.105  18.515  0.00  0.00    +0.000 A 
ATOM      9  C   UNL     1       2.085   3.183  18.065  0.00  0.00    +0.000 A 
ATOM     10  C   UNL     1       2.186   4.312  18.864  0.00  0.00    +0.000 A 
ATOM     11  N   UNL     1       2.898   5.515  18.640  0.00  0.00    +0.000 N 
ATOM     12  C   UNL     1       3.755   5.739  17.561  0.00  0.00    +0.000 C 
ATOM     13  O   UNL     1       3.934   4.930  16.650  0.00  0.00    +0.000 OA
ENDBRANCH   1  12
BRANCH   1  14
ATOM     14  S   UNL     1       5.665   7.241  16.214  0.00  0.00    +0.000 S 
BRANCH  14  15
ATOM     15  C   UNL     1       6.826   6.061  16.739  0.00  0.00    +0.000 A 
ATOM     16  N   UNL     1       7.304   5.940  17.960  0.00  0.00    +0.000 NA
ATOM     17  N   UNL     1       7.958   4.736  17.987  0.00  0.00    +0.000 NA
ATOM     18  N   UNL     1       7.844   4.103  16.827  0.00  0.00    +0.000 NA
ATOM     19  N   UNL     1       7.217   4.969  15.988  0.00  0.00    +0.000 N 
BRANCH  19  20
ATOM     20  C   UNL     1       7.078   4.692  14.613  0.00  0.00    +0.000 A 
ATOM     21  C   UNL     1       6.162   3.718  14.196  0.00  0.00    +0.000 A 
ATOM     22  C   UNL     1       6.024   3.438  12.836  0.00  0.00    +0.000 A 
ATOM     23  C   UNL     1       6.821   4.097  11.900  0.00  0.00    +0.000 A 
ATOM     24  C   UNL     1       7.746   5.054  12.318  0.00  0.00    +0.000 A 
ATOM     25  C   UNL     1       7.872   5.355  13.671  0.00  0.00    +0.000 A 
ENDBRANCH  19  20
ENDBRANCH  14  15
ENDBRANCH   1  14
TORSDOF 4
ENDMDL
MODEL 2
REMARK VINA RESULT:      -8.0      3.157      5.489
REMARK  Name = 
REMARK  5 active torsions:
REMARK  status: ('A' for Active; 'I' for Inactive)
REMARK    1  A    between atoms: C_1  and  C_2
REMARK    2  A    between atoms: C_11  and  C_13
REMARK    3  A    between atoms: C_13  and  S_14
REMARK    4  A    between atoms: S_14  and  C_15
REMARK    5  A    between atoms: N_19  and  C_20
REMARK                            x       y       z     vdW  Elec       q    Type
REMARK                         _______ _______ _______ _____ _____    ______ ____
ROOT
ATOM      1  C   UNL     1       2.709   6.783  18.943  0.00  0.00    +0.000 C 
ENDROOT
BRANCH   1  12
ATOM      2  C   UNL     1       1.131   9.161  17.562  0.00  0.00    +0.000 C 
ATOM      3  C   UNL     1       1.695   9.568  18.926  0.00  0.00    +0.000 C 
ATOM      4  C   UNL     1       1.086  10.922  19.355  0.00  0.00    +0.000 C 
ATOM      5  C   UNL     1       0.433  10.585  20.653  0.00  0.00    +0.000 A 
ATOM      6  C   UNL     1      -0.287  11.453  21.464  0.00  0.00    +0.000 A 
ATOM      7  C   UNL     1      -0.806  10.967  22.662  0.00  0.00    +0.000 A 
ATOM      8  C   UNL     1      -0.595   9.632  23.029  0.00  0.00    +0.000 A 
ATOM      9  C   UNL     1       0.133   8.767  22.202  0.00  0.00    +0.000 A 
ATOM     10  C   UNL     1       0.642   9.253  21.008  0.00  0.00    +0.000 A 
ATOM     11  N   UNL     1       1.404   8.591  20.014  0.00  0.00    +0.000 N 
ATOM     12  C   UNL     1       1.889   7.287  20.126  0.00  0.00    +0.000 C 
ATOM     13  O   UNL     1       1.650   6.548  21.083  0.00  0.00    +0.000 OA
ENDBRANCH   1  12
BRANCH   1  14
ATOM     14  S   UNL     1       2.150   5.175  18.341  0.00  0.00    +0.000 S 
BRANCH  14  15
ATOM     15  C   UNL     1       3.128   4.118  19.311  0.00  0.00    +0.000 A 
ATOM     16  N   UNL     1       2.686   3.293  20.237  0.00  0.00    +0.000 NA
ATOM     17  N   UNL     1       3.743   2.475  20.542  0.00  0.00    +0.000 NA
ATOM     18  N   UNL     1       4.797   2.753  19.789  0.00  0.00    +0.000 NA
ATOM     19  N   UNL     1       4.464   3.858  19.072  0.00  0.00    +0.000 N 
BRANCH  19  20
ATOM     20  C   UNL     1       5.413   4.539  18.283  0.00  0.00    +0.000 A 
ATOM     21  C   UNL     1       6.282   5.456  18.888  0.00  0.00    +0.000 A 
ATOM     22  C   UNL     1       7.220   6.134  18.109  0.00  0.00    +0.000 A 
ATOM     23  C   UNL     1       7.267   5.929  16.730  0.00  0.00    +0.000 A 
ATOM     24  C   UNL     1       6.390   5.030  16.126  0.00  0.00    +0.000 A 
ATOM     25  C   UNL     1       5.467   4.331  16.899  0.00  0.00    +0.000 A 
ENDBRANCH  19  20
ENDBRANCH  14  15
ENDBRANCH   1  14
TORSDOF 4
ENDMDL
MODEL 3
REMARK VINA RESULT:      -7.9      3.179      5.361
REMARK  Name = 
REMARK  5 active torsions:
REMARK  status: ('A' for Active; 'I' for Inactive)
REMARK    1  A    between atoms: C_1  and  C_2
REMARK    2  A    between atoms: C_11  and  C_13
REMARK    3  A    between atoms: C_13  and  S_14
REMARK    4  A    between atoms: S_14  and  C_15
REMARK    5  A    between atoms: N_19  and  C_20
REMARK                            x       y       z     vdW  Elec       q    Type
REMARK                         _______ _______ _______ _____ _____    ______ ____
ROOT
ATOM      1  C   UNL     1       2.695   6.807  18.988  0.00  0.00    +0.000 C 
ENDROOT
BRANCH   1  12
ATOM      2  C   UNL     1       1.108   9.149  17.559  0.00  0.00    +0.000 C 
ATOM      3  C   UNL     1       1.682   9.591  18.908  0.00  0.00    +0.000 C 
ATOM      4  C   UNL     1       1.077  10.956  19.307  0.00  0.00    +0.000 C 
ATOM      5  C   UNL     1       0.434  10.653  20.618  0.00  0.00    +0.000 A 
ATOM      6  C   UNL     1      -0.278  11.542  21.412  0.00  0.00    +0.000 A 
ATOM      7  C   UNL     1      -0.788  11.087  22.626  0.00  0.00    +0.000 A 
ATOM      8  C   UNL     1      -0.576   9.762  23.025  0.00  0.00    +0.000 A 
ATOM      9  C   UNL     1       0.146   8.875  22.215  0.00  0.00    +0.000 A 
ATOM     10  C   UNL     1       0.646   9.330  21.004  0.00  0.00    +0.000 A 
ATOM     11  N   UNL     1       1.399   8.642  20.023  0.00  0.00    +0.000 N 
ATOM     12  C   UNL     1       1.885   7.341  20.164  0.00  0.00    +0.000 C 
ATOM     13  O   UNL     1       1.653   6.627  21.142  0.00  0.00    +0.000 OA
ENDBRANCH   1  12
BRANCH   1  14
ATOM     14  S   UNL     1       2.111   5.198  18.412  0.00  0.00    +0.000 S 
BRANCH  14  15
ATOM     15  C   UNL     1       3.152   4.143  19.317  0.00  0.00    +0.000 A 
ATOM     16  N   UNL     1       2.806   3.442  20.377  0.00  0.00    +0.000 NA
ATOM     17  N   UNL     1       3.832   2.561  20.593  0.00  0.00    +0.000 NA
ATOM     18  N   UNL     1       4.768   2.678  19.661  0.00  0.00    +0.000 NA
ATOM     19  N   UNL     1       4.407   3.744  18.900  0.00  0.00    +0.000 N 
BRANCH  19  20
ATOM     20  C   UNL     1       5.263   4.265  17.909  0.00  0.00    +0.000 A 
ATOM     21  C   UNL     1       5.111   3.852  16.579  0.00  0.00    +0.000 A 
ATOM     22  C   UNL     1       5.959   4.363  15.597  0.00  0.00    +0.000 A 
ATOM     23  C   UNL     1       6.978   5.251  15.942  0.00  0.00    +0.000 A 
ATOM     24  C   UNL     1       7.141   5.648  17.268  0.00  0.00    +0.000 A 
ATOM     25  C   UNL     1       6.283   5.161  18.251  0.00  0.00    +0.000 A 
ENDBRANCH  19  20
ENDBRANCH  14  15
ENDBRANCH   1  14
TORSDOF 4
ENDMDL
MODEL 4
REMARK VINA RESULT:      -7.8      3.269      5.585
REMARK  Name = 
REMARK  5 active torsions:
REMARK  status: ('A' for Active; 'I' for Inactive)
REMARK    1  A    between atoms: C_1  and  C_2
REMARK    2  A    between atoms: C_11  and  C_13
REMARK    3  A    between atoms: C_13  and  S_14
REMARK    4  A    between atoms: S_14  and  C_15
REMARK    5  A    between atoms: N_19  and  C_20
REMARK                            x       y       z     vdW  Elec       q    Type
REMARK                         _______ _______ _______ _____ _____    ______ ____
ROOT
ATOM      1  C   UNL     1       2.429   7.186  19.112  0.00  0.00    +0.000 C 
ENDROOT
BRANCH   1  12
ATOM      2  C   UNL     1       0.813   9.533  17.724  0.00  0.00    +0.000 C 
ATOM      3  C   UNL     1       1.397   9.964  19.072  0.00  0.00    +0.000 C 
ATOM      4  C   UNL     1       0.786  11.319  19.492  0.00  0.00    +0.000 C 
ATOM      5  C   UNL     1       0.157  10.997  20.806  0.00  0.00    +0.000 A 
ATOM      6  C   UNL     1      -0.554  11.873  21.616  0.00  0.00    +0.000 A 
ATOM      7  C   UNL     1      -1.050  11.400  22.829  0.00  0.00    +0.000 A 
ATOM      8  C   UNL     1      -0.825  10.072  23.212  0.00  0.00    +0.000 A 
ATOM      9  C   UNL     1      -0.105   9.200  22.385  0.00  0.00    +0.000 A 
ATOM     10  C   UNL     1       0.381   9.672  21.175  0.00  0.00    +0.000 A 
ATOM     11  N   UNL     1       1.130   9.000  20.179  0.00  0.00    +0.000 N 
ATOM     12  C   UNL     1       1.626   7.701  20.302  0.00  0.00    +0.000 C 
ATOM     13  O   UNL     1       1.407   6.974  21.273  0.00  0.00    +0.000 OA
ENDBRANCH   1  12
BRANCH   1  14
ATOM     14  S   UNL     1       3.577   5.867  19.564  0.00  0.00    +0.000 S 
BRANCH  14  15
ATOM     15  C   UNL     1       2.920   4.549  18.645  0.00  0.00    +0.000 A 
ATOM     16  N   UNL     1       1.756   3.969  18.853  0.00  0.00    +0.000 NA
ATOM     17  N   UNL     1       1.526   3.188  17.750  0.00  0.00    +0.000 NA
ATOM     18  N   UNL     1       2.498   3.321  16.859  0.00  0.00    +0.000 NA
ATOM     19  N   UNL     1       3.442   4.100  17.447  0.00  0.00    +0.000 N 
BRANCH  19  20
ATOM     20  C   UNL     1       4.700   4.313  16.848  0.00  0.00    +0.000 A 
ATOM     21  C   UNL     1       4.789   4.426  15.454  0.00  0.00    +0.000 A 
ATOM     22  C   UNL     1       6.033   4.632  14.857  0.00  0.00    +0.000 A 
ATOM     23  C   UNL     1       7.186   4.688  15.639  0.00  0.00    +0.000 A 
ATOM     24  C   UNL     1       7.100   4.557  17.025  0.00  0.00    +0.000 A 
ATOM     25  C   UNL     1       5.860   4.374  17.630  0.00  0.00    +0.000 A 
ENDBRANCH  19  20
ENDBRANCH  14  15
ENDBRANCH   1  14
TORSDOF 4
ENDMDL
MODEL 5
REMARK VINA RESULT:      -7.8      3.372      6.392
REMARK  Name = 
REMARK  5 active torsions:
REMARK  status: ('A' for Active; 'I' for Inactive)
REMARK    1  A    between atoms: C_1  and  C_2
REMARK    2  A    between atoms: C_11  and  C_13
REMARK    3  A    between atoms: C_13  and  S_14
REMARK    4  A    between atoms: S_14  and  C_15
REMARK    5  A    between atoms: N_19  and  C_20
REMARK                            x       y       z     vdW  Elec       q    Type
REMARK                         _______ _______ _______ _____ _____    ______ ____
ROOT
ATOM      1  C   UNL     1       2.507   7.312  18.546  0.00  0.00    +0.000 C 
ENDROOT
BRANCH   1  12
ATOM      2  C   UNL     1       0.535   9.596  17.575  0.00  0.00    +0.000 C 
ATOM      3  C   UNL     1       1.247   9.974  18.876  0.00  0.00    +0.000 C 
ATOM      4  C   UNL     1       0.583  11.229  19.485  0.00  0.00    +0.000 C 
ATOM      5  C   UNL     1       0.156  10.749  20.831  0.00  0.00    +0.000 A 
ATOM      6  C   UNL     1      -0.517  11.487  21.795  0.00  0.00    +0.000 A 
ATOM      7  C   UNL     1      -0.813  10.878  23.012  0.00  0.00    +0.000 A 
ATOM      8  C   UNL     1      -0.429   9.552  23.246  0.00  0.00    +0.000 A 
ATOM      9  C   UNL     1       0.251   8.818  22.265  0.00  0.00    +0.000 A 
ATOM     10  C   UNL     1       0.537   9.426  21.052  0.00  0.00    +0.000 A 
ATOM     11  N   UNL     1       1.206   8.907  19.918  0.00  0.00    +0.000 N 
ATOM     12  C   UNL     1       1.822   7.655  19.864  0.00  0.00    +0.000 C 
ATOM     13  O   UNL     1       1.791   6.838  20.787  0.00  0.00    +0.000 OA
ENDBRANCH   1  12
BRANCH   1  14
ATOM     14  S   UNL     1       4.189   6.697  18.774  0.00  0.00    +0.000 S 
BRANCH  14  15
ATOM     15  C   UNL     1       4.179   5.342  17.687  0.00  0.00    +0.000 A 
ATOM     16  N   UNL     1       4.787   5.285  16.521  0.00  0.00    +0.000 NA
ATOM     17  N   UNL     1       4.748   3.968  16.144  0.00  0.00    +0.000 NA
ATOM     18  N   UNL     1       4.174   3.220  17.077  0.00  0.00    +0.000 NA
ATOM     19  N   UNL     1       3.715   4.083  18.019  0.00  0.00    +0.000 N 
BRANCH  19  20
ATOM     20  C   UNL     1       2.899   3.647  19.083  0.00  0.00    +0.000 A 
ATOM     21  C   UNL     1       1.506   3.750  18.969  0.00  0.00    +0.000 A 
ATOM     22  C   UNL     1       0.695   3.323  20.022  0.00  0.00    +0.000 A 
ATOM     23  C   UNL     1       1.269   2.833  21.195  0.00  0.00    +0.000 A 
ATOM     24  C   UNL     1       2.655   2.749  21.314  0.00  0.00    +0.000 A 
ATOM     25  C   UNL     1       3.470   3.150  20.260  0.00  0.00    +0.000 A 
ENDBRANCH  19  20
ENDBRANCH  14  15
ENDBRANCH   1  14
TORSDOF 4
ENDMDL
MODEL 6
REMARK VINA RESULT:      -7.6      1.174      2.186
REMARK  Name = 
REMARK  5 active torsions:
REMARK  status: ('A' for Active; 'I' for Inactive)
REMARK    1  A    between atoms: C_1  and  C_2
REMARK    2  A    between atoms: C_11  and  C_13
REMARK    3  A    between atoms: C_13  and  S_14
REMARK    4  A    between atoms: S_14  and  C_15
REMARK    5  A    between atoms: N_19  and  C_20
REMARK                            x       y       z     vdW  Elec       q    Type
REMARK                         _______ _______ _______ _____ _____    ______ ____
ROOT
ATOM      1  C   UNL     1       4.141   6.110  16.660  0.00  0.00    +0.000 C 
ENDROOT
BRANCH   1  12
ATOM      2  C   UNL     1       4.277   2.943  16.625  0.00  0.00    +0.000 C 
ATOM      3  C   UNL     1       2.966   3.449  17.233  0.00  0.00    +0.000 C 
ATOM      4  C   UNL     1       2.223   2.278  17.912  0.00  0.00    +0.000 C 
ATOM      5  C   UNL     1       2.094   2.750  19.321  0.00  0.00    +0.000 A 
ATOM      6  C   UNL     1       1.510   2.057  20.373  0.00  0.00    +0.000 A 
ATOM      7  C   UNL     1       1.455   2.670  21.623  0.00  0.00    +0.000 A 
ATOM      8  C   UNL     1       1.977   3.957  21.799  0.00  0.00    +0.000 A 
ATOM      9  C   UNL     1       2.562   4.646  20.729  0.00  0.00    +0.000 A 
ATOM     10  C   UNL     1       2.621   4.030  19.488  0.00  0.00    +0.000 A 
ATOM     11  N   UNL     1       3.152   4.509  18.266  0.00  0.00    +0.000 N 
ATOM     12  C   UNL     1       3.640   5.802  18.067  0.00  0.00    +0.000 C 
ATOM     13  O   UNL     1       3.718   6.649  18.959  0.00  0.00    +0.000 OA
ENDBRANCH   1  12
BRANCH   1  14
ATOM     14  S   UNL     1       5.607   7.164  16.656  0.00  0.00    +0.000 S 
BRANCH  14  15
ATOM     15  C   UNL     1       6.825   6.010  17.107  0.00  0.00    +0.000 A 
ATOM     16  N   UNL     1       7.307   5.833  18.319  0.00  0.00    +0.000 NA
ATOM     17  N   UNL     1       8.019   4.663  18.270  0.00  0.00    +0.000 NA
ATOM     18  N   UNL     1       7.938   4.104  17.071  0.00  0.00    +0.000 NA
ATOM     19  N   UNL     1       7.270   4.990  16.288  0.00  0.00    +0.000 N 
BRANCH  19  20
ATOM     20  C   UNL     1       7.146   4.798  14.898  0.00  0.00    +0.000 A 
ATOM     21  C   UNL     1       6.224   3.861  14.412  0.00  0.00    +0.000 A 
ATOM     22  C   UNL     1       6.101   3.665  13.036  0.00  0.00    +0.000 A 
ATOM     23  C   UNL     1       6.918   4.369  12.151  0.00  0.00    +0.000 A 
ATOM     24  C   UNL     1       7.848   5.288  12.636  0.00  0.00    +0.000 A 
ATOM     25  C   UNL     1       7.960   5.506  14.006  0.00  0.00    +0.000 A 
ENDBRANCH  19  20
ENDBRANCH  14  15
ENDBRANCH   1  14
TORSDOF 4
ENDMDL
MODEL 7
REMARK VINA RESULT:      -7.5      3.482      5.814
REMARK  Name = 
REMARK  5 active torsions:
REMARK  status: ('A' for Active; 'I' for Inactive)
REMARK    1  A    between atoms: C_1  and  C_2
REMARK    2  A    between atoms: C_11  and  C_13
REMARK    3  A    between atoms: C_13  and  S_14
REMARK    4  A    between atoms: S_14  and  C_15
REMARK    5  A    between atoms: N_19  and  C_20
REMARK                            x       y       z     vdW  Elec       q    Type
REMARK                         _______ _______ _______ _____ _____    ______ ____
ROOT
ATOM      1  C   UNL     1       1.729   8.384  18.026  0.00  0.00    +0.000 C 
ENDROOT
BRANCH   1  12
ATOM      2  C   UNL     1      -1.000   9.917  17.526  0.00  0.00    +0.000 C 
ATOM      3  C   UNL     1      -0.145  10.610  18.591  0.00  0.00    +0.000 C 
ATOM      4  C   UNL     1      -0.986  11.686  19.313  0.00  0.00    +0.000 C 
ATOM      5  C   UNL     1      -0.922  11.245  20.736  0.00  0.00    +0.000 A 
ATOM      6  C   UNL     1      -1.536  11.861  21.819  0.00  0.00    +0.000 A 
ATOM      7  C   UNL     1      -1.342  11.321  23.088  0.00  0.00    +0.000 A 
ATOM      8  C   UNL     1      -0.540  10.185  23.254  0.00  0.00    +0.000 A 
ATOM      9  C   UNL     1       0.074   9.573  22.153  0.00  0.00    +0.000 A 
ATOM     10  C   UNL     1      -0.127  10.110  20.890  0.00  0.00    +0.000 A 
ATOM     11  N   UNL     1       0.378   9.685  19.638  0.00  0.00    +0.000 N 
ATOM     12  C   UNL     1       1.304   8.655  19.465  0.00  0.00    +0.000 C 
ATOM     13  O   UNL     1       1.735   7.961  20.387  0.00  0.00    +0.000 OA
ENDBRANCH   1  12
BRANCH   1  14
ATOM     14  S   UNL     1       3.322   7.539  17.916  0.00  0.00    +0.000 S 
BRANCH  14  15
ATOM     15  C   UNL     1       2.797   5.885  17.852  0.00  0.00    +0.000 A 
ATOM     16  N   UNL     1       1.568   5.458  18.059  0.00  0.00    +0.000 NA
ATOM     17  N   UNL     1       1.552   4.153  17.641  0.00  0.00    +0.000 NA
ATOM     18  N   UNL     1       2.727   3.795  17.141  0.00  0.00    +0.000 NA
ATOM     19  N   UNL     1       3.561   4.846  17.357  0.00  0.00    +0.000 N 
BRANCH  19  20
ATOM     20  C   UNL     1       4.944   4.753  17.102  0.00  0.00    +0.000 A 
ATOM     21  C   UNL     1       5.394   4.626  15.781  0.00  0.00    +0.000 A 
ATOM     22  C   UNL     1       6.762   4.530  15.525  0.00  0.00    +0.000 A 
ATOM     23  C   UNL     1       7.675   4.521  16.580  0.00  0.00    +0.000 A 
ATOM     24  C   UNL     1       7.225   4.629  17.896  0.00  0.00    +0.000 A 
ATOM     25  C   UNL     1       5.863   4.749  18.158  0.00  0.00    +0.000 A 
ENDBRANCH  19  20
ENDBRANCH  14  15
ENDBRANCH   1  14
TORSDOF 4
ENDMDL
MODEL 8
REMARK VINA RESULT:      -7.4      4.228      8.182
REMARK  Name = 
REMARK  5 active torsions:
REMARK  status: ('A' for Active; 'I' for Inactive)
REMARK    1  A    between atoms: C_1  and  C_2
REMARK    2  A    between atoms: C_11  and  C_13
REMARK    3  A    between atoms: C_13  and  S_14
REMARK    4  A    between atoms: S_14  and  C_15
REMARK    5  A    between atoms: N_19  and  C_20
REMARK                            x       y       z     vdW  Elec       q    Type
REMARK                         _______ _______ _______ _____ _____    ______ ____
ROOT
ATOM      1  C   UNL     1       2.390   8.638  18.259  0.00  0.00    +0.000 C 
ENDROOT
BRANCH   1  12
ATOM      2  C   UNL     1       4.668   6.652  17.303  0.00  0.00    +0.000 C 
ATOM      3  C   UNL     1       3.348   5.921  17.562  0.00  0.00    +0.000 C 
ATOM      4  C   UNL     1       3.591   4.395  17.559  0.00  0.00    +0.000 C 
ATOM      5  C   UNL     1       3.122   3.991  18.916  0.00  0.00    +0.000 A 
ATOM      6  C   UNL     1       3.137   2.707  19.445  0.00  0.00    +0.000 A 
ATOM      7  C   UNL     1       2.630   2.512  20.728  0.00  0.00    +0.000 A 
ATOM      8  C   UNL     1       2.116   3.593  21.453  0.00  0.00    +0.000 A 
ATOM      9  C   UNL     1       2.105   4.884  20.907  0.00  0.00    +0.000 A 
ATOM     10  C   UNL     1       2.617   5.075  19.633  0.00  0.00    +0.000 A 
ATOM     11  N   UNL     1       2.716   6.263  18.869  0.00  0.00    +0.000 N 
ATOM     12  C   UNL     1       2.187   7.497  19.250  0.00  0.00    +0.000 C 
ATOM     13  O   UNL     1       1.629   7.697  20.331  0.00  0.00    +0.000 OA
ENDBRANCH   1  12
BRANCH   1  14
ATOM     14  S   UNL     1       0.961   9.738  18.160  0.00  0.00    +0.000 S 
BRANCH  14  15
ATOM     15  C   UNL     1       1.661  11.215  18.746  0.00  0.00    +0.000 A 
ATOM     16  N   UNL     1       2.512  11.978  18.092  0.00  0.00    +0.000 NA
ATOM     17  N   UNL     1       2.581  13.151  18.797  0.00  0.00    +0.000 NA
ATOM     18  N   UNL     1       1.755  13.135  19.834  0.00  0.00    +0.000 NA
ATOM     19  N   UNL     1       1.236  11.880  19.880  0.00  0.00    +0.000 N 
BRANCH  19  20
ATOM     20  C   UNL     1       0.441  11.451  20.962  0.00  0.00    +0.000 A 
ATOM     21  C   UNL     1      -0.651  12.230  21.365  0.00  0.00    +0.000 A 
ATOM     22  C   UNL     1      -1.439  11.811  22.438  0.00  0.00    +0.000 A 
ATOM     23  C   UNL     1      -1.118  10.643  23.130  0.00  0.00    +0.000 A 
ATOM     24  C   UNL     1      -0.019   9.878  22.740  0.00  0.00    +0.000 A 
ATOM     25  C   UNL     1       0.757  10.277  21.655  0.00  0.00    +0.000 A 
ENDBRANCH  19  20
ENDBRANCH  14  15
ENDBRANCH   1  14
TORSDOF 4
ENDMDL
MODEL 9
REMARK VINA RESULT:      -7.4      3.531      5.833
REMARK  Name = 
REMARK  5 active torsions:
REMARK  status: ('A' for Active; 'I' for Inactive)
REMARK    1  A    between atoms: C_1  and  C_2
REMARK    2  A    between atoms: C_11  and  C_13
REMARK    3  A    between atoms: C_13  and  S_14
REMARK    4  A    between atoms: S_14  and  C_15
REMARK    5  A    between atoms: N_19  and  C_20
REMARK                            x       y       z     vdW  Elec       q    Type
REMARK                         _______ _______ _______ _____ _____    ______ ____
ROOT
ATOM      1  C   UNL     1       2.417   6.874  19.441  0.00  0.00    +0.000 C 
ENDROOT
BRANCH   1  12
ATOM      2  C   UNL     1       1.115   9.177  17.693  0.00  0.00    +0.000 C 
ATOM      3  C   UNL     1       1.637   9.705  19.033  0.00  0.00    +0.000 C 
ATOM      4  C   UNL     1       1.119  11.142  19.260  0.00  0.00    +0.000 C 
ATOM      5  C   UNL     1       0.372  11.017  20.545  0.00  0.00    +0.000 A 
ATOM      6  C   UNL     1      -0.316  12.029  21.202  0.00  0.00    +0.000 A 
ATOM      7  C   UNL     1      -0.936  11.733  22.414  0.00  0.00    +0.000 A 
ATOM      8  C   UNL     1      -0.855  10.442  22.948  0.00  0.00    +0.000 A 
ATOM      9  C   UNL     1      -0.157   9.429  22.276  0.00  0.00    +0.000 A 
ATOM     10  C   UNL     1       0.453   9.727  21.067  0.00  0.00    +0.000 A 
ATOM     11  N   UNL     1       1.209   8.892  20.208  0.00  0.00    +0.000 N 
ATOM     12  C   UNL     1       1.579   7.579  20.503  0.00  0.00    +0.000 C 
ATOM     13  O   UNL     1       1.230   6.983  21.524  0.00  0.00    +0.000 OA
ENDBRANCH   1  12
BRANCH   1  14
ATOM     14  S   UNL     1       3.200   5.369  20.056  0.00  0.00    +0.000 S 
BRANCH  14  15
ATOM     15  C   UNL     1       3.513   4.543  18.561  0.00  0.00    +0.000 A 
ATOM     16  N   UNL     1       2.707   3.686  17.970  0.00  0.00    +0.000 NA
ATOM     17  N   UNL     1       3.215   3.503  16.711  0.00  0.00    +0.000 NA
ATOM     18  N   UNL     1       4.281   4.265  16.509  0.00  0.00    +0.000 NA
ATOM     19  N   UNL     1       4.549   4.858  17.701  0.00  0.00    +0.000 N 
BRANCH  19  20
ATOM     20  C   UNL     1       5.722   5.613  17.902  0.00  0.00    +0.000 A 
ATOM     21  C   UNL     1       6.645   5.206  18.874  0.00  0.00    +0.000 A 
ATOM     22  C   UNL     1       7.805   5.954  19.078  0.00  0.00    +0.000 A 
ATOM     23  C   UNL     1       8.027   7.121  18.346  0.00  0.00    +0.000 A 
ATOM     24  C   UNL     1       7.098   7.535  17.392  0.00  0.00    +0.000 A 
ATOM     25  C   UNL     1       5.950   6.782  17.165  0.00  0.00    +0.000 A 
ENDBRANCH  19  20
ENDBRANCH  14  15
ENDBRANCH   1  14
TORSDOF 4
ENDMDL
