MODEL 1
REMARK VINA RESULT:      -9.0      0.000      0.000
REMARK  Name = 
REMARK  3 active torsions:
REMARK  status: ('A' for Active; 'I' for Inactive)
REMARK    1  A    between atoms: C_12  and  C_13
REMARK    2  A    between atoms: N_20  and  N_21
REMARK    3  A    between atoms: N_21  and  C_22
REMARK                            x       y       z     vdW  Elec       q    Type
REMARK                         _______ _______ _______ _____ _____    ______ ____
ROOT
ATOM      1  O   UNL     1       5.148   3.810  18.648  0.00  0.00    +0.000 OA
ATOM      2  C   UNL     1       4.787   4.664  17.863  0.00  0.00    +0.000 C 
ATOM      3  C   UNL     1       4.077   5.908  18.164  0.00  0.00    +0.000 A 
ATOM      4  C   UNL     1       4.368   6.818  17.162  0.00  0.00    +0.000 A 
ATOM      5  N   UNL     1       3.805   8.041  17.072  0.00  0.00    +0.000 NA
ATOM      6  C   UNL     1       2.833   8.328  17.972  0.00  0.00    +0.000 A 
ATOM      7  C   UNL     1       2.200   9.570  17.928  0.00  0.00    +0.000 A 
ATOM      8  C   UNL     1       1.083   9.874  18.720  0.00  0.00    +0.000 A 
ATOM      9  C   UNL     1       0.587   8.933  19.605  0.00  0.00    +0.000 A 
ATOM     10  C   UNL     1       1.243   7.716  19.731  0.00  0.00    +0.000 A 
ATOM     11  C   UNL     1       2.363   7.382  18.926  0.00  0.00    +0.000 A 
ATOM     12  C   UNL     1       2.996   6.113  19.006  0.00  0.00    +0.000 A 
ATOM     13  C   UNL     1       5.139   6.097  16.061  0.00  0.00    +0.000 C 
ATOM     14  N   UNL     1       5.012   4.719  16.502  0.00  0.00    +0.000 N 
ENDROOT
BRANCH  12  15
ATOM     15  C   UNL     1       2.396   4.976  19.729  0.00  0.00    +0.000 A 
ATOM     16  C   UNL     1       1.507   4.114  19.059  0.00  0.00    +0.000 A 
ATOM     17  C   UNL     1       0.894   3.057  19.719  0.00  0.00    +0.000 A 
ATOM     18  C   UNL     1       1.215   2.797  21.049  0.00  0.00    +0.000 A 
ATOM     19  C   UNL     1       2.150   3.590  21.707  0.00  0.00    +0.000 A 
ATOM     20  C   UNL     1       2.727   4.685  21.058  0.00  0.00    +0.000 A 
ENDBRANCH  12  15
BRANCH  14  21
ATOM     21  N   UNL     1       5.600   3.621  15.858  0.00  0.00    +0.000 N 
ATOM     22  H   UNL     1       4.875   2.919  15.671  0.00  0.00    +0.000 HD
BRANCH  21  23
ATOM     23  C   UNL     1       6.155   3.980  14.576  0.00  0.00    +0.000 A 
ATOM     24  C   UNL     1       7.285   4.806  14.427  0.00  0.00    +0.000 A 
ATOM     25  C   UNL     1       7.808   5.095  13.159  0.00  0.00    +0.000 A 
ATOM     26  C   UNL     1       7.234   4.540  12.021  0.00  0.00    +0.000 A 
ATOM     27  C   UNL     1       6.133   3.690  12.151  0.00  0.00    +0.000 A 
ATOM     28  C   UNL     1       5.606   3.413  13.415  0.00  0.00    +0.000 A 
ENDBRANCH  21  23
ENDBRANCH  14  21
TORSDOF 3
ENDMDL
MODEL 2
REMARK VINA RESULT:      -8.8      0.126      1.315
REMARK  Name = 
REMARK  3 active torsions:
REMARK  status: ('A' for Active; 'I' for Inactive)
REMARK    1  A    between atoms: C_12  and  C_13
REMARK    2  A    between atoms: N_20  and  N_21
REMARK    3  A    between atoms: N_21  and  C_22
REMARK                            x       y       z     vdW  Elec       q    Type
REMARK                         _______ _______ _______ _____ _____    ______ ____
ROOT
ATOM      1  O   UNL     1       5.114   3.704  18.586  0.00  0.00    +0.000 OA
ATOM      2  C   UNL     1       4.769   4.570  17.807  0.00  0.00    +0.000 C 
ATOM      3  C   UNL     1       4.088   5.828  18.116  0.00  0.00    +0.000 A 
ATOM      4  C   UNL     1       4.395   6.736  17.117  0.00  0.00    +0.000 A 
ATOM      5  N   UNL     1       3.860   7.972  17.035  0.00  0.00    +0.000 NA
ATOM      6  C   UNL     1       2.896   8.275  17.940  0.00  0.00    +0.000 A 
ATOM      7  C   UNL     1       2.290   9.531  17.904  0.00  0.00    +0.000 A 
ATOM      8  C   UNL     1       1.183   9.855  18.700  0.00  0.00    +0.000 A 
ATOM      9  C   UNL     1       0.668   8.920  19.582  0.00  0.00    +0.000 A 
ATOM     10  C   UNL     1       1.298   7.689  19.700  0.00  0.00    +0.000 A 
ATOM     11  C   UNL     1       2.408   7.334  18.890  0.00  0.00    +0.000 A 
ATOM     12  C   UNL     1       3.014   6.052  18.962  0.00  0.00    +0.000 A 
ATOM     13  C   UNL     1       5.147   6.005  16.010  0.00  0.00    +0.000 C 
ATOM     14  N   UNL     1       4.992   4.627  16.446  0.00  0.00    +0.000 N 
ENDROOT
BRANCH  12  15
ATOM     15  C   UNL     1       2.391   4.925  19.681  0.00  0.00    +0.000 A 
ATOM     16  C   UNL     1       2.716   4.694  21.031  0.00  0.00    +0.000 A 
ATOM     17  C   UNL     1       2.177   3.619  21.728  0.00  0.00    +0.000 A 
ATOM     18  C   UNL     1       1.245   2.794  21.105  0.00  0.00    +0.000 A 
ATOM     19  C   UNL     1       0.852   3.050  19.796  0.00  0.00    +0.000 A 
ATOM     20  C   UNL     1       1.433   4.101  19.079  0.00  0.00    +0.000 A 
ENDBRANCH  12  15
BRANCH  14  21
ATOM     21  N   UNL     1       5.555   3.520  15.794  0.00  0.00    +0.000 N 
ATOM     22  H   UNL     1       4.807   2.857  15.562  0.00  0.00    +0.000 HD
BRANCH  21  23
ATOM     23  C   UNL     1       6.172   3.885  14.543  0.00  0.00    +0.000 A 
ATOM     24  C   UNL     1       5.702   3.446  13.292  0.00  0.00    +0.000 A 
ATOM     25  C   UNL     1       6.315   3.860  12.102  0.00  0.00    +0.000 A 
ATOM     26  C   UNL     1       7.388   4.744  12.137  0.00  0.00    +0.000 A 
ATOM     27  C   UNL     1       7.849   5.218  13.368  0.00  0.00    +0.000 A 
ATOM     28  C   UNL     1       7.242   4.796  14.553  0.00  0.00    +0.000 A 
ENDBRANCH  21  23
ENDBRANCH  14  21
TORSDOF 3
ENDMDL
MODEL 3
REMARK VINA RESULT:      -8.0      5.765      9.560
REMARK  Name = 
REMARK  3 active torsions:
REMARK  status: ('A' for Active; 'I' for Inactive)
REMARK    1  A    between atoms: C_12  and  C_13
REMARK    2  A    between atoms: N_20  and  N_21
REMARK    3  A    between atoms: N_21  and  C_22
REMARK                            x       y       z     vdW  Elec       q    Type
REMARK                         _______ _______ _______ _____ _____    ______ ____
ROOT
ATOM      1  O   UNL     1      -0.479  13.172  19.000  0.00  0.00    +0.000 OA
ATOM      2  C   UNL     1      -1.190  12.224  18.737  0.00  0.00    +0.000 C 
ATOM      3  C   UNL     1      -2.642  12.127  18.895  0.00  0.00    +0.000 A 
ATOM      4  C   UNL     1      -3.109  11.192  17.987  0.00  0.00    +0.000 A 
ATOM      5  N   UNL     1      -4.393  10.782  17.923  0.00  0.00    +0.000 NA
ATOM      6  C   UNL     1      -5.228  11.259  18.879  0.00  0.00    +0.000 A 
ATOM      7  C   UNL     1      -6.567  10.867  18.880  0.00  0.00    +0.000 A 
ATOM      8  C   UNL     1      -7.445  11.191  19.924  0.00  0.00    +0.000 A 
ATOM      9  C   UNL     1      -6.998  11.950  20.992  0.00  0.00    +0.000 A 
ATOM     10  C   UNL     1      -5.693  12.424  20.982  0.00  0.00    +0.000 A 
ATOM     11  C   UNL     1      -4.784  12.092  19.945  0.00  0.00    +0.000 A 
ATOM     12  C   UNL     1      -3.430  12.520  19.964  0.00  0.00    +0.000 A 
ATOM     13  C   UNL     1      -1.911  10.506  17.338  0.00  0.00    +0.000 C 
ATOM     14  N   UNL     1      -0.829  11.025  18.156  0.00  0.00    +0.000 N 
ENDROOT
BRANCH  12  15
ATOM     15  C   UNL     1      -2.808  13.114  21.163  0.00  0.00    +0.000 A 
ATOM     16  C   UNL     1      -2.203  12.278  22.121  0.00  0.00    +0.000 A 
ATOM     17  C   UNL     1      -1.642  12.800  23.279  0.00  0.00    +0.000 A 
ATOM     18  C   UNL     1      -1.611  14.179  23.468  0.00  0.00    +0.000 A 
ATOM     19  C   UNL     1      -2.134  15.027  22.497  0.00  0.00    +0.000 A 
ATOM     20  C   UNL     1      -2.745  14.499  21.356  0.00  0.00    +0.000 A 
ENDBRANCH  12  15
BRANCH  14  21
ATOM     21  N   UNL     1       0.529  10.743  17.948  0.00  0.00    +0.000 N 
ATOM     22  H   UNL     1       1.081  11.574  18.190  0.00  0.00    +0.000 HD
BRANCH  21  23
ATOM     23  C   UNL     1       0.999   9.683  18.806  0.00  0.00    +0.000 A 
ATOM     24  C   UNL     1       0.615   9.551  20.153  0.00  0.00    +0.000 A 
ATOM     25  C   UNL     1       1.071   8.480  20.934  0.00  0.00    +0.000 A 
ATOM     26  C   UNL     1       1.892   7.506  20.377  0.00  0.00    +0.000 A 
ATOM     27  C   UNL     1       2.257   7.601  19.031  0.00  0.00    +0.000 A 
ATOM     28  C   UNL     1       1.810   8.675  18.258  0.00  0.00    +0.000 A 
ENDBRANCH  21  23
ENDBRANCH  14  21
TORSDOF 3
ENDMDL
MODEL 4
REMARK VINA RESULT:      -7.8      2.190      7.098
REMARK  Name = 
REMARK  3 active torsions:
REMARK  status: ('A' for Active; 'I' for Inactive)
REMARK    1  A    between atoms: C_12  and  C_13
REMARK    2  A    between atoms: N_20  and  N_21
REMARK    3  A    between atoms: N_21  and  C_22
REMARK                            x       y       z     vdW  Elec       q    Type
REMARK                         _______ _______ _______ _____ _____    ______ ____
ROOT
ATOM      1  O   UNL     1       5.198   5.322  19.889  0.00  0.00    +0.000 OA
ATOM      2  C   UNL     1       4.582   5.125  18.861  0.00  0.00    +0.000 C 
ATOM      3  C   UNL     1       5.124   4.744  17.555  0.00  0.00    +0.000 A 
ATOM      4  C   UNL     1       4.132   4.075  16.860  0.00  0.00    +0.000 A 
ATOM      5  N   UNL     1       4.258   3.663  15.581  0.00  0.00    +0.000 NA
ATOM      6  C   UNL     1       5.395   4.028  14.937  0.00  0.00    +0.000 A 
ATOM      7  C   UNL     1       5.585   3.647  13.609  0.00  0.00    +0.000 A 
ATOM      8  C   UNL     1       6.655   4.121  12.836  0.00  0.00    +0.000 A 
ATOM      9  C   UNL     1       7.586   4.978  13.397  0.00  0.00    +0.000 A 
ATOM     10  C   UNL     1       7.470   5.312  14.740  0.00  0.00    +0.000 A 
ATOM     11  C   UNL     1       6.385   4.859  15.534  0.00  0.00    +0.000 A 
ATOM     12  C   UNL     1       6.228   5.251  16.889  0.00  0.00    +0.000 A 
ATOM     13  C   UNL     1       2.831   4.180  17.648  0.00  0.00    +0.000 C 
ATOM     14  N   UNL     1       3.215   5.136  18.672  0.00  0.00    +0.000 N 
ENDROOT
BRANCH  12  15
ATOM     15  C   UNL     1       7.019   6.341  17.491  0.00  0.00    +0.000 A 
ATOM     16  C   UNL     1       6.873   7.657  17.012  0.00  0.00    +0.000 A 
ATOM     17  C   UNL     1       7.630   8.700  17.530  0.00  0.00    +0.000 A 
ATOM     18  C   UNL     1       8.499   8.459  18.591  0.00  0.00    +0.000 A 
ATOM     19  C   UNL     1       8.602   7.181  19.131  0.00  0.00    +0.000 A 
ATOM     20  C   UNL     1       7.879   6.122  18.575  0.00  0.00    +0.000 A 
ENDBRANCH  12  15
BRANCH  14  21
ATOM     21  N   UNL     1       2.381   5.558  19.718  0.00  0.00    +0.000 N 
ATOM     22  H   UNL     1       2.889   5.467  20.605  0.00  0.00    +0.000 HD
BRANCH  21  23
ATOM     23  C   UNL     1       2.025   6.951  19.598  0.00  0.00    +0.000 A 
ATOM     24  C   UNL     1       2.149   7.679  18.400  0.00  0.00    +0.000 A 
ATOM     25  C   UNL     1       1.753   9.022  18.326  0.00  0.00    +0.000 A 
ATOM     26  C   UNL     1       1.199   9.652  19.434  0.00  0.00    +0.000 A 
ATOM     27  C   UNL     1       1.035   8.935  20.623  0.00  0.00    +0.000 A 
ATOM     28  C   UNL     1       1.441   7.600  20.698  0.00  0.00    +0.000 A 
ENDBRANCH  21  23
ENDBRANCH  14  21
TORSDOF 3
ENDMDL
MODEL 5
REMARK VINA RESULT:      -7.7      2.199      7.094
REMARK  Name = 
REMARK  3 active torsions:
REMARK  status: ('A' for Active; 'I' for Inactive)
REMARK    1  A    between atoms: C_12  and  C_13
REMARK    2  A    between atoms: N_20  and  N_21
REMARK    3  A    between atoms: N_21  and  C_22
REMARK                            x       y       z     vdW  Elec       q    Type
REMARK                         _______ _______ _______ _____ _____    ______ ____
ROOT
ATOM      1  O   UNL     1       5.152   5.462  19.927  0.00  0.00    +0.000 OA
ATOM      2  C   UNL     1       4.538   5.248  18.901  0.00  0.00    +0.000 C 
ATOM      3  C   UNL     1       5.081   4.830  17.607  0.00  0.00    +0.000 A 
ATOM      4  C   UNL     1       4.085   4.155  16.923  0.00  0.00    +0.000 A 
ATOM      5  N   UNL     1       4.211   3.713  15.655  0.00  0.00    +0.000 NA
ATOM      6  C   UNL     1       5.354   4.049  15.008  0.00  0.00    +0.000 A 
ATOM      7  C   UNL     1       5.545   3.636  13.690  0.00  0.00    +0.000 A 
ATOM      8  C   UNL     1       6.623   4.079  12.911  0.00  0.00    +0.000 A 
ATOM      9  C   UNL     1       7.562   4.939  13.455  0.00  0.00    +0.000 A 
ATOM     10  C   UNL     1       7.444   5.306  14.789  0.00  0.00    +0.000 A 
ATOM     11  C   UNL     1       6.351   4.884  15.589  0.00  0.00    +0.000 A 
ATOM     12  C   UNL     1       6.193   5.310  16.934  0.00  0.00    +0.000 A 
ATOM     13  C   UNL     1       2.781   4.294  17.704  0.00  0.00    +0.000 C 
ATOM     14  N   UNL     1       3.171   5.270  18.707  0.00  0.00    +0.000 N 
ENDROOT
BRANCH  12  15
ATOM     15  C   UNL     1       6.994   6.405  17.513  0.00  0.00    +0.000 A 
ATOM     16  C   UNL     1       7.877   6.136  18.576  0.00  0.00    +0.000 A 
ATOM     17  C   UNL     1       8.618   7.150  19.170  0.00  0.00    +0.000 A 
ATOM     18  C   UNL     1       8.542   8.445  18.664  0.00  0.00    +0.000 A 
ATOM     19  C   UNL     1       7.734   8.717  17.565  0.00  0.00    +0.000 A 
ATOM     20  C   UNL     1       6.949   7.707  17.001  0.00  0.00    +0.000 A 
ENDBRANCH  12  15
BRANCH  14  21
ATOM     21  N   UNL     1       2.338   5.725  19.738  0.00  0.00    +0.000 N 
ATOM     22  H   UNL     1       2.858   5.696  20.623  0.00  0.00    +0.000 HD
BRANCH  21  23
ATOM     23  C   UNL     1       1.942   7.099  19.547  0.00  0.00    +0.000 A 
ATOM     24  C   UNL     1       1.399   7.895  20.572  0.00  0.00    +0.000 A 
ATOM     25  C   UNL     1       1.065   9.238  20.345  0.00  0.00    +0.000 A 
ATOM     26  C   UNL     1       1.296   9.817  19.102  0.00  0.00    +0.000 A 
ATOM     27  C   UNL     1       1.867   9.052  18.082  0.00  0.00    +0.000 A 
ATOM     28  C   UNL     1       2.189   7.711  18.307  0.00  0.00    +0.000 A 
ENDBRANCH  21  23
ENDBRANCH  14  21
TORSDOF 3
ENDMDL
MODEL 6
REMARK VINA RESULT:      -7.6      6.161      9.997
REMARK  Name = 
REMARK  3 active torsions:
REMARK  status: ('A' for Active; 'I' for Inactive)
REMARK    1  A    between atoms: C_12  and  C_13
REMARK    2  A    between atoms: N_20  and  N_21
REMARK    3  A    between atoms: N_21  and  C_22
REMARK                            x       y       z     vdW  Elec       q    Type
REMARK                         _______ _______ _______ _____ _____    ______ ____
ROOT
ATOM      1  O   UNL     1      -0.982  13.167  19.028  0.00  0.00    +0.000 OA
ATOM      2  C   UNL     1      -1.782  12.275  18.828  0.00  0.00    +0.000 C 
ATOM      3  C   UNL     1      -3.205  12.260  19.171  0.00  0.00    +0.000 A 
ATOM      4  C   UNL     1      -3.846  11.395  18.301  0.00  0.00    +0.000 A 
ATOM      5  N   UNL     1      -5.152  11.067  18.392  0.00  0.00    +0.000 NA
ATOM      6  C   UNL     1      -5.823  11.553  19.466  0.00  0.00    +0.000 A 
ATOM      7  C   UNL     1      -7.173  11.243  19.629  0.00  0.00    +0.000 A 
ATOM      8  C   UNL     1      -7.886  11.575  20.790  0.00  0.00    +0.000 A 
ATOM      9  C   UNL     1      -7.257  12.259  21.816  0.00  0.00    +0.000 A 
ATOM     10  C   UNL     1      -5.935  12.653  21.651  0.00  0.00    +0.000 A 
ATOM     11  C   UNL     1      -5.191  12.311  20.492  0.00  0.00    +0.000 A 
ATOM     12  C   UNL     1      -3.821  12.655  20.348  0.00  0.00    +0.000 A 
ATOM     13  C   UNL     1      -2.789  10.666  17.477  0.00  0.00    +0.000 C 
ATOM     14  N   UNL     1      -1.579  11.083  18.163  0.00  0.00    +0.000 N 
ENDROOT
BRANCH  12  15
ATOM     15  C   UNL     1      -3.012  13.157  21.474  0.00  0.00    +0.000 A 
ATOM     16  C   UNL     1      -2.935  14.543  21.715  0.00  0.00    +0.000 A 
ATOM     17  C   UNL     1      -2.152  15.052  22.743  0.00  0.00    +0.000 A 
ATOM     18  C   UNL     1      -1.485  14.179  23.598  0.00  0.00    +0.000 A 
ATOM     19  C   UNL     1      -1.610  12.804  23.425  0.00  0.00    +0.000 A 
ATOM     20  C   UNL     1      -2.356  12.293  22.359  0.00  0.00    +0.000 A 
ENDBRANCH  12  15
BRANCH  14  21
ATOM     21  N   UNL     1      -0.280  10.729  17.769  0.00  0.00    +0.000 N 
ATOM     22  H   UNL     1       0.307  11.571  17.767  0.00  0.00    +0.000 HD
BRANCH  21  23
ATOM     23  C   UNL     1       0.334   9.810  18.696  0.00  0.00    +0.000 A 
ATOM     24  C   UNL     1       1.428   8.990  18.360  0.00  0.00    +0.000 A 
ATOM     25  C   UNL     1       2.014   8.141  19.308  0.00  0.00    +0.000 A 
ATOM     26  C   UNL     1       1.540   8.116  20.615  0.00  0.00    +0.000 A 
ATOM     27  C   UNL     1       0.477   8.948  20.977  0.00  0.00    +0.000 A 
ATOM     28  C   UNL     1      -0.112   9.786  20.027  0.00  0.00    +0.000 A 
ENDBRANCH  21  23
ENDBRANCH  14  21
TORSDOF 3
ENDMDL
MODEL 7
REMARK VINA RESULT:      -7.2      5.111      8.834
REMARK  Name = 
REMARK  3 active torsions:
REMARK  status: ('A' for Active; 'I' for Inactive)
REMARK    1  A    between atoms: C_12  and  C_13
REMARK    2  A    between atoms: N_20  and  N_21
REMARK    3  A    between atoms: N_21  and  C_22
REMARK                            x       y       z     vdW  Elec       q    Type
REMARK                         _______ _______ _______ _____ _____    ______ ____
ROOT
ATOM      1  O   UNL     1       0.688  12.741  19.110  0.00  0.00    +0.000 OA
ATOM      2  C   UNL     1      -0.060  11.827  18.825  0.00  0.00    +0.000 C 
ATOM      3  C   UNL     1      -1.522  11.859  18.760  0.00  0.00    +0.000 A 
ATOM      4  C   UNL     1      -1.931  10.872  17.879  0.00  0.00    +0.000 A 
ATOM      5  N   UNL     1      -3.223  10.558  17.651  0.00  0.00    +0.000 NA
ATOM      6  C   UNL     1      -4.145  11.194  18.416  0.00  0.00    +0.000 A 
ATOM      7  C   UNL     1      -5.499  10.907  18.242  0.00  0.00    +0.000 A 
ATOM      8  C   UNL     1      -6.489  11.405  19.101  0.00  0.00    +0.000 A 
ATOM      9  C   UNL     1      -6.140  12.235  20.152  0.00  0.00    +0.000 A 
ATOM     10  C   UNL     1      -4.810  12.604  20.304  0.00  0.00    +0.000 A 
ATOM     11  C   UNL     1      -3.790  12.097  19.458  0.00  0.00    +0.000 A 
ATOM     12  C   UNL     1      -2.421  12.421  19.651  0.00  0.00    +0.000 A 
ATOM     13  C   UNL     1      -0.718  10.033  17.493  0.00  0.00    +0.000 C 
ATOM     14  N   UNL     1       0.273  10.550  18.420  0.00  0.00    +0.000 N 
ENDROOT
BRANCH  12  15
ATOM     15  C   UNL     1      -1.933  13.087  20.874  0.00  0.00    +0.000 A 
ATOM     16  C   UNL     1      -1.698  14.475  20.866  0.00  0.00    +0.000 A 
ATOM     17  C   UNL     1      -1.202  15.127  21.988  0.00  0.00    +0.000 A 
ATOM     18  C   UNL     1      -1.000  14.413  23.166  0.00  0.00    +0.000 A 
ATOM     19  C   UNL     1      -1.300  13.056  23.218  0.00  0.00    +0.000 A 
ATOM     20  C   UNL     1      -1.749  12.390  22.074  0.00  0.00    +0.000 A 
ENDBRANCH  12  15
BRANCH  14  21
ATOM     21  N   UNL     1       1.615  10.146  18.456  0.00  0.00    +0.000 N 
ATOM     22  H   UNL     1       2.122  10.736  19.126  0.00  0.00    +0.000 HD
BRANCH  21  23
ATOM     23  C   UNL     1       1.760   8.789  18.923  0.00  0.00    +0.000 A 
ATOM     24  C   UNL     1       2.328   7.762  18.148  0.00  0.00    +0.000 A 
ATOM     25  C   UNL     1       2.480   6.467  18.663  0.00  0.00    +0.000 A 
ATOM     26  C   UNL     1       2.097   6.182  19.969  0.00  0.00    +0.000 A 
ATOM     27  C   UNL     1       1.562   7.197  20.765  0.00  0.00    +0.000 A 
ATOM     28  C   UNL     1       1.401   8.485  20.247  0.00  0.00    +0.000 A 
ENDBRANCH  21  23
ENDBRANCH  14  21
TORSDOF 3
ENDMDL
MODEL 8
REMARK VINA RESULT:      -7.2      6.068      9.603
REMARK  Name = 
REMARK  3 active torsions:
REMARK  status: ('A' for Active; 'I' for Inactive)
REMARK    1  A    between atoms: C_12  and  C_13
REMARK    2  A    between atoms: N_20  and  N_21
REMARK    3  A    between atoms: N_21  and  C_22
REMARK                            x       y       z     vdW  Elec       q    Type
REMARK                         _______ _______ _______ _____ _____    ______ ____
ROOT
ATOM      1  O   UNL     1      -0.439  13.020  21.101  0.00  0.00    +0.000 OA
ATOM      2  C   UNL     1      -1.013  12.157  20.467  0.00  0.00    +0.000 C 
ATOM      3  C   UNL     1      -2.337  12.236  19.849  0.00  0.00    +0.000 A 
ATOM      4  C   UNL     1      -2.368  11.345  18.790  0.00  0.00    +0.000 A 
ATOM      5  N   UNL     1      -3.471  11.089  18.055  0.00  0.00    +0.000 NA
ATOM      6  C   UNL     1      -4.620  11.682  18.463  0.00  0.00    +0.000 A 
ATOM      7  C   UNL     1      -5.800  11.451  17.756  0.00  0.00    +0.000 A 
ATOM      8  C   UNL     1      -7.049  11.898  18.212  0.00  0.00    +0.000 A 
ATOM      9  C   UNL     1      -7.138  12.620  19.389  0.00  0.00    +0.000 A 
ATOM     10  C   UNL     1      -5.972  12.936  20.074  0.00  0.00    +0.000 A 
ATOM     11  C   UNL     1      -4.701  12.477  19.641  0.00  0.00    +0.000 A 
ATOM     12  C   UNL     1      -3.515  12.742  20.374  0.00  0.00    +0.000 A 
ATOM     13  C   UNL     1      -1.093  10.509  18.823  0.00  0.00    +0.000 C 
ATOM     14  N   UNL     1      -0.540  10.912  20.104  0.00  0.00    +0.000 N 
ENDROOT
BRANCH  12  15
ATOM     15  C   UNL     1      -3.541  13.282  21.747  0.00  0.00    +0.000 A 
ATOM     16  C   UNL     1      -3.467  14.673  21.951  0.00  0.00    +0.000 A 
ATOM     17  C   UNL     1      -3.450  15.213  23.231  0.00  0.00    +0.000 A 
ATOM     18  C   UNL     1      -3.579  14.373  24.334  0.00  0.00    +0.000 A 
ATOM     19  C   UNL     1      -3.731  13.002  24.152  0.00  0.00    +0.000 A 
ATOM     20  C   UNL     1      -3.696  12.455  22.866  0.00  0.00    +0.000 A 
ENDBRANCH  12  15
BRANCH  14  21
ATOM     21  N   UNL     1       0.688  10.468  20.614  0.00  0.00    +0.000 N 
ATOM     22  H   UNL     1       0.532  10.053  21.540  0.00  0.00    +0.000 HD
BRANCH  21  23
ATOM     23  C   UNL     1       1.269   9.429  19.799  0.00  0.00    +0.000 A 
ATOM     24  C   UNL     1       1.654   9.623  18.460  0.00  0.00    +0.000 A 
ATOM     25  C   UNL     1       2.249   8.590  17.721  0.00  0.00    +0.000 A 
ATOM     26  C   UNL     1       2.498   7.358  18.315  0.00  0.00    +0.000 A 
ATOM     27  C   UNL     1       2.154   7.157  19.654  0.00  0.00    +0.000 A 
ATOM     28  C   UNL     1       1.551   8.184  20.385  0.00  0.00    +0.000 A 
ENDBRANCH  21  23
ENDBRANCH  14  21
TORSDOF 3
ENDMDL
MODEL 9
REMARK VINA RESULT:      -7.2      6.168      9.813
REMARK  Name = 
REMARK  3 active torsions:
REMARK  status: ('A' for Active; 'I' for Inactive)
REMARK    1  A    between atoms: C_12  and  C_13
REMARK    2  A    between atoms: N_20  and  N_21
REMARK    3  A    between atoms: N_21  and  C_22
REMARK                            x       y       z     vdW  Elec       q    Type
REMARK                         _______ _______ _______ _____ _____    ______ ____
ROOT
ATOM      1  O   UNL     1      -0.736  13.772  20.522  0.00  0.00    +0.000 OA
ATOM      2  C   UNL     1      -1.218  12.816  19.948  0.00  0.00    +0.000 C 
ATOM      3  C   UNL     1      -2.623  12.600  19.600  0.00  0.00    +0.000 A 
ATOM      4  C   UNL     1      -2.667  11.754  18.505  0.00  0.00    +0.000 A 
ATOM      5  N   UNL     1      -3.810  11.268  17.976  0.00  0.00    +0.000 NA
ATOM      6  C   UNL     1      -4.956  11.565  18.637  0.00  0.00    +0.000 A 
ATOM      7  C   UNL     1      -6.172  11.084  18.152  0.00  0.00    +0.000 A 
ATOM      8  C   UNL     1      -7.372  11.216  18.867  0.00  0.00    +0.000 A 
ATOM      9  C   UNL     1      -7.380  11.866  20.089  0.00  0.00    +0.000 A 
ATOM     10  C   UNL     1      -6.201  12.427  20.561  0.00  0.00    +0.000 A 
ATOM     11  C   UNL     1      -4.974  12.289  19.863  0.00  0.00    +0.000 A 
ATOM     12  C   UNL     1      -3.754  12.804  20.374  0.00  0.00    +0.000 A 
ATOM     13  C   UNL     1      -1.258  11.238  18.234  0.00  0.00    +0.000 C 
ATOM     14  N   UNL     1      -0.562  11.725  19.412  0.00  0.00    +0.000 N 
ENDROOT
BRANCH  12  15
ATOM     15  C   UNL     1      -3.622  13.286  21.762  0.00  0.00    +0.000 A 
ATOM     16  C   UNL     1      -3.369  12.368  22.799  0.00  0.00    +0.000 A 
ATOM     17  C   UNL     1      -3.278  12.783  24.122  0.00  0.00    +0.000 A 
ATOM     18  C   UNL     1      -3.366  14.139  24.425  0.00  0.00    +0.000 A 
ATOM     19  C   UNL     1      -3.538  15.071  23.407  0.00  0.00    +0.000 A 
ATOM     20  C   UNL     1      -3.682  14.648  22.082  0.00  0.00    +0.000 A 
ENDBRANCH  12  15
BRANCH  14  21
ATOM     21  N   UNL     1       0.811  11.566  19.647  0.00  0.00    +0.000 N 
ATOM     22  H   UNL     1       0.996  11.707  20.647  0.00  0.00    +0.000 HD
BRANCH  21  23
ATOM     23  C   UNL     1       1.262  10.232  19.337  0.00  0.00    +0.000 A 
ATOM     24  C   UNL     1       1.876   9.887  18.119  0.00  0.00    +0.000 A 
ATOM     25  C   UNL     1       2.331   8.583  17.881  0.00  0.00    +0.000 A 
ATOM     26  C   UNL     1       2.209   7.607  18.865  0.00  0.00    +0.000 A 
ATOM     27  C   UNL     1       1.632   7.939  20.094  0.00  0.00    +0.000 A 
ATOM     28  C   UNL     1       1.170   9.237  20.325  0.00  0.00    +0.000 A 
ENDBRANCH  21  23
ENDBRANCH  14  21
TORSDOF 3
ENDMDL
