MODEL 1
REMARK VINA RESULT:      -6.8      0.000      0.000
REMARK  Name = 
REMARK  7 active torsions:
REMARK  status: ('A' for Active; 'I' for Inactive)
REMARK    1  A    between atoms: C_1  and  O_2
REMARK    2  A    between atoms: O_2  and  C_3
REMARK    3  A    between atoms: C_7  and  C_8
REMARK    4  A    between atoms: C_11  and  S_12
REMARK    5  A    between atoms: S_12  and  C_13
REMARK    6  A    between atoms: C_13  and  C_14
REMARK    7  A    between atoms: C_14  and  O_16
REMARK                            x       y       z     vdW  Elec       q    Type
REMARK                         _______ _______ _______ _____ _____    ______ ____
ROOT
ATOM      1  C   UNL     1       4.853   4.276  19.368  0.00  0.00    +0.000 A 
ATOM      2  N   UNL     1       5.172   3.002  19.546  0.00  0.00    +0.000 NA
ATOM      3  N   UNL     1       4.108   2.349  20.130  0.00  0.00    +0.000 NA
ATOM      4  C   UNL     1       3.160   3.234  20.290  0.00  0.00    +0.000 A 
ATOM      5  N   UNL     1       3.582   4.455  19.867  0.00  0.00    +0.000 N 
ATOM      6  H   UNL     1       3.067   5.322  19.933  0.00  0.00    +0.000 HD
ENDROOT
BRANCH   1  11
ATOM      7  C   UNL     1       7.232   7.363  17.542  0.00  0.00    +0.000 A 
ATOM      8  C   UNL     1       5.965   7.059  17.054  0.00  0.00    +0.000 A 
ATOM      9  C   UNL     1       5.206   6.052  17.657  0.00  0.00    +0.000 A 
ATOM     10  F   UNL     1       3.993   5.811  17.137  0.00  0.00    +0.000 F 
ATOM     11  C   UNL     1       5.673   5.320  18.756  0.00  0.00    +0.000 A 
ATOM     12  C   UNL     1       6.946   5.650  19.231  0.00  0.00    +0.000 A 
ATOM     13  F   UNL     1       7.460   5.003  20.290  0.00  0.00    +0.000 F 
ATOM     14  C   UNL     1       7.719   6.653  18.640  0.00  0.00    +0.000 A 
BRANCH   7  16
ATOM     15  C   UNL     1       8.385   9.411  17.905  0.00  0.00    +0.000 C 
ATOM     16  O   UNL     1       8.074   8.318  17.045  0.00  0.00    +0.000 OA
ENDBRANCH   7  16
ENDBRANCH   1  11
BRANCH   4  17
ATOM     17  S   UNL     1       1.572   2.982  20.900  0.00  0.00    +0.000 S 
BRANCH  17  18
ATOM     18  C   UNL     1       0.723   2.412  19.401  0.00  0.00    +0.000 C 
BRANCH  18  19
ATOM     19  C   UNL     1       1.460   2.806  18.137  0.00  0.00    +0.000 C 
ATOM     20  O   UNL     1       1.381   3.883  17.562  0.00  0.00    +0.000 OA
BRANCH  19  21
ATOM     21  O   UNL     1       2.259   1.816  17.666  0.00  0.00    +0.000 OA
ATOM     22  H   UNL     1       1.806   1.145  17.119  0.00  0.00    +0.000 HD
ENDBRANCH  19  21
ENDBRANCH  18  19
ENDBRANCH  17  18
ENDBRANCH   4  17
TORSDOF 6
ENDMDL
MODEL 2
REMARK VINA RESULT:      -6.6      0.142      1.849
REMARK  Name = 
REMARK  7 active torsions:
REMARK  status: ('A' for Active; 'I' for Inactive)
REMARK    1  A    between atoms: C_1  and  O_2
REMARK    2  A    between atoms: O_2  and  C_3
REMARK    3  A    between atoms: C_7  and  C_8
REMARK    4  A    between atoms: C_11  and  S_12
REMARK    5  A    between atoms: S_12  and  C_13
REMARK    6  A    between atoms: C_13  and  C_14
REMARK    7  A    between atoms: C_14  and  O_16
REMARK                            x       y       z     vdW  Elec       q    Type
REMARK                         _______ _______ _______ _____ _____    ______ ____
ROOT
ATOM      1  C   UNL     1       4.868   4.307  19.290  0.00  0.00    +0.000 A 
ATOM      2  N   UNL     1       5.145   3.013  19.363  0.00  0.00    +0.000 NA
ATOM      3  N   UNL     1       4.076   2.356  19.934  0.00  0.00    +0.000 NA
ATOM      4  C   UNL     1       3.167   3.260  20.190  0.00  0.00    +0.000 A 
ATOM      5  N   UNL     1       3.621   4.494  19.843  0.00  0.00    +0.000 N 
ATOM      6  H   UNL     1       3.142   5.371  19.990  0.00  0.00    +0.000 HD
ENDROOT
BRANCH   1  11
ATOM      7  C   UNL     1       7.373   7.405  17.659  0.00  0.00    +0.000 A 
ATOM      8  C   UNL     1       7.812   6.619  18.719  0.00  0.00    +0.000 A 
ATOM      9  C   UNL     1       6.986   5.619  19.240  0.00  0.00    +0.000 A 
ATOM     10  F   UNL     1       7.473   4.898  20.261  0.00  0.00    +0.000 F 
ATOM     11  C   UNL     1       5.708   5.364  18.728  0.00  0.00    +0.000 A 
ATOM     12  C   UNL     1       5.292   6.163  17.658  0.00  0.00    +0.000 A 
ATOM     13  F   UNL     1       4.084   5.973  17.102  0.00  0.00    +0.000 F 
ATOM     14  C   UNL     1       6.105   7.168  17.127  0.00  0.00    +0.000 A 
BRANCH   7  16
ATOM     15  C   UNL     1       8.424   9.526  17.883  0.00  0.00    +0.000 C 
ATOM     16  O   UNL     1       8.077   8.413  17.063  0.00  0.00    +0.000 OA
ENDBRANCH   7  16
ENDBRANCH   1  11
BRANCH   4  17
ATOM     17  S   UNL     1       1.591   3.019  20.834  0.00  0.00    +0.000 S 
BRANCH  17  18
ATOM     18  C   UNL     1       0.689   2.524  19.339  0.00  0.00    +0.000 C 
BRANCH  18  19
ATOM     19  C   UNL     1       1.405   2.943  18.071  0.00  0.00    +0.000 C 
ATOM     20  O   UNL     1       1.353   4.045  17.543  0.00  0.00    +0.000 OA
BRANCH  19  21
ATOM     21  O   UNL     1       2.150   1.943  17.535  0.00  0.00    +0.000 OA
ATOM     22  H   UNL     1       1.636   1.201  17.159  0.00  0.00    +0.000 HD
ENDBRANCH  19  21
ENDBRANCH  18  19
ENDBRANCH  17  18
ENDBRANCH   4  17
TORSDOF 6
ENDMDL
MODEL 3
REMARK VINA RESULT:      -6.6      1.927      2.843
REMARK  Name = 
REMARK  7 active torsions:
REMARK  status: ('A' for Active; 'I' for Inactive)
REMARK    1  A    between atoms: C_1  and  O_2
REMARK    2  A    between atoms: O_2  and  C_3
REMARK    3  A    between atoms: C_7  and  C_8
REMARK    4  A    between atoms: C_11  and  S_12
REMARK    5  A    between atoms: S_12  and  C_13
REMARK    6  A    between atoms: C_13  and  C_14
REMARK    7  A    between atoms: C_14  and  O_16
REMARK                            x       y       z     vdW  Elec       q    Type
REMARK                         _______ _______ _______ _____ _____    ______ ____
ROOT
ATOM      1  C   UNL     1       4.680   3.470  19.251  0.00  0.00    +0.000 A 
ATOM      2  N   UNL     1       5.074   2.498  20.060  0.00  0.00    +0.000 NA
ATOM      3  N   UNL     1       4.065   2.224  20.958  0.00  0.00    +0.000 NA
ATOM      4  C   UNL     1       3.075   3.028  20.675  0.00  0.00    +0.000 A 
ATOM      5  N   UNL     1       3.417   3.849  19.646  0.00  0.00    +0.000 N 
ATOM      6  H   UNL     1       2.857   4.601  19.270  0.00  0.00    +0.000 HD
ENDROOT
BRANCH   1  11
ATOM      7  C   UNL     1       6.899   5.198  15.992  0.00  0.00    +0.000 A 
ATOM      8  C   UNL     1       7.286   5.415  17.310  0.00  0.00    +0.000 A 
ATOM      9  C   UNL     1       6.553   4.849  18.358  0.00  0.00    +0.000 A 
ATOM     10  F   UNL     1       6.983   5.098  19.604  0.00  0.00    +0.000 F 
ATOM     11  C   UNL     1       5.423   4.053  18.135  0.00  0.00    +0.000 A 
ATOM     12  C   UNL     1       5.059   3.844  16.801  0.00  0.00    +0.000 A 
ATOM     13  F   UNL     1       3.994   3.082  16.502  0.00  0.00    +0.000 F 
ATOM     14  C   UNL     1       5.780   4.404  15.742  0.00  0.00    +0.000 A 
BRANCH   7  16
ATOM     15  C   UNL     1       7.444   4.907  13.696  0.00  0.00    +0.000 C 
ATOM     16  O   UNL     1       7.523   5.693  14.882  0.00  0.00    +0.000 OA
ENDBRANCH   7  16
ENDBRANCH   1  11
BRANCH   4  17
ATOM     17  S   UNL     1       1.522   3.090  21.411  0.00  0.00    +0.000 S 
BRANCH  17  18
ATOM     18  C   UNL     1       0.554   3.868  20.088  0.00  0.00    +0.000 C 
BRANCH  18  19
ATOM     19  C   UNL     1       0.637   3.096  18.785  0.00  0.00    +0.000 C 
ATOM     20  O   UNL     1       0.239   1.955  18.596  0.00  0.00    +0.000 OA
BRANCH  19  21
ATOM     21  O   UNL     1       1.221   3.810  17.791  0.00  0.00    +0.000 OA
ATOM     22  H   UNL     1       1.792   3.292  17.190  0.00  0.00    +0.000 HD
ENDBRANCH  19  21
ENDBRANCH  18  19
ENDBRANCH  17  18
ENDBRANCH   4  17
TORSDOF 6
ENDMDL
MODEL 4
REMARK VINA RESULT:      -6.6      2.069      2.432
REMARK  Name = 
REMARK  7 active torsions:
REMARK  status: ('A' for Active; 'I' for Inactive)
REMARK    1  A    between atoms: C_1  and  O_2
REMARK    2  A    between atoms: O_2  and  C_3
REMARK    3  A    between atoms: C_7  and  C_8
REMARK    4  A    between atoms: C_11  and  S_12
REMARK    5  A    between atoms: S_12  and  C_13
REMARK    6  A    between atoms: C_13  and  C_14
REMARK    7  A    between atoms: C_14  and  O_16
REMARK                            x       y       z     vdW  Elec       q    Type
REMARK                         _______ _______ _______ _____ _____    ______ ____
ROOT
ATOM      1  C   UNL     1       4.775   3.548  18.982  0.00  0.00    +0.000 A 
ATOM      2  N   UNL     1       5.122   2.518  19.739  0.00  0.00    +0.000 NA
ATOM      3  N   UNL     1       4.165   2.333  20.713  0.00  0.00    +0.000 NA
ATOM      4  C   UNL     1       3.251   3.247  20.527  0.00  0.00    +0.000 A 
ATOM      5  N   UNL     1       3.597   4.052  19.487  0.00  0.00    +0.000 N 
ATOM      6  H   UNL     1       3.096   4.871  19.170  0.00  0.00    +0.000 HD
ENDROOT
BRANCH   1  11
ATOM      7  C   UNL     1       6.832   5.089  15.529  0.00  0.00    +0.000 A 
ATOM      8  C   UNL     1       5.613   4.432  15.396  0.00  0.00    +0.000 A 
ATOM      9  C   UNL     1       4.959   3.934  16.527  0.00  0.00    +0.000 A 
ATOM     10  F   UNL     1       3.787   3.313  16.328  0.00  0.00    +0.000 F 
ATOM     11  C   UNL     1       5.486   4.074  17.817  0.00  0.00    +0.000 A 
ATOM     12  C   UNL     1       6.708   4.744  17.924  0.00  0.00    +0.000 A 
ATOM     13  F   UNL     1       7.274   4.930  19.128  0.00  0.00    +0.000 F 
ATOM     14  C   UNL     1       7.377   5.246  16.803  0.00  0.00    +0.000 A 
BRANCH   7  16
ATOM     15  C   UNL     1       7.534   4.925  13.263  0.00  0.00    +0.000 C 
ATOM     16  O   UNL     1       7.573   5.616  14.509  0.00  0.00    +0.000 OA
ENDBRANCH   7  16
ENDBRANCH   1  11
BRANCH   4  17
ATOM     17  S   UNL     1       1.779   3.461  21.390  0.00  0.00    +0.000 S 
BRANCH  17  18
ATOM     18  C   UNL     1       0.699   4.073  20.066  0.00  0.00    +0.000 C 
BRANCH  18  19
ATOM     19  C   UNL     1       0.675   3.145  18.868  0.00  0.00    +0.000 C 
ATOM     20  O   UNL     1       0.295   1.983  18.863  0.00  0.00    +0.000 OA
BRANCH  19  21
ATOM     21  O   UNL     1       1.135   3.738  17.737  0.00  0.00    +0.000 OA
ATOM     22  H   UNL     1       1.622   3.147  17.130  0.00  0.00    +0.000 HD
ENDBRANCH  19  21
ENDBRANCH  18  19
ENDBRANCH  17  18
ENDBRANCH   4  17
TORSDOF 6
ENDMDL
MODEL 5
REMARK VINA RESULT:      -6.5      2.123      2.901
REMARK  Name = 
REMARK  7 active torsions:
REMARK  status: ('A' for Active; 'I' for Inactive)
REMARK    1  A    between atoms: C_1  and  O_2
REMARK    2  A    between atoms: O_2  and  C_3
REMARK    3  A    between atoms: C_7  and  C_8
REMARK    4  A    between atoms: C_11  and  S_12
REMARK    5  A    between atoms: S_12  and  C_13
REMARK    6  A    between atoms: C_13  and  C_14
REMARK    7  A    between atoms: C_14  and  O_16
REMARK                            x       y       z     vdW  Elec       q    Type
REMARK                         _______ _______ _______ _____ _____    ______ ____
ROOT
ATOM      1  C   UNL     1       4.048   4.461  17.751  0.00  0.00    +0.000 A 
ATOM      2  N   UNL     1       3.674   3.787  16.674  0.00  0.00    +0.000 NA
ATOM      3  N   UNL     1       2.506   3.110  16.949  0.00  0.00    +0.000 NA
ATOM      4  C   UNL     1       2.186   3.390  18.184  0.00  0.00    +0.000 A 
ATOM      5  N   UNL     1       3.129   4.196  18.742  0.00  0.00    +0.000 N 
ATOM      6  H   UNL     1       3.154   4.513  19.701  0.00  0.00    +0.000 HD
ENDROOT
BRANCH   1  11
ATOM      7  C   UNL     1       7.491   7.005  18.198  0.00  0.00    +0.000 A 
ATOM      8  C   UNL     1       7.313   5.898  19.020  0.00  0.00    +0.000 A 
ATOM      9  C   UNL     1       6.188   5.083  18.865  0.00  0.00    +0.000 A 
ATOM     10  F   UNL     1       6.080   4.031  19.691  0.00  0.00    +0.000 F 
ATOM     11  C   UNL     1       5.211   5.335  17.894  0.00  0.00    +0.000 A 
ATOM     12  C   UNL     1       5.417   6.450  17.075  0.00  0.00    +0.000 A 
ATOM     13  F   UNL     1       4.532   6.753  16.111  0.00  0.00    +0.000 F 
ATOM     14  C   UNL     1       6.535   7.276  17.218  0.00  0.00    +0.000 A 
BRANCH   7  16
ATOM     15  C   UNL     1       8.238   9.257  18.034  0.00  0.00    +0.000 C 
ATOM     16  O   UNL     1       8.540   7.880  18.248  0.00  0.00    +0.000 OA
ENDBRANCH   7  16
ENDBRANCH   1  11
BRANCH   4  17
ATOM     17  S   UNL     1       0.787   2.893  19.052  0.00  0.00    +0.000 S 
BRANCH  17  18
ATOM     18  C   UNL     1       1.085   3.689  20.655  0.00  0.00    +0.000 C 
BRANCH  18  19
ATOM     19  C   UNL     1       1.891   2.811  21.592  0.00  0.00    +0.000 C 
ATOM     20  O   UNL     1       3.096   2.608  21.532  0.00  0.00    +0.000 OA
BRANCH  19  21
ATOM     21  O   UNL     1       1.129   2.235  22.555  0.00  0.00    +0.000 OA
ATOM     22  H   UNL     1       1.626   1.876  23.316  0.00  0.00    +0.000 HD
ENDBRANCH  19  21
ENDBRANCH  18  19
ENDBRANCH  17  18
ENDBRANCH   4  17
TORSDOF 6
ENDMDL
MODEL 6
REMARK VINA RESULT:      -6.5      4.741      6.481
REMARK  Name = 
REMARK  7 active torsions:
REMARK  status: ('A' for Active; 'I' for Inactive)
REMARK    1  A    between atoms: C_1  and  O_2
REMARK    2  A    between atoms: O_2  and  C_3
REMARK    3  A    between atoms: C_7  and  C_8
REMARK    4  A    between atoms: C_11  and  S_12
REMARK    5  A    between atoms: S_12  and  C_13
REMARK    6  A    between atoms: C_13  and  C_14
REMARK    7  A    between atoms: C_14  and  O_16
REMARK                            x       y       z     vdW  Elec       q    Type
REMARK                         _______ _______ _______ _____ _____    ______ ____
ROOT
ATOM      1  C   UNL     1       5.477   4.776  16.109  0.00  0.00    +0.000 A 
ATOM      2  N   UNL     1       6.681   5.281  16.340  0.00  0.00    +0.000 NA
ATOM      3  N   UNL     1       7.430   5.201  15.186  0.00  0.00    +0.000 NA
ATOM      4  C   UNL     1       6.669   4.658  14.274  0.00  0.00    +0.000 A 
ATOM      5  N   UNL     1       5.457   4.340  14.803  0.00  0.00    +0.000 N 
ATOM      6  H   UNL     1       4.706   3.858  14.330  0.00  0.00    +0.000 HD
ENDROOT
BRANCH   1  11
ATOM      7  C   UNL     1       2.171   4.557  18.856  0.00  0.00    +0.000 A 
ATOM      8  C   UNL     1       2.638   5.786  18.401  0.00  0.00    +0.000 A 
ATOM      9  C   UNL     1       3.715   5.841  17.511  0.00  0.00    +0.000 A 
ATOM     10  F   UNL     1       4.113   7.058  17.113  0.00  0.00    +0.000 F 
ATOM     11  C   UNL     1       4.357   4.687  17.044  0.00  0.00    +0.000 A 
ATOM     12  C   UNL     1       3.863   3.465  17.510  0.00  0.00    +0.000 A 
ATOM     13  F   UNL     1       4.417   2.312  17.098  0.00  0.00    +0.000 F 
ATOM     14  C   UNL     1       2.789   3.393  18.401  0.00  0.00    +0.000 A 
BRANCH   7  16
ATOM     15  C   UNL     1       1.115   3.135  20.442  0.00  0.00    +0.000 C 
ATOM     16  O   UNL     1       1.133   4.367  19.725  0.00  0.00    +0.000 OA
ENDBRANCH   7  16
ENDBRANCH   1  11
BRANCH   4  17
ATOM     17  S   UNL     1       7.040   4.377  12.618  0.00  0.00    +0.000 S 
BRANCH  17  18
ATOM     18  C   UNL     1       5.714   3.223  12.168  0.00  0.00    +0.000 C 
BRANCH  18  19
ATOM     19  C   UNL     1       6.249   1.951  11.540  0.00  0.00    +0.000 C 
ATOM     20  O   UNL     1       5.593   0.961  11.246  0.00  0.00    +0.000 OA
BRANCH  19  21
ATOM     21  O   UNL     1       7.586   1.998  11.318  0.00  0.00    +0.000 OA
ATOM     22  H   UNL     1       8.066   1.168  11.507  0.00  0.00    +0.000 HD
ENDBRANCH  19  21
ENDBRANCH  18  19
ENDBRANCH  17  18
ENDBRANCH   4  17
TORSDOF 6
ENDMDL
MODEL 7
REMARK VINA RESULT:      -6.4      4.933      6.527
REMARK  Name = 
REMARK  7 active torsions:
REMARK  status: ('A' for Active; 'I' for Inactive)
REMARK    1  A    between atoms: C_1  and  O_2
REMARK    2  A    between atoms: O_2  and  C_3
REMARK    3  A    between atoms: C_7  and  C_8
REMARK    4  A    between atoms: C_11  and  S_12
REMARK    5  A    between atoms: S_12  and  C_13
REMARK    6  A    between atoms: C_13  and  C_14
REMARK    7  A    between atoms: C_14  and  O_16
REMARK                            x       y       z     vdW  Elec       q    Type
REMARK                         _______ _______ _______ _____ _____    ______ ____
ROOT
ATOM      1  C   UNL     1       5.800   5.029  15.839  0.00  0.00    +0.000 A 
ATOM      2  N   UNL     1       7.024   5.528  15.933  0.00  0.00    +0.000 NA
ATOM      3  N   UNL     1       7.672   5.360  14.729  0.00  0.00    +0.000 NA
ATOM      4  C   UNL     1       6.830   4.770  13.923  0.00  0.00    +0.000 A 
ATOM      5  N   UNL     1       5.664   4.508  14.572  0.00  0.00    +0.000 N 
ATOM      6  H   UNL     1       4.871   4.007  14.198  0.00  0.00    +0.000 HD
ENDROOT
BRANCH   1  11
ATOM      7  C   UNL     1       2.750   4.962  18.876  0.00  0.00    +0.000 A 
ATOM      8  C   UNL     1       3.254   3.778  18.347  0.00  0.00    +0.000 A 
ATOM      9  C   UNL     1       4.243   3.817  17.360  0.00  0.00    +0.000 A 
ATOM     10  F   UNL     1       4.684   2.638  16.895  0.00  0.00    +0.000 F 
ATOM     11  C   UNL     1       4.762   5.021  16.869  0.00  0.00    +0.000 A 
ATOM     12  C   UNL     1       4.245   6.196  17.422  0.00  0.00    +0.000 A 
ATOM     13  F   UNL     1       4.700   7.393  17.014  0.00  0.00    +0.000 F 
ATOM     14  C   UNL     1       3.255   6.176  18.409  0.00  0.00    +0.000 A 
BRANCH   7  16
ATOM     15  C   UNL     1       0.977   3.911  20.060  0.00  0.00    +0.000 C 
ATOM     16  O   UNL     1       1.786   5.063  19.839  0.00  0.00    +0.000 OA
ENDBRANCH   7  16
ENDBRANCH   1  11
BRANCH   4  17
ATOM     17  S   UNL     1       7.056   4.373  12.265  0.00  0.00    +0.000 S 
BRANCH  17  18
ATOM     18  C   UNL     1       5.966   2.932  12.112  0.00  0.00    +0.000 C 
BRANCH  18  19
ATOM     19  C   UNL     1       6.639   1.774  11.402  0.00  0.00    +0.000 C 
ATOM     20  O   UNL     1       7.749   1.791  10.887  0.00  0.00    +0.000 OA
BRANCH  19  21
ATOM     21  O   UNL     1       5.872   0.655  11.380  0.00  0.00    +0.000 OA
ATOM     22  H   UNL     1       5.055   0.724  10.849  0.00  0.00    +0.000 HD
ENDBRANCH  19  21
ENDBRANCH  18  19
ENDBRANCH  17  18
ENDBRANCH   4  17
TORSDOF 6
ENDMDL
MODEL 8
REMARK VINA RESULT:      -6.4      4.084      6.012
REMARK  Name = 
REMARK  7 active torsions:
REMARK  status: ('A' for Active; 'I' for Inactive)
REMARK    1  A    between atoms: C_1  and  O_2
REMARK    2  A    between atoms: O_2  and  C_3
REMARK    3  A    between atoms: C_7  and  C_8
REMARK    4  A    between atoms: C_11  and  S_12
REMARK    5  A    between atoms: S_12  and  C_13
REMARK    6  A    between atoms: C_13  and  C_14
REMARK    7  A    between atoms: C_14  and  O_16
REMARK                            x       y       z     vdW  Elec       q    Type
REMARK                         _______ _______ _______ _____ _____    ______ ____
ROOT
ATOM      1  C   UNL     1       5.681   4.350  17.779  0.00  0.00    +0.000 A 
ATOM      2  N   UNL     1       6.967   4.521  18.044  0.00  0.00    +0.000 NA
ATOM      3  N   UNL     1       7.663   4.612  16.858  0.00  0.00    +0.000 NA
ATOM      4  C   UNL     1       6.788   4.503  15.894  0.00  0.00    +0.000 A 
ATOM      5  N   UNL     1       5.545   4.302  16.409  0.00  0.00    +0.000 N 
ATOM      6  H   UNL     1       4.701   4.128  15.883  0.00  0.00    +0.000 HD
ENDROOT
BRANCH   1  11
ATOM      7  C   UNL     1       2.436   4.049  20.592  0.00  0.00    +0.000 A 
ATOM      8  C   UNL     1       2.739   5.262  19.981  0.00  0.00    +0.000 A 
ATOM      9  C   UNL     1       3.797   5.344  19.072  0.00  0.00    +0.000 A 
ATOM     10  F   UNL     1       4.033   6.544  18.519  0.00  0.00    +0.000 F 
ATOM     11  C   UNL     1       4.583   4.234  18.738  0.00  0.00    +0.000 A 
ATOM     12  C   UNL     1       4.254   3.026  19.360  0.00  0.00    +0.000 A 
ATOM     13  F   UNL     1       4.952   1.912  19.083  0.00  0.00    +0.000 F 
ATOM     14  C   UNL     1       3.200   2.927  20.273  0.00  0.00    +0.000 A 
BRANCH   7  16
ATOM     15  C   UNL     1       1.320   2.518  22.029  0.00  0.00    +0.000 C 
ATOM     16  O   UNL     1       1.435   3.836  21.497  0.00  0.00    +0.000 OA
ENDBRANCH   7  16
ENDBRANCH   1  11
BRANCH   4  17
ATOM     17  S   UNL     1       7.062   4.619  14.201  0.00  0.00    +0.000 S 
BRANCH  17  18
ATOM     18  C   UNL     1       5.466   4.041  13.561  0.00  0.00    +0.000 C 
BRANCH  18  19
ATOM     19  C   UNL     1       5.611   3.265  12.267  0.00  0.00    +0.000 C 
ATOM     20  O   UNL     1       4.713   2.997  11.482  0.00  0.00    +0.000 OA
BRANCH  19  21
ATOM     21  O   UNL     1       6.888   2.868  12.035  0.00  0.00    +0.000 OA
ATOM     22  H   UNL     1       7.430   2.730  12.837  0.00  0.00    +0.000 HD
ENDBRANCH  19  21
ENDBRANCH  18  19
ENDBRANCH  17  18
ENDBRANCH   4  17
TORSDOF 6
ENDMDL
MODEL 9
REMARK VINA RESULT:      -6.4      4.163      5.937
REMARK  Name = 
REMARK  7 active torsions:
REMARK  status: ('A' for Active; 'I' for Inactive)
REMARK    1  A    between atoms: C_1  and  O_2
REMARK    2  A    between atoms: O_2  and  C_3
REMARK    3  A    between atoms: C_7  and  C_8
REMARK    4  A    between atoms: C_11  and  S_12
REMARK    5  A    between atoms: S_12  and  C_13
REMARK    6  A    between atoms: C_13  and  C_14
REMARK    7  A    between atoms: C_14  and  O_16
REMARK                            x       y       z     vdW  Elec       q    Type
REMARK                         _______ _______ _______ _____ _____    ______ ____
ROOT
ATOM      1  C   UNL     1       3.439   5.998  17.989  0.00  0.00    +0.000 A 
ATOM      2  N   UNL     1       3.097   4.775  17.613  0.00  0.00    +0.000 NA
ATOM      3  N   UNL     1       4.138   4.214  16.906  0.00  0.00    +0.000 NA
ATOM      4  C   UNL     1       5.096   5.102  16.871  0.00  0.00    +0.000 A 
ATOM      5  N   UNL     1       4.701   6.243  17.497  0.00  0.00    +0.000 N 
ATOM      6  H   UNL     1       5.227   7.103  17.561  0.00  0.00    +0.000 HD
ENDROOT
BRANCH   1  11
ATOM      7  C   UNL     1       1.115   8.739  20.360  0.00  0.00    +0.000 A 
ATOM      8  C   UNL     1       1.496   7.502  20.871  0.00  0.00    +0.000 A 
ATOM      9  C   UNL     1       2.248   6.622  20.087  0.00  0.00    +0.000 A 
ATOM     10  F   UNL     1       2.582   5.447  20.642  0.00  0.00    +0.000 F 
ATOM     11  C   UNL     1       2.647   6.938  18.783  0.00  0.00    +0.000 A 
ATOM     12  C   UNL     1       2.258   8.189  18.296  0.00  0.00    +0.000 A 
ATOM     13  F   UNL     1       2.612   8.572  17.057  0.00  0.00    +0.000 F 
ATOM     14  C   UNL     1       1.505   9.080  19.065  0.00  0.00    +0.000 A 
BRANCH   7  16
ATOM     15  C   UNL     1       0.141  10.908  20.325  0.00  0.00    +0.000 C 
ATOM     16  O   UNL     1       0.381   9.685  21.017  0.00  0.00    +0.000 OA
ENDBRANCH   7  16
ENDBRANCH   1  11
BRANCH   4  17
ATOM     17  S   UNL     1       6.667   4.935  16.191  0.00  0.00    +0.000 S 
BRANCH  17  18
ATOM     18  C   UNL     1       7.639   4.570  17.678  0.00  0.00    +0.000 C 
BRANCH  18  19
ATOM     19  C   UNL     1       7.441   5.608  18.765  0.00  0.00    +0.000 C 
ATOM     20  O   UNL     1       6.986   5.406  19.882  0.00  0.00    +0.000 OA
BRANCH  19  21
ATOM     21  O   UNL     1       7.828   6.850  18.379  0.00  0.00    +0.000 OA
ATOM     22  H   UNL     1       8.126   6.920  17.451  0.00  0.00    +0.000 HD
ENDBRANCH  19  21
ENDBRANCH  18  19
ENDBRANCH  17  18
ENDBRANCH   4  17
TORSDOF 6
ENDMDL
