MODEL 1
REMARK VINA RESULT:      -7.8      0.000      0.000
REMARK  Name = 
REMARK  9 active torsions:
REMARK  status: ('A' for Active; 'I' for Inactive)
REMARK    1  A    between atoms: N_1  and  C_2
REMARK    2  A    between atoms: C_2  and  C_3
REMARK    3  A    between atoms: C_2  and  C_10
REMARK    4  A    between atoms: C_3  and  C_4
REMARK    5  A    between atoms: C_10  and  O_12
REMARK    6  A    between atoms: O_12  and  C_13
REMARK    7  A    between atoms: C_16  and  C_17
REMARK    8  A    between atoms: C_20  and  O_21
REMARK    9  A    between atoms: C_23  and  O_24
REMARK                            x       y       z     vdW  Elec       q    Type
REMARK                         _______ _______ _______ _____ _____    ______ ____
ROOT
ATOM      1  C   UNL     1       2.947   7.282  18.534  0.00  0.00    +0.000 C 
ATOM      2  C   UNL     1       2.005   8.238  17.793  0.00  0.00    +0.000 C 
ATOM      3  C   UNL     1       1.453   9.327  18.712  0.00  0.00    +0.000 C 
ATOM      4  C   UNL     1       0.810   8.748  19.990  0.00  0.00    +0.000 C 
ATOM      5  C   UNL     1       1.780   7.804  20.725  0.00  0.00    +0.000 C 
ATOM      6  C   UNL     1       2.303   6.697  19.797  0.00  0.00    +0.000 C 
ENDROOT
BRANCH   4   7
ATOM      7  C   UNL     1       0.223   9.847  20.872  0.00  0.00    +0.000 A 
ATOM      8  C   UNL     1       0.453  11.192  20.526  0.00  0.00    +0.000 A 
ATOM      9  C   UNL     1       0.028  12.241  21.348  0.00  0.00    +0.000 A 
ATOM     10  C   UNL     1      -0.644  11.953  22.530  0.00  0.00    +0.000 A 
ATOM     11  C   UNL     1      -0.920  10.638  22.879  0.00  0.00    +0.000 A 
ATOM     12  C   UNL     1      -0.497   9.597  22.053  0.00  0.00    +0.000 A 
BRANCH  10  13
ATOM     13  O   UNL     1      -1.045  12.939  23.382  0.00  0.00    +0.000 OA
ATOM     14  H   UNL     1      -0.452  12.946  24.152  0.00  0.00    +0.000 HD
ENDBRANCH  10  13
BRANCH  12  15
ATOM     15  O   UNL     1      -0.779   8.307  22.408  0.00  0.00    +0.000 OA
ATOM     16  H   UNL     1      -0.237   8.075  23.180  0.00  0.00    +0.000 HD
ENDBRANCH  12  15
ENDBRANCH   4   7
BRANCH   1  17
ATOM     17  O   UNL     1       3.531   6.287  17.648  0.00  0.00    +0.000 OA
BRANCH  17  18
ATOM     18  C   UNL     1       4.862   6.018  17.692  0.00  0.00    +0.000 C 
ATOM     19  O   UNL     1       5.745   6.796  17.339  0.00  0.00    +0.000 OA
BRANCH  18  20
ATOM     20  C   UNL     1       5.168   4.649  18.353  0.00  0.00    +0.000 C 
BRANCH  20  21
ATOM     21  N   UNL     1       6.567   4.257  18.022  0.00  0.00    +0.000 NA
ATOM     22  H   UNL     1       6.948   3.748  18.824  0.00  0.00    +0.000 HD
ATOM     23  H   UNL     1       7.139   5.097  17.942  0.00  0.00    +0.000 HD
ENDBRANCH  20  21
BRANCH  20  24
ATOM     24  C   UNL     1       4.173   3.536  17.962  0.00  0.00    +0.000 C 
BRANCH  24  25
ATOM     25  C   UNL     1       3.112   3.247  19.013  0.00  0.00    +0.000 A 
ATOM     26  C   UNL     1       1.750   3.201  18.674  0.00  0.00    +0.000 A 
ATOM     27  C   UNL     1       0.778   2.990  19.655  0.00  0.00    +0.000 A 
ATOM     28  C   UNL     1       1.151   2.811  20.986  0.00  0.00    +0.000 A 
ATOM     29  C   UNL     1       2.500   2.831  21.333  0.00  0.00    +0.000 A 
ATOM     30  C   UNL     1       3.474   3.043  20.353  0.00  0.00    +0.000 A 
ENDBRANCH  24  25
ENDBRANCH  20  24
ENDBRANCH  18  20
ENDBRANCH  17  18
ENDBRANCH   1  17
TORSDOF 9
ENDMDL
MODEL 2
REMARK VINA RESULT:      -7.6      1.035      1.755
REMARK  Name = 
REMARK  9 active torsions:
REMARK  status: ('A' for Active; 'I' for Inactive)
REMARK    1  A    between atoms: N_1  and  C_2
REMARK    2  A    between atoms: C_2  and  C_3
REMARK    3  A    between atoms: C_2  and  C_10
REMARK    4  A    between atoms: C_3  and  C_4
REMARK    5  A    between atoms: C_10  and  O_12
REMARK    6  A    between atoms: O_12  and  C_13
REMARK    7  A    between atoms: C_16  and  C_17
REMARK    8  A    between atoms: C_20  and  O_21
REMARK    9  A    between atoms: C_23  and  O_24
REMARK                            x       y       z     vdW  Elec       q    Type
REMARK                         _______ _______ _______ _____ _____    ______ ____
ROOT
ATOM      1  C   UNL     1       2.459   6.742  18.187  0.00  0.00    +0.000 C 
ATOM      2  C   UNL     1       2.722   6.534  19.683  0.00  0.00    +0.000 C 
ATOM      3  C   UNL     1       1.776   7.362  20.552  0.00  0.00    +0.000 C 
ATOM      4  C   UNL     1       1.773   8.854  20.162  0.00  0.00    +0.000 C 
ATOM      5  C   UNL     1       1.492   9.039  18.660  0.00  0.00    +0.000 C 
ATOM      6  C   UNL     1       2.469   8.226  17.797  0.00  0.00    +0.000 C 
ENDROOT
BRANCH   4   7
ATOM      7  C   UNL     1       0.860   9.672  21.071  0.00  0.00    +0.000 A 
ATOM      8  C   UNL     1       0.166   9.016  22.106  0.00  0.00    +0.000 A 
ATOM      9  C   UNL     1      -0.760   9.690  22.908  0.00  0.00    +0.000 A 
ATOM     10  C   UNL     1      -1.000  11.041  22.684  0.00  0.00    +0.000 A 
ATOM     11  C   UNL     1      -0.304  11.725  21.697  0.00  0.00    +0.000 A 
ATOM     12  C   UNL     1       0.622  11.047  20.905  0.00  0.00    +0.000 A 
BRANCH  10  13
ATOM     13  O   UNL     1      -1.922  11.733  23.414  0.00  0.00    +0.000 OA
ATOM     14  H   UNL     1      -2.511  12.207  22.804  0.00  0.00    +0.000 HD
ENDBRANCH  10  13
BRANCH  12  15
ATOM     15  O   UNL     1       1.303  11.735  19.940  0.00  0.00    +0.000 OA
ATOM     16  H   UNL     1       2.193  11.937  20.276  0.00  0.00    +0.000 HD
ENDBRANCH  12  15
ENDBRANCH   4   7
BRANCH   1  17
ATOM     17  O   UNL     1       3.309   5.903  17.356  0.00  0.00    +0.000 OA
BRANCH  17  18
ATOM     18  C   UNL     1       4.642   5.811  17.599  0.00  0.00    +0.000 C 
ATOM     19  O   UNL     1       5.426   6.756  17.566  0.00  0.00    +0.000 OA
BRANCH  18  20
ATOM     20  C   UNL     1       5.066   4.389  18.047  0.00  0.00    +0.000 C 
BRANCH  20  21
ATOM     21  N   UNL     1       6.350   4.037  17.376  0.00  0.00    +0.000 NA
ATOM     22  H   UNL     1       6.906   3.484  18.035  0.00  0.00    +0.000 HD
ATOM     23  H   UNL     1       6.888   4.887  17.219  0.00  0.00    +0.000 HD
ENDBRANCH  20  21
BRANCH  20  24
ATOM     24  C   UNL     1       3.991   3.311  17.787  0.00  0.00    +0.000 C 
BRANCH  24  25
ATOM     25  C   UNL     1       3.025   3.100  18.941  0.00  0.00    +0.000 A 
ATOM     26  C   UNL     1       1.636   3.117  18.736  0.00  0.00    +0.000 A 
ATOM     27  C   UNL     1       0.754   2.978  19.811  0.00  0.00    +0.000 A 
ATOM     28  C   UNL     1       1.245   2.807  21.104  0.00  0.00    +0.000 A 
ATOM     29  C   UNL     1       2.621   2.765  21.320  0.00  0.00    +0.000 A 
ATOM     30  C   UNL     1       3.505   2.905  20.245  0.00  0.00    +0.000 A 
ENDBRANCH  24  25
ENDBRANCH  20  24
ENDBRANCH  18  20
ENDBRANCH  17  18
ENDBRANCH   1  17
TORSDOF 9
ENDMDL
MODEL 3
REMARK VINA RESULT:      -7.6      1.751      2.393
REMARK  Name = 
REMARK  9 active torsions:
REMARK  status: ('A' for Active; 'I' for Inactive)
REMARK    1  A    between atoms: N_1  and  C_2
REMARK    2  A    between atoms: C_2  and  C_3
REMARK    3  A    between atoms: C_2  and  C_10
REMARK    4  A    between atoms: C_3  and  C_4
REMARK    5  A    between atoms: C_10  and  O_12
REMARK    6  A    between atoms: O_12  and  C_13
REMARK    7  A    between atoms: C_16  and  C_17
REMARK    8  A    between atoms: C_20  and  O_21
REMARK    9  A    between atoms: C_23  and  O_24
REMARK                            x       y       z     vdW  Elec       q    Type
REMARK                         _______ _______ _______ _____ _____    ______ ____
ROOT
ATOM      1  C   UNL     1       3.034   6.835  18.445  0.00  0.00    +0.000 C 
ATOM      2  C   UNL     1       2.546   7.042  19.883  0.00  0.00    +0.000 C 
ATOM      3  C   UNL     1       1.277   7.892  19.942  0.00  0.00    +0.000 C 
ATOM      4  C   UNL     1       1.425   9.224  19.179  0.00  0.00    +0.000 C 
ATOM      5  C   UNL     1       1.901   8.990  17.733  0.00  0.00    +0.000 C 
ATOM      6  C   UNL     1       3.194   8.161  17.690  0.00  0.00    +0.000 C 
ENDROOT
BRANCH   4   7
ATOM      7  C   UNL     1       0.166  10.079  19.289  0.00  0.00    +0.000 A 
ATOM      8  C   UNL     1      -0.794  10.010  18.261  0.00  0.00    +0.000 A 
ATOM      9  C   UNL     1      -1.919  10.841  18.255  0.00  0.00    +0.000 A 
ATOM     10  C   UNL     1      -2.100  11.753  19.288  0.00  0.00    +0.000 A 
ATOM     11  C   UNL     1      -1.192  11.818  20.336  0.00  0.00    +0.000 A 
ATOM     12  C   UNL     1      -0.074  10.982  20.338  0.00  0.00    +0.000 A 
BRANCH  10  13
ATOM     13  O   UNL     1      -3.161  12.611  19.307  0.00  0.00    +0.000 OA
ATOM     14  H   UNL     1      -3.615  12.563  18.449  0.00  0.00    +0.000 HD
ENDBRANCH  10  13
BRANCH  12  15
ATOM     15  O   UNL     1       0.810  11.055  21.378  0.00  0.00    +0.000 OA
ATOM     16  H   UNL     1       1.505  10.390  21.237  0.00  0.00    +0.000 HD
ENDBRANCH  12  15
ENDBRANCH   4   7
BRANCH   1  17
ATOM     17  O   UNL     1       4.200   5.968  18.377  0.00  0.00    +0.000 OA
BRANCH  17  18
ATOM     18  C   UNL     1       4.540   5.355  17.213  0.00  0.00    +0.000 C 
ATOM     19  O   UNL     1       4.779   5.938  16.159  0.00  0.00    +0.000 OA
BRANCH  18  20
ATOM     20  C   UNL     1       4.714   3.823  17.379  0.00  0.00    +0.000 C 
BRANCH  20  21
ATOM     21  N   UNL     1       5.573   3.314  16.273  0.00  0.00    +0.000 NA
ATOM     22  H   UNL     1       5.836   4.112  15.689  0.00  0.00    +0.000 HD
ATOM     23  H   UNL     1       5.017   2.711  15.669  0.00  0.00    +0.000 HD
ENDBRANCH  20  21
BRANCH  20  24
ATOM     24  C   UNL     1       3.378   3.051  17.445  0.00  0.00    +0.000 C 
BRANCH  24  25
ATOM     25  C   UNL     1       2.682   3.118  18.794  0.00  0.00    +0.000 A 
ATOM     26  C   UNL     1       3.343   2.729  19.971  0.00  0.00    +0.000 A 
ATOM     27  C   UNL     1       2.678   2.741  21.200  0.00  0.00    +0.000 A 
ATOM     28  C   UNL     1       1.349   3.152  21.275  0.00  0.00    +0.000 A 
ATOM     29  C   UNL     1       0.687   3.563  20.119  0.00  0.00    +0.000 A 
ATOM     30  C   UNL     1       1.351   3.550  18.889  0.00  0.00    +0.000 A 
ENDBRANCH  24  25
ENDBRANCH  20  24
ENDBRANCH  18  20
ENDBRANCH  17  18
ENDBRANCH   1  17
TORSDOF 9
ENDMDL
MODEL 4
REMARK VINA RESULT:      -7.5      0.925      1.371
REMARK  Name = 
REMARK  9 active torsions:
REMARK  status: ('A' for Active; 'I' for Inactive)
REMARK    1  A    between atoms: N_1  and  C_2
REMARK    2  A    between atoms: C_2  and  C_3
REMARK    3  A    between atoms: C_2  and  C_10
REMARK    4  A    between atoms: C_3  and  C_4
REMARK    5  A    between atoms: C_10  and  O_12
REMARK    6  A    between atoms: O_12  and  C_13
REMARK    7  A    between atoms: C_16  and  C_17
REMARK    8  A    between atoms: C_20  and  O_21
REMARK    9  A    between atoms: C_23  and  O_24
REMARK                            x       y       z     vdW  Elec       q    Type
REMARK                         _______ _______ _______ _____ _____    ______ ____
ROOT
ATOM      1  C   UNL     1       2.625   6.706  18.066  0.00  0.00    +0.000 C 
ATOM      2  C   UNL     1       2.631   6.583  19.594  0.00  0.00    +0.000 C 
ATOM      3  C   UNL     1       1.559   7.458  20.244  0.00  0.00    +0.000 C 
ATOM      4  C   UNL     1       1.636   8.926  19.777  0.00  0.00    +0.000 C 
ATOM      5  C   UNL     1       1.613   9.026  18.240  0.00  0.00    +0.000 C 
ATOM      6  C   UNL     1       2.714   8.165  17.601  0.00  0.00    +0.000 C 
ENDROOT
BRANCH   4   7
ATOM      7  C   UNL     1       0.590   9.794  20.472  0.00  0.00    +0.000 A 
ATOM      8  C   UNL     1      -0.414  10.403  19.694  0.00  0.00    +0.000 A 
ATOM      9  C   UNL     1      -1.339  11.287  20.257  0.00  0.00    +0.000 A 
ATOM     10  C   UNL     1      -1.273  11.569  21.617  0.00  0.00    +0.000 A 
ATOM     11  C   UNL     1      -0.320  10.955  22.417  0.00  0.00    +0.000 A 
ATOM     12  C   UNL     1       0.597  10.070  21.850  0.00  0.00    +0.000 A 
BRANCH  10  13
ATOM     13  O   UNL     1      -2.129  12.454  22.205  0.00  0.00    +0.000 OA
ATOM     14  H   UNL     1      -1.963  13.338  21.839  0.00  0.00    +0.000 HD
ENDBRANCH  10  13
BRANCH  12  15
ATOM     15  O   UNL     1       1.527   9.469  22.651  0.00  0.00    +0.000 OA
ATOM     16  H   UNL     1       2.254   9.147  22.090  0.00  0.00    +0.000 HD
ENDBRANCH  12  15
ENDBRANCH   4   7
BRANCH   1  17
ATOM     17  O   UNL     1       3.594   5.822  17.437  0.00  0.00    +0.000 OA
BRANCH  17  18
ATOM     18  C   UNL     1       4.885   5.798  17.859  0.00  0.00    +0.000 C 
ATOM     19  O   UNL     1       5.655   6.754  17.808  0.00  0.00    +0.000 OA
BRANCH  18  20
ATOM     20  C   UNL     1       5.264   4.454  18.533  0.00  0.00    +0.000 C 
BRANCH  20  21
ATOM     21  N   UNL     1       6.668   4.112  18.169  0.00  0.00    +0.000 NA
ATOM     22  H   UNL     1       7.290   4.673  18.758  0.00  0.00    +0.000 HD
ATOM     23  H   UNL     1       6.850   4.423  17.216  0.00  0.00    +0.000 HD
ENDBRANCH  20  21
BRANCH  20  24
ATOM     24  C   UNL     1       4.304   3.296  18.188  0.00  0.00    +0.000 C 
BRANCH  24  25
ATOM     25  C   UNL     1       3.177   3.098  19.189  0.00  0.00    +0.000 A 
ATOM     26  C   UNL     1       1.833   3.106  18.779  0.00  0.00    +0.000 A 
ATOM     27  C   UNL     1       0.802   2.980  19.713  0.00  0.00    +0.000 A 
ATOM     28  C   UNL     1       1.095   2.830  21.067  0.00  0.00    +0.000 A 
ATOM     29  C   UNL     1       2.424   2.796  21.486  0.00  0.00    +0.000 A 
ATOM     30  C   UNL     1       3.457   2.924  20.553  0.00  0.00    +0.000 A 
ENDBRANCH  24  25
ENDBRANCH  20  24
ENDBRANCH  18  20
ENDBRANCH  17  18
ENDBRANCH   1  17
TORSDOF 9
ENDMDL
MODEL 5
REMARK VINA RESULT:      -7.4      0.488      1.043
REMARK  Name = 
REMARK  9 active torsions:
REMARK  status: ('A' for Active; 'I' for Inactive)
REMARK    1  A    between atoms: N_1  and  C_2
REMARK    2  A    between atoms: C_2  and  C_3
REMARK    3  A    between atoms: C_2  and  C_10
REMARK    4  A    between atoms: C_3  and  C_4
REMARK    5  A    between atoms: C_10  and  O_12
REMARK    6  A    between atoms: O_12  and  C_13
REMARK    7  A    between atoms: C_16  and  C_17
REMARK    8  A    between atoms: C_20  and  O_21
REMARK    9  A    between atoms: C_23  and  O_24
REMARK                            x       y       z     vdW  Elec       q    Type
REMARK                         _______ _______ _______ _____ _____    ______ ____
ROOT
ATOM      1  C   UNL     1       2.841   7.512  18.597  0.00  0.00    +0.000 C 
ATOM      2  C   UNL     1       1.885   8.463  17.869  0.00  0.00    +0.000 C 
ATOM      3  C   UNL     1       1.327   9.538  18.801  0.00  0.00    +0.000 C 
ATOM      4  C   UNL     1       0.698   8.942  20.077  0.00  0.00    +0.000 C 
ATOM      5  C   UNL     1       1.682   8.003  20.799  0.00  0.00    +0.000 C 
ATOM      6  C   UNL     1       2.212   6.909  19.859  0.00  0.00    +0.000 C 
ENDROOT
BRANCH   4   7
ATOM      7  C   UNL     1       0.104  10.027  20.972  0.00  0.00    +0.000 A 
ATOM      8  C   UNL     1       0.304  11.378  20.627  0.00  0.00    +0.000 A 
ATOM      9  C   UNL     1      -0.129  12.416  21.458  0.00  0.00    +0.000 A 
ATOM     10  C   UNL     1      -0.776  12.112  22.649  0.00  0.00    +0.000 A 
ATOM     11  C   UNL     1      -1.022  10.791  22.999  0.00  0.00    +0.000 A 
ATOM     12  C   UNL     1      -0.592   9.761  22.163  0.00  0.00    +0.000 A 
BRANCH  10  13
ATOM     13  O   UNL     1      -1.183  13.088  23.511  0.00  0.00    +0.000 OA
ATOM     14  H   UNL     1      -0.831  12.890  24.395  0.00  0.00    +0.000 HD
ENDBRANCH  10  13
BRANCH  12  15
ATOM     15  O   UNL     1      -0.846   8.465  22.518  0.00  0.00    +0.000 OA
ATOM     16  H   UNL     1      -0.046   8.097  22.931  0.00  0.00    +0.000 HD
ENDBRANCH  12  15
ENDBRANCH   4   7
BRANCH   1  17
ATOM     17  O   UNL     1       3.431   6.530  17.699  0.00  0.00    +0.000 OA
BRANCH  17  18
ATOM     18  C   UNL     1       4.758   6.243  17.763  0.00  0.00    +0.000 C 
ATOM     19  O   UNL     1       5.631   6.828  17.127  0.00  0.00    +0.000 OA
BRANCH  18  20
ATOM     20  C   UNL     1       5.079   5.162  18.827  0.00  0.00    +0.000 C 
BRANCH  20  21
ATOM     21  N   UNL     1       6.552   5.134  19.054  0.00  0.00    +0.000 NA
ATOM     22  H   UNL     1       6.714   4.850  20.024  0.00  0.00    +0.000 HD
ATOM     23  H   UNL     1       6.918   6.083  18.988  0.00  0.00    +0.000 HD
ENDBRANCH  20  21
BRANCH  20  24
ATOM     24  C   UNL     1       4.547   3.759  18.464  0.00  0.00    +0.000 C 
BRANCH  24  25
ATOM     25  C   UNL     1       3.173   3.444  19.032  0.00  0.00    +0.000 A 
ATOM     26  C   UNL     1       2.952   3.409  20.419  0.00  0.00    +0.000 A 
ATOM     27  C   UNL     1       1.699   3.064  20.933  0.00  0.00    +0.000 A 
ATOM     28  C   UNL     1       0.646   2.762  20.072  0.00  0.00    +0.000 A 
ATOM     29  C   UNL     1       0.844   2.816  18.693  0.00  0.00    +0.000 A 
ATOM     30  C   UNL     1       2.097   3.159  18.177  0.00  0.00    +0.000 A 
ENDBRANCH  24  25
ENDBRANCH  20  24
ENDBRANCH  18  20
ENDBRANCH  17  18
ENDBRANCH   1  17
TORSDOF 9
ENDMDL
MODEL 6
REMARK VINA RESULT:      -7.4      1.745      2.182
REMARK  Name = 
REMARK  9 active torsions:
REMARK  status: ('A' for Active; 'I' for Inactive)
REMARK    1  A    between atoms: N_1  and  C_2
REMARK    2  A    between atoms: C_2  and  C_3
REMARK    3  A    between atoms: C_2  and  C_10
REMARK    4  A    between atoms: C_3  and  C_4
REMARK    5  A    between atoms: C_10  and  O_12
REMARK    6  A    between atoms: O_12  and  C_13
REMARK    7  A    between atoms: C_16  and  C_17
REMARK    8  A    between atoms: C_20  and  O_21
REMARK    9  A    between atoms: C_23  and  O_24
REMARK                            x       y       z     vdW  Elec       q    Type
REMARK                         _______ _______ _______ _____ _____    ______ ____
ROOT
ATOM      1  C   UNL     1       2.634   7.100  18.644  0.00  0.00    +0.000 C 
ATOM      2  C   UNL     1       2.228   7.365  20.099  0.00  0.00    +0.000 C 
ATOM      3  C   UNL     1       0.973   8.232  20.195  0.00  0.00    +0.000 C 
ATOM      4  C   UNL     1       1.093   9.534  19.376  0.00  0.00    +0.000 C 
ATOM      5  C   UNL     1       1.486   9.242  17.916  0.00  0.00    +0.000 C 
ATOM      6  C   UNL     1       2.765   8.395  17.833  0.00  0.00    +0.000 C 
ENDROOT
BRANCH   4   7
ATOM      7  C   UNL     1      -0.149  10.408  19.523  0.00  0.00    +0.000 A 
ATOM      8  C   UNL     1      -1.132  10.368  18.515  0.00  0.00    +0.000 A 
ATOM      9  C   UNL     1      -2.243  11.217  18.543  0.00  0.00    +0.000 A 
ATOM     10  C   UNL     1      -2.386  12.119  19.591  0.00  0.00    +0.000 A 
ATOM     11  C   UNL     1      -1.455  12.156  20.619  0.00  0.00    +0.000 A 
ATOM     12  C   UNL     1      -0.352  11.303  20.588  0.00  0.00    +0.000 A 
BRANCH  10  13
ATOM     13  O   UNL     1      -3.432  12.994  19.642  0.00  0.00    +0.000 OA
ATOM     14  H   UNL     1      -4.093  12.728  18.981  0.00  0.00    +0.000 HD
ENDBRANCH  10  13
BRANCH  12  15
ATOM     15  O   UNL     1       0.555  11.348  21.610  0.00  0.00    +0.000 OA
ATOM     16  H   UNL     1       0.590  12.258  21.950  0.00  0.00    +0.000 HD
ENDBRANCH  12  15
ENDBRANCH   4   7
BRANCH   1  17
ATOM     17  O   UNL     1       3.785   6.216  18.545  0.00  0.00    +0.000 OA
BRANCH  17  18
ATOM     18  C   UNL     1       4.273   5.849  17.331  0.00  0.00    +0.000 C 
ATOM     19  O   UNL     1       4.639   6.631  16.459  0.00  0.00    +0.000 OA
BRANCH  18  20
ATOM     20  C   UNL     1       4.433   4.312  17.198  0.00  0.00    +0.000 C 
BRANCH  20  21
ATOM     21  N   UNL     1       5.165   4.013  15.935  0.00  0.00    +0.000 NA
ATOM     22  H   UNL     1       4.951   3.048  15.670  0.00  0.00    +0.000 HD
ATOM     23  H   UNL     1       6.167   4.024  16.119  0.00  0.00    +0.000 HD
ENDBRANCH  20  21
BRANCH  20  24
ATOM     24  C   UNL     1       3.097   3.541  17.262  0.00  0.00    +0.000 C 
BRANCH  24  25
ATOM     25  C   UNL     1       2.554   3.346  18.668  0.00  0.00    +0.000 A 
ATOM     26  C   UNL     1       1.233   3.700  18.990  0.00  0.00    +0.000 A 
ATOM     27  C   UNL     1       0.759   3.569  20.298  0.00  0.00    +0.000 A 
ATOM     28  C   UNL     1       1.590   3.072  21.300  0.00  0.00    +0.000 A 
ATOM     29  C   UNL     1       2.896   2.695  20.990  0.00  0.00    +0.000 A 
ATOM     30  C   UNL     1       3.372   2.826  19.683  0.00  0.00    +0.000 A 
ENDBRANCH  24  25
ENDBRANCH  20  24
ENDBRANCH  18  20
ENDBRANCH  17  18
ENDBRANCH   1  17
TORSDOF 9
ENDMDL
MODEL 7
REMARK VINA RESULT:      -7.3      1.144      1.814
REMARK  Name = 
REMARK  9 active torsions:
REMARK  status: ('A' for Active; 'I' for Inactive)
REMARK    1  A    between atoms: N_1  and  C_2
REMARK    2  A    between atoms: C_2  and  C_3
REMARK    3  A    between atoms: C_2  and  C_10
REMARK    4  A    between atoms: C_3  and  C_4
REMARK    5  A    between atoms: C_10  and  O_12
REMARK    6  A    between atoms: O_12  and  C_13
REMARK    7  A    between atoms: C_16  and  C_17
REMARK    8  A    between atoms: C_20  and  O_21
REMARK    9  A    between atoms: C_23  and  O_24
REMARK                            x       y       z     vdW  Elec       q    Type
REMARK                         _______ _______ _______ _____ _____    ______ ____
ROOT
ATOM      1  C   UNL     1       2.847   6.601  17.968  0.00  0.00    +0.000 C 
ATOM      2  C   UNL     1       2.835   6.381  19.485  0.00  0.00    +0.000 C 
ATOM      3  C   UNL     1       1.753   7.210  20.177  0.00  0.00    +0.000 C 
ATOM      4  C   UNL     1       1.829   8.705  19.804  0.00  0.00    +0.000 C 
ATOM      5  C   UNL     1       1.823   8.901  18.277  0.00  0.00    +0.000 C 
ATOM      6  C   UNL     1       2.935   8.086  17.597  0.00  0.00    +0.000 C 
ENDROOT
BRANCH   4   7
ATOM      7  C   UNL     1       0.771   9.523  20.540  0.00  0.00    +0.000 A 
ATOM      8  C   UNL     1      -0.273  10.107  19.799  0.00  0.00    +0.000 A 
ATOM      9  C   UNL     1      -1.215  10.949  20.400  0.00  0.00    +0.000 A 
ATOM     10  C   UNL     1      -1.123  11.212  21.762  0.00  0.00    +0.000 A 
ATOM     11  C   UNL     1      -0.128  10.620  22.527  0.00  0.00    +0.000 A 
ATOM     12  C   UNL     1       0.805   9.778  21.922  0.00  0.00    +0.000 A 
BRANCH  10  13
ATOM     13  O   UNL     1      -1.994  12.056  22.387  0.00  0.00    +0.000 OA
ATOM     14  H   UNL     1      -1.973  11.874  23.341  0.00  0.00    +0.000 HD
ENDBRANCH  10  13
BRANCH  12  15
ATOM     15  O   UNL     1       1.777   9.199  22.689  0.00  0.00    +0.000 OA
ATOM     16  H   UNL     1       1.988   8.328  22.311  0.00  0.00    +0.000 HD
ENDBRANCH  12  15
ENDBRANCH   4   7
BRANCH   1  17
ATOM     17  O   UNL     1       3.827   5.761  17.297  0.00  0.00    +0.000 OA
BRANCH  17  18
ATOM     18  C   UNL     1       4.816   5.153  18.002  0.00  0.00    +0.000 C 
ATOM     19  O   UNL     1       5.523   5.710  18.838  0.00  0.00    +0.000 OA
BRANCH  18  20
ATOM     20  C   UNL     1       4.890   3.629  17.726  0.00  0.00    +0.000 C 
BRANCH  20  21
ATOM     21  N   UNL     1       5.657   3.404  16.468  0.00  0.00    +0.000 NA
ATOM     22  H   UNL     1       5.658   4.282  15.941  0.00  0.00    +0.000 HD
ATOM     23  H   UNL     1       5.151   2.741  15.883  0.00  0.00    +0.000 HD
ENDBRANCH  20  21
BRANCH  20  24
ATOM     24  C   UNL     1       3.508   2.943  17.663  0.00  0.00    +0.000 C 
BRANCH  24  25
ATOM     25  C   UNL     1       2.746   2.948  18.979  0.00  0.00    +0.000 A 
ATOM     26  C   UNL     1       3.404   2.713  20.198  0.00  0.00    +0.000 A 
ATOM     27  C   UNL     1       2.688   2.664  21.396  0.00  0.00    +0.000 A 
ATOM     28  C   UNL     1       1.308   2.860  21.398  0.00  0.00    +0.000 A 
ATOM     29  C   UNL     1       0.646   3.117  20.200  0.00  0.00    +0.000 A 
ATOM     30  C   UNL     1       1.360   3.166  18.999  0.00  0.00    +0.000 A 
ENDBRANCH  24  25
ENDBRANCH  20  24
ENDBRANCH  18  20
ENDBRANCH  17  18
ENDBRANCH   1  17
TORSDOF 9
ENDMDL
MODEL 8
REMARK VINA RESULT:      -7.3      3.649      8.465
REMARK  Name = 
REMARK  9 active torsions:
REMARK  status: ('A' for Active; 'I' for Inactive)
REMARK    1  A    between atoms: N_1  and  C_2
REMARK    2  A    between atoms: C_2  and  C_3
REMARK    3  A    between atoms: C_2  and  C_10
REMARK    4  A    between atoms: C_3  and  C_4
REMARK    5  A    between atoms: C_10  and  O_12
REMARK    6  A    between atoms: O_12  and  C_13
REMARK    7  A    between atoms: C_16  and  C_17
REMARK    8  A    between atoms: C_20  and  O_21
REMARK    9  A    between atoms: C_23  and  O_24
REMARK                            x       y       z     vdW  Elec       q    Type
REMARK                         _______ _______ _______ _____ _____    ______ ____
ROOT
ATOM      1  C   UNL     1       1.351   9.388  19.877  0.00  0.00    +0.000 C 
ATOM      2  C   UNL     1       1.273   7.982  20.482  0.00  0.00    +0.000 C 
ATOM      3  C   UNL     1       2.335   7.048  19.902  0.00  0.00    +0.000 C 
ATOM      4  C   UNL     1       2.316   7.022  18.360  0.00  0.00    +0.000 C 
ATOM      5  C   UNL     1       2.411   8.443  17.775  0.00  0.00    +0.000 C 
ATOM      6  C   UNL     1       1.319   9.363  18.344  0.00  0.00    +0.000 C 
ENDROOT
BRANCH   4   7
ATOM      7  C   UNL     1       3.351   6.049  17.800  0.00  0.00    +0.000 A 
ATOM      8  C   UNL     1       4.555   6.562  17.282  0.00  0.00    +0.000 A 
ATOM      9  C   UNL     1       5.498   5.732  16.666  0.00  0.00    +0.000 A 
ATOM     10  C   UNL     1       5.245   4.369  16.567  0.00  0.00    +0.000 A 
ATOM     11  C   UNL     1       4.085   3.828  17.102  0.00  0.00    +0.000 A 
ATOM     12  C   UNL     1       3.152   4.660  17.720  0.00  0.00    +0.000 A 
BRANCH  10  13
ATOM     13  O   UNL     1       6.116   3.525  15.941  0.00  0.00    +0.000 OA
ATOM     14  H   UNL     1       7.023   3.826  16.118  0.00  0.00    +0.000 HD
ENDBRANCH  10  13
BRANCH  12  15
ATOM     15  O   UNL     1       2.015   4.113  18.246  0.00  0.00    +0.000 OA
ATOM     16  H   UNL     1       1.353   4.040  17.539  0.00  0.00    +0.000 HD
ENDBRANCH  12  15
ENDBRANCH   4   7
BRANCH   1  17
ATOM     17  O   UNL     1       0.390  10.301  20.477  0.00  0.00    +0.000 OA
BRANCH  17  18
ATOM     18  C   UNL     1       0.604  11.642  20.458  0.00  0.00    +0.000 C 
ATOM     19  O   UNL     1       1.506  12.215  21.064  0.00  0.00    +0.000 OA
BRANCH  18  20
ATOM     20  C   UNL     1      -0.350  12.380  19.484  0.00  0.00    +0.000 C 
BRANCH  20  21
ATOM     21  N   UNL     1      -0.132  13.849  19.618  0.00  0.00    +0.000 NA
ATOM     22  H   UNL     1      -0.901  14.230  20.175  0.00  0.00    +0.000 HD
ATOM     23  H   UNL     1      -0.223  14.285  18.702  0.00  0.00    +0.000 HD
ENDBRANCH  20  21
BRANCH  20  24
ATOM     24  C   UNL     1      -1.837  12.020  19.681  0.00  0.00    +0.000 C 
BRANCH  24  25
ATOM     25  C   UNL     1      -2.504  11.420  18.454  0.00  0.00    +0.000 A 
ATOM     26  C   UNL     1      -1.784  10.608  17.561  0.00  0.00    +0.000 A 
ATOM     27  C   UNL     1      -2.390  10.107  16.406  0.00  0.00    +0.000 A 
ATOM     28  C   UNL     1      -3.725  10.397  16.131  0.00  0.00    +0.000 A 
ATOM     29  C   UNL     1      -4.458  11.181  17.019  0.00  0.00    +0.000 A 
ATOM     30  C   UNL     1      -3.854  11.685  18.174  0.00  0.00    +0.000 A 
ENDBRANCH  24  25
ENDBRANCH  20  24
ENDBRANCH  18  20
ENDBRANCH  17  18
ENDBRANCH   1  17
TORSDOF 9
ENDMDL
MODEL 9
REMARK VINA RESULT:      -7.2      2.992      4.753
REMARK  Name = 
REMARK  9 active torsions:
REMARK  status: ('A' for Active; 'I' for Inactive)
REMARK    1  A    between atoms: N_1  and  C_2
REMARK    2  A    between atoms: C_2  and  C_3
REMARK    3  A    between atoms: C_2  and  C_10
REMARK    4  A    between atoms: C_3  and  C_4
REMARK    5  A    between atoms: C_10  and  O_12
REMARK    6  A    between atoms: O_12  and  C_13
REMARK    7  A    between atoms: C_16  and  C_17
REMARK    8  A    between atoms: C_20  and  O_21
REMARK    9  A    between atoms: C_23  and  O_24
REMARK                            x       y       z     vdW  Elec       q    Type
REMARK                         _______ _______ _______ _____ _____    ______ ____
ROOT
ATOM      1  C   UNL     1       2.988   6.461  18.549  0.00  0.00    +0.000 C 
ATOM      2  C   UNL     1       2.586   6.812  19.986  0.00  0.00    +0.000 C 
ATOM      3  C   UNL     1       1.395   7.769  20.031  0.00  0.00    +0.000 C 
ATOM      4  C   UNL     1       1.616   9.025  19.163  0.00  0.00    +0.000 C 
ATOM      5  C   UNL     1       2.003   8.647  17.721  0.00  0.00    +0.000 C 
ATOM      6  C   UNL     1       3.220   7.710  17.689  0.00  0.00    +0.000 C 
ENDROOT
BRANCH   4   7
ATOM      7  C   UNL     1       0.437   9.989  19.258  0.00  0.00    +0.000 A 
ATOM      8  C   UNL     1      -0.520   9.997  18.225  0.00  0.00    +0.000 A 
ATOM      9  C   UNL     1      -1.567  10.924  18.204  0.00  0.00    +0.000 A 
ATOM     10  C   UNL     1      -1.671  11.857  19.229  0.00  0.00    +0.000 A 
ATOM     11  C   UNL     1      -0.766  11.851  20.281  0.00  0.00    +0.000 A 
ATOM     12  C   UNL     1       0.272  10.920  20.298  0.00  0.00    +0.000 A 
BRANCH  10  13
ATOM     13  O   UNL     1      -2.651  12.806  19.234  0.00  0.00    +0.000 OA
ATOM     14  H   UNL     1      -3.478  12.399  19.542  0.00  0.00    +0.000 HD
ENDBRANCH  10  13
BRANCH  12  15
ATOM     15  O   UNL     1       1.154  10.923  21.343  0.00  0.00    +0.000 OA
ATOM     16  H   UNL     1       0.692  11.251  22.133  0.00  0.00    +0.000 HD
ENDBRANCH  12  15
ENDBRANCH   4   7
BRANCH   1  17
ATOM     17  O   UNL     1       4.075   5.495  18.501  0.00  0.00    +0.000 OA
BRANCH  17  18
ATOM     18  C   UNL     1       4.112   4.543  17.533  0.00  0.00    +0.000 C 
ATOM     19  O   UNL     1       3.125   3.987  17.060  0.00  0.00    +0.000 OA
BRANCH  18  20
ATOM     20  C   UNL     1       5.546   4.306  16.990  0.00  0.00    +0.000 C 
BRANCH  20  21
ATOM     21  N   UNL     1       6.476   4.147  18.144  0.00  0.00    +0.000 NA
ATOM     22  H   UNL     1       5.922   4.202  19.003  0.00  0.00    +0.000 HD
ATOM     23  H   UNL     1       7.104   4.949  18.178  0.00  0.00    +0.000 HD
ENDBRANCH  20  21
BRANCH  20  24
ATOM     24  C   UNL     1       6.035   5.411  16.030  0.00  0.00    +0.000 C 
BRANCH  24  25
ATOM     25  C   UNL     1       6.397   4.916  14.639  0.00  0.00    +0.000 A 
ATOM     26  C   UNL     1       7.506   5.436  13.951  0.00  0.00    +0.000 A 
ATOM     27  C   UNL     1       7.799   5.017  12.651  0.00  0.00    +0.000 A 
ATOM     28  C   UNL     1       6.999   4.064  12.023  0.00  0.00    +0.000 A 
ATOM     29  C   UNL     1       5.909   3.522  12.702  0.00  0.00    +0.000 A 
ATOM     30  C   UNL     1       5.614   3.942  14.003  0.00  0.00    +0.000 A 
ENDBRANCH  24  25
ENDBRANCH  20  24
ENDBRANCH  18  20
ENDBRANCH  17  18
ENDBRANCH   1  17
TORSDOF 9
ENDMDL
