MODEL 1
REMARK VINA RESULT:      -9.3      0.000      0.000
REMARK  Name = 
REMARK  4 active torsions:
REMARK  status: ('A' for Active; 'I' for Inactive)
REMARK    1  A    between atoms: C_5  and  C_6
REMARK    2  A    between atoms: N_11  and  C_12
REMARK    3  A    between atoms: N_23  and  C_24
REMARK    4  A    between atoms: C_24  and  C_25
REMARK                            x       y       z     vdW  Elec       q    Type
REMARK                         _______ _______ _______ _____ _____    ______ ____
ROOT
ATOM      1  O   UNL     1       2.315   5.022  21.018  0.00  0.00    +0.000 OA
ATOM      2  C   UNL     1       2.504   5.685  20.018  0.00  0.00    +0.000 C 
ATOM      3  C   UNL     1       1.983   7.035  19.806  0.00  0.00    +0.000 A 
ATOM      4  C   UNL     1       1.188   7.779  20.655  0.00  0.00    +0.000 A 
ATOM      5  C   UNL     1       0.840   9.091  20.286  0.00  0.00    +0.000 A 
ATOM      6  C   UNL     1       1.295   9.566  19.027  0.00  0.00    +0.000 A 
ATOM      7  C   UNL     1       2.095   8.781  18.172  0.00  0.00    +0.000 A 
ATOM      8  C   UNL     1       2.436   7.504  18.579  0.00  0.00    +0.000 A 
ATOM      9  C   UNL     1       3.267   6.451  17.916  0.00  0.00    +0.000 C 
ATOM     10  N   UNL     1       3.228   5.367  18.887  0.00  0.00    +0.000 N 
ENDROOT
BRANCH   5  11
ATOM     11  C   UNL     1       0.053   9.942  21.205  0.00  0.00    +0.000 A 
ATOM     12  C   UNL     1      -0.085   9.600  22.541  0.00  0.00    +0.000 A 
ATOM     13  C   UNL     1      -0.870  10.416  23.303  0.00  0.00    +0.000 A 
ATOM     14  N   UNL     1      -1.494  11.485  22.806  0.00  0.00    +0.000 NA
ATOM     15  C   UNL     1      -1.319  11.767  21.505  0.00  0.00    +0.000 A 
ATOM     16  N   UNL     1      -1.981  12.877  20.977  0.00  0.00    +0.000 N 
ATOM     17  N   UNL     1      -0.539  11.043  20.684  0.00  0.00    +0.000 NA
ATOM     18  H   UNL     1      -1.751  13.018  20.005  0.00  0.00    +0.000 HD
BRANCH  16  19
ATOM     19  C   UNL     1      -3.201  13.425  21.419  0.00  0.00    +0.000 A 
ATOM     20  C   UNL     1      -3.207  14.596  22.174  0.00  0.00    +0.000 A 
ATOM     21  C   UNL     1      -4.417  15.067  22.666  0.00  0.00    +0.000 A 
ATOM     22  N   UNL     1      -5.609  14.475  22.441  0.00  0.00    +0.000 NA
ATOM     23  C   UNL     1      -5.586  13.350  21.698  0.00  0.00    +0.000 A 
ATOM     24  C   UNL     1      -4.428  12.799  21.178  0.00  0.00    +0.000 A 
ENDBRANCH  16  19
ENDBRANCH   5  11
BRANCH  10  25
ATOM     25  C   UNL     1       3.913   4.108  18.696  0.00  0.00    +0.000 C 
BRANCH  25  26
ATOM     26  C   UNL     1       5.117   4.201  17.786  0.00  0.00    +0.000 A 
ATOM     27  C   UNL     1       6.361   4.630  18.275  0.00  0.00    +0.000 A 
ATOM     28  C   UNL     1       7.445   4.820  17.413  0.00  0.00    +0.000 A 
ATOM     29  C   UNL     1       7.298   4.586  16.048  0.00  0.00    +0.000 A 
ATOM     30  C   UNL     1       6.072   4.146  15.554  0.00  0.00    +0.000 A 
ATOM     31 CL   UNL     1       5.884   3.868  13.866  0.00  0.00    +0.000 Cl
ATOM     32  C   UNL     1       4.987   3.950  16.412  0.00  0.00    +0.000 A 
ENDBRANCH  25  26
ENDBRANCH  10  25
TORSDOF 4
ENDMDL
MODEL 2
REMARK VINA RESULT:      -9.2      1.006      1.408
REMARK  Name = 
REMARK  4 active torsions:
REMARK  status: ('A' for Active; 'I' for Inactive)
REMARK    1  A    between atoms: C_5  and  C_6
REMARK    2  A    between atoms: N_11  and  C_12
REMARK    3  A    between atoms: N_23  and  C_24
REMARK    4  A    between atoms: C_24  and  C_25
REMARK                            x       y       z     vdW  Elec       q    Type
REMARK                         _______ _______ _______ _____ _____    ______ ____
ROOT
ATOM      1  O   UNL     1       2.500   4.975  20.938  0.00  0.00    +0.000 OA
ATOM      2  C   UNL     1       2.605   5.640  19.926  0.00  0.00    +0.000 C 
ATOM      3  C   UNL     1       2.090   7.000  19.768  0.00  0.00    +0.000 A 
ATOM      4  C   UNL     1       1.394   7.754  20.692  0.00  0.00    +0.000 A 
ATOM      5  C   UNL     1       1.035   9.074  20.360  0.00  0.00    +0.000 A 
ATOM      6  C   UNL     1       1.377   9.546  19.065  0.00  0.00    +0.000 A 
ATOM      7  C   UNL     1       2.077   8.750  18.136  0.00  0.00    +0.000 A 
ATOM      8  C   UNL     1       2.433   7.467  18.505  0.00  0.00    +0.000 A 
ATOM      9  C   UNL     1       3.178   6.402  17.763  0.00  0.00    +0.000 C 
ATOM     10  N   UNL     1       3.211   5.314  18.730  0.00  0.00    +0.000 N 
ENDROOT
BRANCH   5  11
ATOM     11  C   UNL     1       0.355   9.934  21.353  0.00  0.00    +0.000 A 
ATOM     12  C   UNL     1      -0.266   9.380  22.461  0.00  0.00    +0.000 A 
ATOM     13  C   UNL     1      -0.911  10.245  23.296  0.00  0.00    +0.000 A 
ATOM     14  N   UNL     1      -0.966  11.559  23.071  0.00  0.00    +0.000 NA
ATOM     15  C   UNL     1      -0.343  12.036  21.983  0.00  0.00    +0.000 A 
ATOM     16  N   UNL     1      -0.410  13.408  21.734  0.00  0.00    +0.000 N 
ATOM     17  N   UNL     1       0.346  11.269  21.120  0.00  0.00    +0.000 NA
ATOM     18  H   UNL     1       0.121  13.664  20.916  0.00  0.00    +0.000 HD
BRANCH  16  19
ATOM     19  C   UNL     1      -1.444  14.288  22.110  0.00  0.00    +0.000 A 
ATOM     20  C   UNL     1      -2.615  14.352  21.356  0.00  0.00    +0.000 A 
ATOM     21  C   UNL     1      -3.581  15.287  21.703  0.00  0.00    +0.000 A 
ATOM     22  N   UNL     1      -3.476  16.135  22.748  0.00  0.00    +0.000 NA
ATOM     23  C   UNL     1      -2.343  16.051  23.473  0.00  0.00    +0.000 A 
ATOM     24  C   UNL     1      -1.320  15.161  23.196  0.00  0.00    +0.000 A 
ENDBRANCH  16  19
ENDBRANCH   5  11
BRANCH  10  25
ATOM     25  C   UNL     1       3.853   4.044  18.471  0.00  0.00    +0.000 C 
BRANCH  25  26
ATOM     26  C   UNL     1       5.077   4.147  17.589  0.00  0.00    +0.000 A 
ATOM     27  C   UNL     1       6.296   4.621  18.099  0.00  0.00    +0.000 A 
ATOM     28  C   UNL     1       7.396   4.820  17.260  0.00  0.00    +0.000 A 
ATOM     29  C   UNL     1       7.291   4.549  15.897  0.00  0.00    +0.000 A 
ATOM     30  C   UNL     1       6.090   4.066  15.384  0.00  0.00    +0.000 A 
ATOM     31 CL   UNL     1       5.952   3.742  13.699  0.00  0.00    +0.000 Cl
ATOM     32  C   UNL     1       4.989   3.861  16.219  0.00  0.00    +0.000 A 
ENDBRANCH  25  26
ENDBRANCH  10  25
TORSDOF 4
ENDMDL
MODEL 3
REMARK VINA RESULT:      -8.9      3.449     10.917
REMARK  Name = 
REMARK  4 active torsions:
REMARK  status: ('A' for Active; 'I' for Inactive)
REMARK    1  A    between atoms: C_5  and  C_6
REMARK    2  A    between atoms: N_11  and  C_12
REMARK    3  A    between atoms: N_23  and  C_24
REMARK    4  A    between atoms: C_24  and  C_25
REMARK                            x       y       z     vdW  Elec       q    Type
REMARK                         _______ _______ _______ _____ _____    ______ ____
ROOT
ATOM      1  O   UNL     1      -1.349  11.221  18.546  0.00  0.00    +0.000 OA
ATOM      2  C   UNL     1      -1.147  11.196  19.744  0.00  0.00    +0.000 C 
ATOM      3  C   UNL     1      -0.342  10.186  20.430  0.00  0.00    +0.000 A 
ATOM      4  C   UNL     1       0.300   9.096  19.877  0.00  0.00    +0.000 A 
ATOM      5  C   UNL     1       1.078   8.270  20.709  0.00  0.00    +0.000 A 
ATOM      6  C   UNL     1       1.125   8.584  22.093  0.00  0.00    +0.000 A 
ATOM      7  C   UNL     1       0.450   9.696  22.635  0.00  0.00    +0.000 A 
ATOM      8  C   UNL     1      -0.286  10.498  21.783  0.00  0.00    +0.000 A 
ATOM      9  C   UNL     1      -1.087  11.734  22.045  0.00  0.00    +0.000 C 
ATOM     10  N   UNL     1      -1.586  12.069  20.719  0.00  0.00    +0.000 N 
ENDROOT
BRANCH   5  11
ATOM     11  C   UNL     1       1.839   7.138  20.137  0.00  0.00    +0.000 A 
ATOM     12  C   UNL     1       1.765   5.876  20.706  0.00  0.00    +0.000 A 
ATOM     13  C   UNL     1       2.539   4.905  20.141  0.00  0.00    +0.000 A 
ATOM     14  N   UNL     1       3.344   5.137  19.104  0.00  0.00    +0.000 NA
ATOM     15  C   UNL     1       3.370   6.378  18.594  0.00  0.00    +0.000 A 
ATOM     16  N   UNL     1       4.222   6.630  17.517  0.00  0.00    +0.000 N 
ATOM     17  N   UNL     1       2.620   7.392  19.059  0.00  0.00    +0.000 NA
ATOM     18  H   UNL     1       4.136   7.580  17.190  0.00  0.00    +0.000 HD
BRANCH  16  19
ATOM     19  C   UNL     1       5.433   5.973  17.223  0.00  0.00    +0.000 A 
ATOM     20  C   UNL     1       5.645   5.434  15.956  0.00  0.00    +0.000 A 
ATOM     21  C   UNL     1       6.813   4.720  15.721  0.00  0.00    +0.000 A 
ATOM     22  N   UNL     1       7.783   4.529  16.640  0.00  0.00    +0.000 NA
ATOM     23  C   UNL     1       7.566   5.067  17.857  0.00  0.00    +0.000 A 
ATOM     24  C   UNL     1       6.428   5.782  18.187  0.00  0.00    +0.000 A 
ENDBRANCH  16  19
ENDBRANCH   5  11
BRANCH  10  25
ATOM     25  C   UNL     1      -2.418  13.221  20.453  0.00  0.00    +0.000 C 
BRANCH  25  26
ATOM     26  C   UNL     1      -3.900  12.945  20.572  0.00  0.00    +0.000 A 
ATOM     27  C   UNL     1      -4.573  13.122  21.791  0.00  0.00    +0.000 A 
ATOM     28  C   UNL     1      -5.916  12.762  21.929  0.00  0.00    +0.000 A 
ATOM     29  C   UNL     1      -6.606  12.217  20.848  0.00  0.00    +0.000 A 
ATOM     30  C   UNL     1      -5.951  12.050  19.630  0.00  0.00    +0.000 A 
ATOM     31 CL   UNL     1      -6.797  11.365  18.296  0.00  0.00    +0.000 Cl
ATOM     32  C   UNL     1      -4.610  12.412  19.486  0.00  0.00    +0.000 A 
ENDBRANCH  25  26
ENDBRANCH  10  25
TORSDOF 4
ENDMDL
MODEL 4
REMARK VINA RESULT:      -8.8      2.957      4.891
REMARK  Name = 
REMARK  4 active torsions:
REMARK  status: ('A' for Active; 'I' for Inactive)
REMARK    1  A    between atoms: C_5  and  C_6
REMARK    2  A    between atoms: N_11  and  C_12
REMARK    3  A    between atoms: N_23  and  C_24
REMARK    4  A    between atoms: C_24  and  C_25
REMARK                            x       y       z     vdW  Elec       q    Type
REMARK                         _______ _______ _______ _____ _____    ______ ____
ROOT
ATOM      1  O   UNL     1       5.300   6.970  14.858  0.00  0.00    +0.000 OA
ATOM      2  C   UNL     1       5.304   5.934  15.491  0.00  0.00    +0.000 C 
ATOM      3  C   UNL     1       4.609   5.734  16.762  0.00  0.00    +0.000 A 
ATOM      4  C   UNL     1       3.862   6.653  17.472  0.00  0.00    +0.000 A 
ATOM      5  C   UNL     1       3.222   6.240  18.655  0.00  0.00    +0.000 A 
ATOM      6  C   UNL     1       3.416   4.899  19.078  0.00  0.00    +0.000 A 
ATOM      7  C   UNL     1       4.194   3.983  18.341  0.00  0.00    +0.000 A 
ATOM      8  C   UNL     1       4.789   4.418  17.171  0.00  0.00    +0.000 A 
ATOM      9  C   UNL     1       5.647   3.698  16.179  0.00  0.00    +0.000 C 
ATOM     10  N   UNL     1       5.919   4.734  15.193  0.00  0.00    +0.000 N 
ENDROOT
BRANCH   5  11
ATOM     11  C   UNL     1       2.354   7.178  19.400  0.00  0.00    +0.000 A 
ATOM     12  C   UNL     1       1.934   6.883  20.688  0.00  0.00    +0.000 A 
ATOM     13  C   UNL     1       1.096   7.782  21.279  0.00  0.00    +0.000 A 
ATOM     14  N   UNL     1       0.677   8.889  20.664  0.00  0.00    +0.000 NA
ATOM     15  C   UNL     1       1.120   9.122  19.419  0.00  0.00    +0.000 A 
ATOM     16  N   UNL     1       0.672  10.272  18.765  0.00  0.00    +0.000 N 
ATOM     17  N   UNL     1       1.973   8.314  18.767  0.00  0.00    +0.000 NA
ATOM     18  H   UNL     1       1.094  10.369  17.854  0.00  0.00    +0.000 HD
BRANCH  16  19
ATOM     19  C   UNL     1      -0.555  10.935  18.962  0.00  0.00    +0.000 A 
ATOM     20  C   UNL     1      -1.668  10.583  18.202  0.00  0.00    +0.000 A 
ATOM     21  C   UNL     1      -2.841  11.310  18.360  0.00  0.00    +0.000 A 
ATOM     22  N   UNL     1      -2.988  12.333  19.227  0.00  0.00    +0.000 NA
ATOM     23  C   UNL     1      -1.904  12.653  19.962  0.00  0.00    +0.000 A 
ATOM     24  C   UNL     1      -0.690  11.995  19.864  0.00  0.00    +0.000 A 
ENDBRANCH  16  19
ENDBRANCH   5  11
BRANCH  10  25
ATOM     25  C   UNL     1       6.715   4.509  14.007  0.00  0.00    +0.000 C 
BRANCH  25  26
ATOM     26  C   UNL     1       5.983   3.767  12.912  0.00  0.00    +0.000 A 
ATOM     27  C   UNL     1       4.760   4.241  12.412  0.00  0.00    +0.000 A 
ATOM     28  C   UNL     1       4.030   3.498  11.479  0.00  0.00    +0.000 A 
ATOM     29  C   UNL     1       4.514   2.270  11.034  0.00  0.00    +0.000 A 
ATOM     30  C   UNL     1       5.733   1.798  11.514  0.00  0.00    +0.000 A 
ATOM     31 CL   UNL     1       6.328   0.275  10.976  0.00  0.00    +0.000 Cl
ATOM     32  C   UNL     1       6.469   2.538  12.442  0.00  0.00    +0.000 A 
ENDBRANCH  25  26
ENDBRANCH  10  25
TORSDOF 4
ENDMDL
MODEL 5
REMARK VINA RESULT:      -8.8      4.070     10.944
REMARK  Name = 
REMARK  4 active torsions:
REMARK  status: ('A' for Active; 'I' for Inactive)
REMARK    1  A    between atoms: C_5  and  C_6
REMARK    2  A    between atoms: N_11  and  C_12
REMARK    3  A    between atoms: N_23  and  C_24
REMARK    4  A    between atoms: C_24  and  C_25
REMARK                            x       y       z     vdW  Elec       q    Type
REMARK                         _______ _______ _______ _____ _____    ______ ____
ROOT
ATOM      1  O   UNL     1      -2.127  11.341  23.273  0.00  0.00    +0.000 OA
ATOM      2  C   UNL     1      -2.102  12.090  22.317  0.00  0.00    +0.000 C 
ATOM      3  C   UNL     1      -1.303  11.874  21.112  0.00  0.00    +0.000 A 
ATOM      4  C   UNL     1      -0.437  10.832  20.845  0.00  0.00    +0.000 A 
ATOM      5  C   UNL     1       0.198  10.779  19.591  0.00  0.00    +0.000 A 
ATOM      6  C   UNL     1      -0.057  11.835  18.677  0.00  0.00    +0.000 A 
ATOM      7  C   UNL     1      -0.936  12.895  18.978  0.00  0.00    +0.000 A 
ATOM      8  C   UNL     1      -1.559  12.901  20.212  0.00  0.00    +0.000 A 
ATOM      9  C   UNL     1      -2.537  13.861  20.813  0.00  0.00    +0.000 C 
ATOM     10  N   UNL     1      -2.791  13.270  22.119  0.00  0.00    +0.000 N 
ENDROOT
BRANCH   5  11
ATOM     11  C   UNL     1       1.073   9.637  19.245  0.00  0.00    +0.000 A 
ATOM     12  C   UNL     1       1.739   9.599  18.030  0.00  0.00    +0.000 A 
ATOM     13  C   UNL     1       2.484   8.485  17.776  0.00  0.00    +0.000 A 
ATOM     14  N   UNL     1       2.570   7.465  18.631  0.00  0.00    +0.000 NA
ATOM     15  C   UNL     1       1.905   7.561  19.793  0.00  0.00    +0.000 A 
ATOM     16  N   UNL     1       1.979   6.490  20.686  0.00  0.00    +0.000 N 
ATOM     17  N   UNL     1       1.173   8.632  20.148  0.00  0.00    +0.000 NA
ATOM     18  H   UNL     1       1.476   6.681  21.538  0.00  0.00    +0.000 HD
BRANCH  16  19
ATOM     19  C   UNL     1       2.177   5.132  20.365  0.00  0.00    +0.000 A 
ATOM     20  C   UNL     1       1.120   4.231  20.466  0.00  0.00    +0.000 A 
ATOM     21  C   UNL     1       1.365   2.885  20.224  0.00  0.00    +0.000 A 
ATOM     22  N   UNL     1       2.568   2.385  19.869  0.00  0.00    +0.000 NA
ATOM     23  C   UNL     1       3.576   3.274  19.766  0.00  0.00    +0.000 A 
ATOM     24  C   UNL     1       3.430   4.630  20.000  0.00  0.00    +0.000 A 
ENDBRANCH  16  19
ENDBRANCH   5  11
BRANCH  10  25
ATOM     25  C   UNL     1      -3.703  13.843  23.084  0.00  0.00    +0.000 C 
BRANCH  25  26
ATOM     26  C   UNL     1      -5.128  13.357  22.940  0.00  0.00    +0.000 A 
ATOM     27  C   UNL     1      -5.970  13.250  24.058  0.00  0.00    +0.000 A 
ATOM     28  C   UNL     1      -7.249  12.698  23.943  0.00  0.00    +0.000 A 
ATOM     29  C   UNL     1      -7.703  12.242  22.707  0.00  0.00    +0.000 A 
ATOM     30  C   UNL     1      -6.880  12.356  21.590  0.00  0.00    +0.000 A 
ATOM     31 CL   UNL     1      -7.432  11.782  20.063  0.00  0.00    +0.000 Cl
ATOM     32  C   UNL     1      -5.603  12.911  21.698  0.00  0.00    +0.000 A 
ENDBRANCH  25  26
ENDBRANCH  10  25
TORSDOF 4
ENDMDL
MODEL 6
REMARK VINA RESULT:      -8.7      3.880     11.126
REMARK  Name = 
REMARK  4 active torsions:
REMARK  status: ('A' for Active; 'I' for Inactive)
REMARK    1  A    between atoms: C_5  and  C_6
REMARK    2  A    between atoms: N_11  and  C_12
REMARK    3  A    between atoms: N_23  and  C_24
REMARK    4  A    between atoms: C_24  and  C_25
REMARK                            x       y       z     vdW  Elec       q    Type
REMARK                         _______ _______ _______ _____ _____    ______ ____
ROOT
ATOM      1  O   UNL     1      -1.438  11.137  18.693  0.00  0.00    +0.000 OA
ATOM      2  C   UNL     1      -1.116  11.150  19.864  0.00  0.00    +0.000 C 
ATOM      3  C   UNL     1      -0.245  10.161  20.497  0.00  0.00    +0.000 A 
ATOM      4  C   UNL     1       0.339   9.052  19.918  0.00  0.00    +0.000 A 
ATOM      5  C   UNL     1       1.198   8.251  20.693  0.00  0.00    +0.000 A 
ATOM      6  C   UNL     1       1.385   8.610  22.054  0.00  0.00    +0.000 A 
ATOM      7  C   UNL     1       0.767   9.740  22.626  0.00  0.00    +0.000 A 
ATOM      8  C   UNL     1      -0.053  10.516  21.827  0.00  0.00    +0.000 A 
ATOM      9  C   UNL     1      -0.825  11.762  22.129  0.00  0.00    +0.000 C 
ATOM     10  N   UNL     1      -1.455  12.055  20.850  0.00  0.00    +0.000 N 
ENDROOT
BRANCH   5  11
ATOM     11  C   UNL     1       1.898   7.100  20.083  0.00  0.00    +0.000 A 
ATOM     12  C   UNL     1       1.787   5.832  20.633  0.00  0.00    +0.000 A 
ATOM     13  C   UNL     1       2.507   4.841  20.034  0.00  0.00    +0.000 A 
ATOM     14  N   UNL     1       3.295   5.058  18.980  0.00  0.00    +0.000 NA
ATOM     15  C   UNL     1       3.358   6.306  18.490  0.00  0.00    +0.000 A 
ATOM     16  N   UNL     1       4.193   6.542  17.396  0.00  0.00    +0.000 N 
ATOM     17  N   UNL     1       2.661   7.340  18.990  0.00  0.00    +0.000 NA
ATOM     18  H   UNL     1       4.137   7.500  17.086  0.00  0.00    +0.000 HD
BRANCH  16  19
ATOM     19  C   UNL     1       5.369   5.842  17.060  0.00  0.00    +0.000 A 
ATOM     20  C   UNL     1       6.334   5.592  18.033  0.00  0.00    +0.000 A 
ATOM     21  C   UNL     1       7.519   4.974  17.655  0.00  0.00    +0.000 A 
ATOM     22  N   UNL     1       7.795   4.570  16.397  0.00  0.00    +0.000 NA
ATOM     23  C   UNL     1       6.845   4.808  15.471  0.00  0.00    +0.000 A 
ATOM     24  C   UNL     1       5.641   5.430  15.751  0.00  0.00    +0.000 A 
ENDBRANCH  16  19
ENDBRANCH   5  11
BRANCH  10  25
ATOM     25  C   UNL     1      -2.311  13.200  20.633  0.00  0.00    +0.000 C 
BRANCH  25  26
ATOM     26  C   UNL     1      -3.778  12.920  20.870  0.00  0.00    +0.000 A 
ATOM     27  C   UNL     1      -4.637  12.616  19.802  0.00  0.00    +0.000 A 
ATOM     28  C   UNL     1      -6.012  12.466  20.007  0.00  0.00    +0.000 A 
ATOM     29  C   UNL     1      -6.547  12.619  21.284  0.00  0.00    +0.000 A 
ATOM     30  C   UNL     1      -5.701  12.907  22.352  0.00  0.00    +0.000 A 
ATOM     31 CL   UNL     1      -6.360  13.110  23.930  0.00  0.00    +0.000 Cl
ATOM     32  C   UNL     1      -4.326  13.053  22.154  0.00  0.00    +0.000 A 
ENDBRANCH  25  26
ENDBRANCH  10  25
TORSDOF 4
ENDMDL
MODEL 7
REMARK VINA RESULT:      -8.7      1.055      1.099
REMARK  Name = 
REMARK  4 active torsions:
REMARK  status: ('A' for Active; 'I' for Inactive)
REMARK    1  A    between atoms: C_5  and  C_6
REMARK    2  A    between atoms: N_11  and  C_12
REMARK    3  A    between atoms: N_23  and  C_24
REMARK    4  A    between atoms: C_24  and  C_25
REMARK                            x       y       z     vdW  Elec       q    Type
REMARK                         _______ _______ _______ _____ _____    ______ ____
ROOT
ATOM      1  O   UNL     1       1.784   5.895  21.090  0.00  0.00    +0.000 OA
ATOM      2  C   UNL     1       2.089   6.441  20.048  0.00  0.00    +0.000 C 
ATOM      3  C   UNL     1       1.658   7.783  19.657  0.00  0.00    +0.000 A 
ATOM      4  C   UNL     1       0.836   8.646  20.354  0.00  0.00    +0.000 A 
ATOM      5  C   UNL     1       0.588   9.925  19.825  0.00  0.00    +0.000 A 
ATOM      6  C   UNL     1       1.169  10.245  18.570  0.00  0.00    +0.000 A 
ATOM      7  C   UNL     1       1.995   9.341  17.872  0.00  0.00    +0.000 A 
ATOM      8  C   UNL     1       2.235   8.101  18.434  0.00  0.00    +0.000 A 
ATOM      9  C   UNL     1       3.062   6.950  17.955  0.00  0.00    +0.000 C 
ATOM     10  N   UNL     1       2.886   5.975  19.023  0.00  0.00    +0.000 N 
ENDROOT
BRANCH   5  11
ATOM     11  C   UNL     1      -0.228  10.901  20.582  0.00  0.00    +0.000 A 
ATOM     12  C   UNL     1      -0.020  11.095  21.939  0.00  0.00    +0.000 A 
ATOM     13  C   UNL     1      -0.851  11.977  22.564  0.00  0.00    +0.000 A 
ATOM     14  N   UNL     1      -1.830  12.621  21.927  0.00  0.00    +0.000 NA
ATOM     15  C   UNL     1      -1.980  12.394  20.613  0.00  0.00    +0.000 A 
ATOM     16  N   UNL     1      -3.013  13.054  19.944  0.00  0.00    +0.000 N 
ATOM     17  N   UNL     1      -1.190  11.570  19.903  0.00  0.00    +0.000 NA
ATOM     18  H   UNL     1      -3.012  12.841  18.958  0.00  0.00    +0.000 HD
BRANCH  16  19
ATOM     19  C   UNL     1      -4.237  13.486  20.491  0.00  0.00    +0.000 A 
ATOM     20  C   UNL     1      -4.409  14.821  20.849  0.00  0.00    +0.000 A 
ATOM     21  C   UNL     1      -5.596  15.200  21.463  0.00  0.00    +0.000 A 
ATOM     22  N   UNL     1      -6.619  14.359  21.719  0.00  0.00    +0.000 NA
ATOM     23  C   UNL     1      -6.441  13.073  21.355  0.00  0.00    +0.000 A 
ATOM     24  C   UNL     1      -5.289  12.601  20.751  0.00  0.00    +0.000 A 
ENDBRANCH  16  19
ENDBRANCH   5  11
BRANCH  10  25
ATOM     25  C   UNL     1       3.519   4.675  19.020  0.00  0.00    +0.000 C 
BRANCH  25  26
ATOM     26  C   UNL     1       4.846   4.644  18.296  0.00  0.00    +0.000 A 
ATOM     27  C   UNL     1       6.012   5.133  18.904  0.00  0.00    +0.000 A 
ATOM     28  C   UNL     1       7.215   5.205  18.196  0.00  0.00    +0.000 A 
ATOM     29  C   UNL     1       7.267   4.790  16.867  0.00  0.00    +0.000 A 
ATOM     30  C   UNL     1       6.119   4.290  16.259  0.00  0.00    +0.000 A 
ATOM     31 CL   UNL     1       6.176   3.788  14.613  0.00  0.00    +0.000 Cl
ATOM     32  C   UNL     1       4.915   4.211  16.963  0.00  0.00    +0.000 A 
ENDBRANCH  25  26
ENDBRANCH  10  25
TORSDOF 4
ENDMDL
MODEL 8
REMARK VINA RESULT:      -8.7      3.474     11.026
REMARK  Name = 
REMARK  4 active torsions:
REMARK  status: ('A' for Active; 'I' for Inactive)
REMARK    1  A    between atoms: C_5  and  C_6
REMARK    2  A    between atoms: N_11  and  C_12
REMARK    3  A    between atoms: N_23  and  C_24
REMARK    4  A    between atoms: C_24  and  C_25
REMARK                            x       y       z     vdW  Elec       q    Type
REMARK                         _______ _______ _______ _____ _____    ______ ____
ROOT
ATOM      1  O   UNL     1      -0.610  10.530  23.440  0.00  0.00    +0.000 OA
ATOM      2  C   UNL     1      -0.585  11.163  22.404  0.00  0.00    +0.000 C 
ATOM      3  C   UNL     1       0.060  10.712  21.171  0.00  0.00    +0.000 A 
ATOM      4  C   UNL     1       0.757   9.539  20.959  0.00  0.00    +0.000 A 
ATOM      5  C   UNL     1       1.254   9.266  19.672  0.00  0.00    +0.000 A 
ATOM      6  C   UNL     1       1.046  10.243  18.662  0.00  0.00    +0.000 A 
ATOM      7  C   UNL     1       0.342  11.439  18.907  0.00  0.00    +0.000 A 
ATOM      8  C   UNL     1      -0.153  11.662  20.179  0.00  0.00    +0.000 A 
ATOM      9  C   UNL     1      -0.938  12.805  20.741  0.00  0.00    +0.000 C 
ATOM     10  N   UNL     1      -1.136  12.397  22.124  0.00  0.00    +0.000 N 
ENDROOT
BRANCH   5  11
ATOM     11  C   UNL     1       1.940   7.985  19.392  0.00  0.00    +0.000 A 
ATOM     12  C   UNL     1       1.838   6.921  20.274  0.00  0.00    +0.000 A 
ATOM     13  C   UNL     1       2.545   5.797  19.960  0.00  0.00    +0.000 A 
ATOM     14  N   UNL     1       3.312   5.709  18.873  0.00  0.00    +0.000 NA
ATOM     15  C   UNL     1       3.369   6.771  18.055  0.00  0.00    +0.000 A 
ATOM     16  N   UNL     1       4.183   6.689  16.924  0.00  0.00    +0.000 N 
ATOM     17  N   UNL     1       2.683   7.909  18.262  0.00  0.00    +0.000 NA
ATOM     18  H   UNL     1       4.123   7.525  16.362  0.00  0.00    +0.000 HD
BRANCH  16  19
ATOM     19  C   UNL     1       5.351   5.916  16.775  0.00  0.00    +0.000 A 
ATOM     20  C   UNL     1       6.219   5.748  17.851  0.00  0.00    +0.000 A 
ATOM     21  C   UNL     1       7.403   5.051  17.650  0.00  0.00    +0.000 A 
ATOM     22  N   UNL     1       7.766   4.494  16.476  0.00  0.00    +0.000 NA
ATOM     23  C   UNL     1       6.908   4.655  15.449  0.00  0.00    +0.000 A 
ATOM     24  C   UNL     1       5.713   5.346  15.549  0.00  0.00    +0.000 A 
ENDBRANCH  16  19
ENDBRANCH   5  11
BRANCH  10  25
ATOM     25  C   UNL     1      -1.870  13.188  23.086  0.00  0.00    +0.000 C 
BRANCH  25  26
ATOM     26  C   UNL     1      -3.370  13.134  22.904  0.00  0.00    +0.000 A 
ATOM     27  C   UNL     1      -4.237  13.366  23.983  0.00  0.00    +0.000 A 
ATOM     28  C   UNL     1      -5.619  13.207  23.841  0.00  0.00    +0.000 A 
ATOM     29  C   UNL     1      -6.152  12.812  22.616  0.00  0.00    +0.000 A 
ATOM     30  C   UNL     1      -5.301  12.593  21.536  0.00  0.00    +0.000 A 
ATOM     31 CL   UNL     1      -5.956  12.093  20.024  0.00  0.00    +0.000 Cl
ATOM     32  C   UNL     1      -3.920  12.755  21.671  0.00  0.00    +0.000 A 
ENDBRANCH  25  26
ENDBRANCH  10  25
TORSDOF 4
ENDMDL
MODEL 9
REMARK VINA RESULT:      -8.6      3.417      4.352
REMARK  Name = 
REMARK  4 active torsions:
REMARK  status: ('A' for Active; 'I' for Inactive)
REMARK    1  A    between atoms: C_5  and  C_6
REMARK    2  A    between atoms: N_11  and  C_12
REMARK    3  A    between atoms: N_23  and  C_24
REMARK    4  A    between atoms: C_24  and  C_25
REMARK                            x       y       z     vdW  Elec       q    Type
REMARK                         _______ _______ _______ _____ _____    ______ ____
ROOT
ATOM      1  O   UNL     1       3.118   6.761  17.390  0.00  0.00    +0.000 OA
ATOM      2  C   UNL     1       2.705   6.607  18.522  0.00  0.00    +0.000 C 
ATOM      3  C   UNL     1       1.983   7.622  19.289  0.00  0.00    +0.000 A 
ATOM      4  C   UNL     1       1.663   8.908  18.901  0.00  0.00    +0.000 A 
ATOM      5  C   UNL     1       0.907   9.713  19.772  0.00  0.00    +0.000 A 
ATOM      6  C   UNL     1       0.547   9.166  21.032  0.00  0.00    +0.000 A 
ATOM      7  C   UNL     1       0.897   7.854  21.410  0.00  0.00    +0.000 A 
ATOM      8  C   UNL     1       1.621   7.084  20.518  0.00  0.00    +0.000 A 
ATOM      9  C   UNL     1       2.123   5.678  20.616  0.00  0.00    +0.000 C 
ATOM     10  N   UNL     1       2.790   5.495  19.335  0.00  0.00    +0.000 N 
ENDROOT
BRANCH   5  11
ATOM     11  C   UNL     1       0.484  11.068  19.357  0.00  0.00    +0.000 A 
ATOM     12  C   UNL     1      -0.658  11.250  18.593  0.00  0.00    +0.000 A 
ATOM     13  C   UNL     1      -0.943  12.530  18.215  0.00  0.00    +0.000 A 
ATOM     14  N   UNL     1      -0.170  13.567  18.541  0.00  0.00    +0.000 NA
ATOM     15  C   UNL     1       0.920  13.328  19.286  0.00  0.00    +0.000 A 
ATOM     16  N   UNL     1       1.741  14.408  19.618  0.00  0.00    +0.000 N 
ATOM     17  N   UNL     1       1.265  12.109  19.734  0.00  0.00    +0.000 NA
ATOM     18  H   UNL     1       2.507  14.124  20.208  0.00  0.00    +0.000 HD
BRANCH  16  19
ATOM     19  C   UNL     1       1.925  15.591  18.876  0.00  0.00    +0.000 A 
ATOM     20  C   UNL     1       1.061  16.669  19.055  0.00  0.00    +0.000 A 
ATOM     21  C   UNL     1       1.217  17.790  18.250  0.00  0.00    +0.000 A 
ATOM     22  N   UNL     1       2.176  17.921  17.309  0.00  0.00    +0.000 NA
ATOM     23  C   UNL     1       3.010  16.874  17.158  0.00  0.00    +0.000 A 
ATOM     24  C   UNL     1       2.924  15.711  17.903  0.00  0.00    +0.000 A 
ENDBRANCH  16  19
ENDBRANCH   5  11
BRANCH  10  25
ATOM     25  C   UNL     1       3.434   4.260  18.948  0.00  0.00    +0.000 C 
BRANCH  25  26
ATOM     26  C   UNL     1       4.823   4.447  18.380  0.00  0.00    +0.000 A 
ATOM     27  C   UNL     1       5.846   5.025  19.150  0.00  0.00    +0.000 A 
ATOM     28  C   UNL     1       7.097   5.299  18.591  0.00  0.00    +0.000 A 
ATOM     29  C   UNL     1       7.343   5.001  17.253  0.00  0.00    +0.000 A 
ATOM     30  C   UNL     1       6.340   4.415  16.485  0.00  0.00    +0.000 A 
ATOM     31 CL   UNL     1       6.636   4.056  14.827  0.00  0.00    +0.000 Cl
ATOM     32  C   UNL     1       5.089   4.134  17.039  0.00  0.00    +0.000 A 
ENDBRANCH  25  26
ENDBRANCH  10  25
TORSDOF 4
ENDMDL
