MODEL 1
REMARK VINA RESULT:      -7.4      0.000      0.000
REMARK  Name = 
REMARK  7 active torsions:
REMARK  status: ('A' for Active; 'I' for Inactive)
REMARK    1  A    between atoms: C_1  and  O_2
REMARK    2  A    between atoms: O_2  and  C_3
REMARK    3  A    between atoms: C_6  and  C_7
REMARK    4  A    between atoms: C_8  and  C_9
REMARK    5  A    between atoms: C_11  and  N_12
REMARK    6  A    between atoms: C_17  and  S_18
REMARK    7  A    between atoms: S_18  and  C_19
REMARK                            x       y       z     vdW  Elec       q    Type
REMARK                         _______ _______ _______ _____ _____    ______ ____
ROOT
ATOM      1  C   UNL     1      -0.377  11.956  21.174  0.00  0.00    +0.000 C 
ATOM      2  C   UNL     1       0.243  13.243  20.580  0.00  0.00    +0.000 C 
ATOM      3  C   UNL     1       0.892  13.070  19.432  0.00  0.00    +0.000 C 
ATOM      4  O   UNL     1       0.224  12.309  18.461  0.00  0.00    +0.000 OA
ATOM      5  C   UNL     1       0.062  11.000  18.877  0.00  0.00    +0.000 A 
ATOM      6  C   UNL     1       0.441  10.067  17.929  0.00  0.00    +0.000 A 
ATOM      7  C   UNL     1       1.102   8.935  18.370  0.00  0.00    +0.000 A 
ATOM      8  C   UNL     1       1.354   8.727  19.741  0.00  0.00    +0.000 A 
ATOM      9  C   UNL     1       0.749   9.603  20.683  0.00  0.00    +0.000 A 
ATOM     10  C   UNL     1       0.015  10.747  20.265  0.00  0.00    +0.000 A 
ENDROOT
BRANCH   1  14
ATOM     11  C   UNL     1      -4.262  12.942  23.007  0.00  0.00    +0.000 A 
ATOM     12  C   UNL     1      -3.965  13.395  21.714  0.00  0.00    +0.000 A 
ATOM     13  C   UNL     1      -2.746  13.054  21.080  0.00  0.00    +0.000 A 
ATOM     14  C   UNL     1      -1.795  12.250  21.724  0.00  0.00    +0.000 A 
ATOM     15  C   UNL     1      -2.068  11.896  23.075  0.00  0.00    +0.000 A 
ATOM     16  C   UNL     1      -3.294  12.235  23.707  0.00  0.00    +0.000 A 
BRANCH  11  18
ATOM     17  C   UNL     1      -6.607  12.771  22.763  0.00  0.00    +0.000 C 
ATOM     18  O   UNL     1      -5.495  13.274  23.512  0.00  0.00    +0.000 OA
ENDBRANCH  11  18
ENDBRANCH   1  14
BRANCH   3  19
ATOM     19  N   UNL     1       2.280  13.122  19.343  0.00  0.00    +0.000 N 
ATOM     20  H   UNL     1       2.729  12.225  19.583  0.00  0.00    +0.000 HD
ATOM     21  H   UNL     1       2.534  13.338  18.368  0.00  0.00    +0.000 HD
ENDBRANCH   3  19
BRANCH   2  22
ATOM     22  C   UNL     1       0.780  14.152  21.674  0.00  0.00    +0.000 C 
ATOM     23  N   UNL     1       1.226  14.906  22.580  0.00  0.00    +0.000 NA
ENDBRANCH   2  22
BRANCH   8  24
ATOM     24  S   UNL     1       2.280   7.232  20.065  0.00  0.00    +0.000 S 
BRANCH  24  25
ATOM     25  C   UNL     1       2.873   6.546  18.565  0.00  0.00    +0.000 A 
ATOM     26  N   UNL     1       3.783   7.117  17.809  0.00  0.00    +0.000 NA
ATOM     27  C   UNL     1       4.465   6.137  17.081  0.00  0.00    +0.000 A 
ATOM     28  C   UNL     1       5.619   6.345  16.300  0.00  0.00    +0.000 A 
ATOM     29  C   UNL     1       6.299   5.256  15.739  0.00  0.00    +0.000 A 
ATOM     30  C   UNL     1       5.820   3.967  15.907  0.00  0.00    +0.000 A 
ATOM     31  C   UNL     1       4.643   3.736  16.632  0.00  0.00    +0.000 A 
ATOM     32  C   UNL     1       3.982   4.837  17.213  0.00  0.00    +0.000 A 
ATOM     33  S   UNL     1       2.575   4.876  18.204  0.00  0.00    +0.000 S 
ENDBRANCH  24  25
ENDBRANCH   8  24
TORSDOF 6
ENDMDL
MODEL 2
REMARK VINA RESULT:      -7.3      1.106      1.263
REMARK  Name = 
REMARK  7 active torsions:
REMARK  status: ('A' for Active; 'I' for Inactive)
REMARK    1  A    between atoms: C_1  and  O_2
REMARK    2  A    between atoms: O_2  and  C_3
REMARK    3  A    between atoms: C_6  and  C_7
REMARK    4  A    between atoms: C_8  and  C_9
REMARK    5  A    between atoms: C_11  and  N_12
REMARK    6  A    between atoms: C_17  and  S_18
REMARK    7  A    between atoms: S_18  and  C_19
REMARK                            x       y       z     vdW  Elec       q    Type
REMARK                         _______ _______ _______ _____ _____    ______ ____
ROOT
ATOM      1  C   UNL     1      -1.344  12.251  21.932  0.00  0.00    +0.000 C 
ATOM      2  C   UNL     1      -0.818  13.611  21.416  0.00  0.00    +0.000 C 
ATOM      3  C   UNL     1      -0.108  13.544  20.292  0.00  0.00    +0.000 C 
ATOM      4  O   UNL     1      -0.665  12.768  19.264  0.00  0.00    +0.000 OA
ATOM      5  C   UNL     1      -0.725  11.433  19.623  0.00  0.00    +0.000 A 
ATOM      6  C   UNL     1      -0.224  10.578  18.658  0.00  0.00    +0.000 A 
ATOM      7  C   UNL     1       0.517   9.491  19.086  0.00  0.00    +0.000 A 
ATOM      8  C   UNL     1       0.729   9.249  20.458  0.00  0.00    +0.000 A 
ATOM      9  C   UNL     1       0.009  10.029  21.405  0.00  0.00    +0.000 A 
ATOM     10  C   UNL     1      -0.807  11.120  20.997  0.00  0.00    +0.000 A 
ENDROOT
BRANCH   1  14
ATOM     11  C   UNL     1      -5.382  12.875  23.583  0.00  0.00    +0.000 A 
ATOM     12  C   UNL     1      -5.129  13.157  22.233  0.00  0.00    +0.000 A 
ATOM     13  C   UNL     1      -3.855  12.921  21.662  0.00  0.00    +0.000 A 
ATOM     14  C   UNL     1      -2.804  12.395  22.427  0.00  0.00    +0.000 A 
ATOM     15  C   UNL     1      -3.053  12.222  23.818  0.00  0.00    +0.000 A 
ATOM     16  C   UNL     1      -4.333  12.454  24.387  0.00  0.00    +0.000 A 
BRANCH  11  18
ATOM     17  C   UNL     1      -7.153  14.416  23.862  0.00  0.00    +0.000 C 
ATOM     18  O   UNL     1      -6.665  13.080  24.027  0.00  0.00    +0.000 OA
ENDBRANCH  11  18
ENDBRANCH   1  14
BRANCH   3  19
ATOM     19  N   UNL     1       1.271  13.721  20.269  0.00  0.00    +0.000 N 
ATOM     20  H   UNL     1       1.618  14.266  21.073  0.00  0.00    +0.000 HD
ATOM     21  H   UNL     1       1.719  12.793  20.316  0.00  0.00    +0.000 HD
ENDBRANCH   3  19
BRANCH   2  22
ATOM     22  C   UNL     1      -0.411  14.517  22.566  0.00  0.00    +0.000 C 
ATOM     23  N   UNL     1      -0.072  15.269  23.520  0.00  0.00    +0.000 NA
ENDBRANCH   2  22
BRANCH   8  24
ATOM     24  S   UNL     1       1.772   7.830  20.767  0.00  0.00    +0.000 S 
BRANCH  24  25
ATOM     25  C   UNL     1       2.235   7.073  19.255  0.00  0.00    +0.000 A 
ATOM     26  N   UNL     1       3.008   7.644  18.360  0.00  0.00    +0.000 NA
ATOM     27  C   UNL     1       3.670   6.657  17.621  0.00  0.00    +0.000 A 
ATOM     28  C   UNL     1       4.708   6.880  16.695  0.00  0.00    +0.000 A 
ATOM     29  C   UNL     1       5.394   5.798  16.129  0.00  0.00    +0.000 A 
ATOM     30  C   UNL     1       5.032   4.496  16.438  0.00  0.00    +0.000 A 
ATOM     31  C   UNL     1       3.965   4.246  17.313  0.00  0.00    +0.000 A 
ATOM     32  C   UNL     1       3.299   5.343  17.896  0.00  0.00    +0.000 A 
ATOM     33  S   UNL     1       2.018   5.366  19.044  0.00  0.00    +0.000 S 
ENDBRANCH  24  25
ENDBRANCH   8  24
TORSDOF 6
ENDMDL
MODEL 3
REMARK VINA RESULT:      -7.3      0.663      1.061
REMARK  Name = 
REMARK  7 active torsions:
REMARK  status: ('A' for Active; 'I' for Inactive)
REMARK    1  A    between atoms: C_1  and  O_2
REMARK    2  A    between atoms: O_2  and  C_3
REMARK    3  A    between atoms: C_6  and  C_7
REMARK    4  A    between atoms: C_8  and  C_9
REMARK    5  A    between atoms: C_11  and  N_12
REMARK    6  A    between atoms: C_17  and  S_18
REMARK    7  A    between atoms: S_18  and  C_19
REMARK                            x       y       z     vdW  Elec       q    Type
REMARK                         _______ _______ _______ _____ _____    ______ ____
ROOT
ATOM      1  C   UNL     1      -0.016  12.237  21.395  0.00  0.00    +0.000 C 
ATOM      2  C   UNL     1       0.618  13.450  20.675  0.00  0.00    +0.000 C 
ATOM      3  C   UNL     1       1.098  13.189  19.462  0.00  0.00    +0.000 C 
ATOM      4  O   UNL     1       0.253  12.455  18.615  0.00  0.00    +0.000 OA
ATOM      5  C   UNL     1       0.047  11.177  19.102  0.00  0.00    +0.000 A 
ATOM      6  C   UNL     1       0.228  10.188  18.152  0.00  0.00    +0.000 A 
ATOM      7  C   UNL     1       0.852   9.020  18.553  0.00  0.00    +0.000 A 
ATOM      8  C   UNL     1       1.263   8.834  19.888  0.00  0.00    +0.000 A 
ATOM      9  C   UNL     1       0.853   9.786  20.863  0.00  0.00    +0.000 A 
ATOM     10  C   UNL     1       0.161  10.972  20.494  0.00  0.00    +0.000 A 
ENDROOT
BRANCH   1  14
ATOM     11  C   UNL     1      -3.896  13.425  23.115  0.00  0.00    +0.000 A 
ATOM     12  C   UNL     1      -3.228  12.298  23.613  0.00  0.00    +0.000 A 
ATOM     13  C   UNL     1      -1.958  11.919  23.114  0.00  0.00    +0.000 A 
ATOM     14  C   UNL     1      -1.325  12.661  22.107  0.00  0.00    +0.000 A 
ATOM     15  C   UNL     1      -2.070  13.733  21.540  0.00  0.00    +0.000 A 
ATOM     16  C   UNL     1      -3.341  14.114  22.046  0.00  0.00    +0.000 A 
BRANCH  11  18
ATOM     17  C   UNL     1      -5.475  15.121  23.585  0.00  0.00    +0.000 C 
ATOM     18  O   UNL     1      -5.093  13.746  23.706  0.00  0.00    +0.000 OA
ENDBRANCH  11  18
ENDBRANCH   1  14
BRANCH   3  19
ATOM     19  N   UNL     1       2.462  13.126  19.196  0.00  0.00    +0.000 N 
ATOM     20  H   UNL     1       2.836  14.007  18.813  0.00  0.00    +0.000 HD
ATOM     21  H   UNL     1       2.957  12.946  20.082  0.00  0.00    +0.000 HD
ENDBRANCH   3  19
BRANCH   2  22
ATOM     22  C   UNL     1       1.360  14.345  21.653  0.00  0.00    +0.000 C 
ATOM     23  N   UNL     1       1.976  15.089  22.465  0.00  0.00    +0.000 NA
ENDBRANCH   2  22
BRANCH   8  24
ATOM     24  S   UNL     1       2.106   7.281  20.153  0.00  0.00    +0.000 S 
BRANCH  24  25
ATOM     25  C   UNL     1       2.709   6.648  18.633  0.00  0.00    +0.000 A 
ATOM     26  N   UNL     1       3.631   7.241  17.910  0.00  0.00    +0.000 NA
ATOM     27  C   UNL     1       4.313   6.284  17.151  0.00  0.00    +0.000 A 
ATOM     28  C   UNL     1       5.476   6.513  16.390  0.00  0.00    +0.000 A 
ATOM     29  C   UNL     1       6.154   5.441  15.794  0.00  0.00    +0.000 A 
ATOM     30  C   UNL     1       5.665   4.150  15.908  0.00  0.00    +0.000 A 
ATOM     31  C   UNL     1       4.478   3.901  16.612  0.00  0.00    +0.000 A 
ATOM     32  C   UNL     1       3.819   4.983  17.229  0.00  0.00    +0.000 A 
ATOM     33  S   UNL     1       2.403   4.995  18.206  0.00  0.00    +0.000 S 
ENDBRANCH  24  25
ENDBRANCH   8  24
TORSDOF 6
ENDMDL
MODEL 4
REMARK VINA RESULT:      -7.0      1.173      1.498
REMARK  Name = 
REMARK  7 active torsions:
REMARK  status: ('A' for Active; 'I' for Inactive)
REMARK    1  A    between atoms: C_1  and  O_2
REMARK    2  A    between atoms: O_2  and  C_3
REMARK    3  A    between atoms: C_6  and  C_7
REMARK    4  A    between atoms: C_8  and  C_9
REMARK    5  A    between atoms: C_11  and  N_12
REMARK    6  A    between atoms: C_17  and  S_18
REMARK    7  A    between atoms: S_18  and  C_19
REMARK                            x       y       z     vdW  Elec       q    Type
REMARK                         _______ _______ _______ _____ _____    ______ ____
ROOT
ATOM      1  C   UNL     1      -1.401  12.639  20.728  0.00  0.00    +0.000 C 
ATOM      2  C   UNL     1      -0.972  13.857  19.876  0.00  0.00    +0.000 C 
ATOM      3  C   UNL     1      -0.354  13.551  18.739  0.00  0.00    +0.000 C 
ATOM      4  O   UNL     1      -0.962  12.552  17.963  0.00  0.00    +0.000 OA
ATOM      5  C   UNL     1      -0.941  11.332  18.615  0.00  0.00    +0.000 A 
ATOM      6  C   UNL     1      -0.488  10.291  17.826  0.00  0.00    +0.000 A 
ATOM      7  C   UNL     1       0.328   9.344  18.419  0.00  0.00    +0.000 A 
ATOM      8  C   UNL     1       0.660   9.422  19.786  0.00  0.00    +0.000 A 
ATOM      9  C   UNL     1      -0.011  10.382  20.594  0.00  0.00    +0.000 A 
ATOM     10  C   UNL     1      -0.899  11.336  20.026  0.00  0.00    +0.000 A 
ENDROOT
BRANCH   1  14
ATOM     11  C   UNL     1      -5.533  12.980  22.221  0.00  0.00    +0.000 A 
ATOM     12  C   UNL     1      -4.462  12.988  23.125  0.00  0.00    +0.000 A 
ATOM     13  C   UNL     1      -3.121  12.929  22.673  0.00  0.00    +0.000 A 
ATOM     14  C   UNL     1      -2.821  12.863  21.305  0.00  0.00    +0.000 A 
ATOM     15  C   UNL     1      -3.924  12.744  20.415  0.00  0.00    +0.000 A 
ATOM     16  C   UNL     1      -5.268  12.809  20.870  0.00  0.00    +0.000 A 
BRANCH  11  18
ATOM     17  C   UNL     1      -7.003  12.384  23.974  0.00  0.00    +0.000 C 
ATOM     18  O   UNL     1      -6.793  13.103  22.754  0.00  0.00    +0.000 OA
ENDBRANCH  11  18
ENDBRANCH   1  14
BRANCH   3  19
ATOM     19  N   UNL     1       1.011  13.745  18.554  0.00  0.00    +0.000 N 
ATOM     20  H   UNL     1       1.572  13.427  19.358  0.00  0.00    +0.000 HD
ATOM     21  H   UNL     1       1.311  13.191  17.737  0.00  0.00    +0.000 HD
ENDBRANCH   3  19
BRANCH   2  22
ATOM     22  C   UNL     1      -0.508  15.007  20.754  0.00  0.00    +0.000 C 
ATOM     23  N   UNL     1      -0.123  15.962  21.483  0.00  0.00    +0.000 NA
ENDBRANCH   2  22
BRANCH   8  24
ATOM     24  S   UNL     1       1.778   8.130  20.312  0.00  0.00    +0.000 S 
BRANCH  24  25
ATOM     25  C   UNL     1       2.336   7.208  18.929  0.00  0.00    +0.000 A 
ATOM     26  N   UNL     1       3.147   7.685  18.012  0.00  0.00    +0.000 NA
ATOM     27  C   UNL     1       3.866   6.633  17.435  0.00  0.00    +0.000 A 
ATOM     28  C   UNL     1       4.948   6.768  16.543  0.00  0.00    +0.000 A 
ATOM     29  C   UNL     1       5.685   5.643  16.150  0.00  0.00    +0.000 A 
ATOM     30  C   UNL     1       5.330   4.380  16.596  0.00  0.00    +0.000 A 
ATOM     31  C   UNL     1       4.222   4.211  17.439  0.00  0.00    +0.000 A 
ATOM     32  C   UNL     1       3.505   5.353  17.848  0.00  0.00    +0.000 A 
ATOM     33  S   UNL     1       2.162   5.483  18.917  0.00  0.00    +0.000 S 
ENDBRANCH  24  25
ENDBRANCH   8  24
TORSDOF 6
ENDMDL
MODEL 5
REMARK VINA RESULT:      -7.0      2.538      3.077
REMARK  Name = 
REMARK  7 active torsions:
REMARK  status: ('A' for Active; 'I' for Inactive)
REMARK    1  A    between atoms: C_1  and  O_2
REMARK    2  A    between atoms: O_2  and  C_3
REMARK    3  A    between atoms: C_6  and  C_7
REMARK    4  A    between atoms: C_8  and  C_9
REMARK    5  A    between atoms: C_11  and  N_12
REMARK    6  A    between atoms: C_17  and  S_18
REMARK    7  A    between atoms: S_18  and  C_19
REMARK                            x       y       z     vdW  Elec       q    Type
REMARK                         _______ _______ _______ _____ _____    ______ ____
ROOT
ATOM      1  C   UNL     1      -1.191  11.791  19.828  0.00  0.00    +0.000 C 
ATOM      2  C   UNL     1      -0.428  13.137  19.826  0.00  0.00    +0.000 C 
ATOM      3  C   UNL     1       0.848  13.053  19.458  0.00  0.00    +0.000 C 
ATOM      4  O   UNL     1       1.103  12.301  18.302  0.00  0.00    +0.000 OA
ATOM      5  C   UNL     1       0.792  10.967  18.496  0.00  0.00    +0.000 A 
ATOM      6  C   UNL     1       1.792  10.101  18.089  0.00  0.00    +0.000 A 
ATOM      7  C   UNL     1       2.038   8.990  18.875  0.00  0.00    +0.000 A 
ATOM      8  C   UNL     1       1.278   8.734  20.034  0.00  0.00    +0.000 A 
ATOM      9  C   UNL     1       0.126   9.531  20.280  0.00  0.00    +0.000 A 
ATOM     10  C   UNL     1      -0.190  10.649  19.459  0.00  0.00    +0.000 A 
ENDROOT
BRANCH   1  14
ATOM     11  C   UNL     1      -5.219  11.985  18.051  0.00  0.00    +0.000 A 
ATOM     12  C   UNL     1      -5.019  12.402  19.374  0.00  0.00    +0.000 A 
ATOM     13  C   UNL     1      -3.729  12.397  19.957  0.00  0.00    +0.000 A 
ATOM     14  C   UNL     1      -2.607  11.977  19.229  0.00  0.00    +0.000 A 
ATOM     15  C   UNL     1      -2.850  11.454  17.928  0.00  0.00    +0.000 A 
ATOM     16  C   UNL     1      -4.144  11.465  17.343  0.00  0.00    +0.000 A 
BRANCH  11  18
ATOM     17  C   UNL     1      -6.845  13.377  17.047  0.00  0.00    +0.000 C 
ATOM     18  O   UNL     1      -6.496  12.085  17.557  0.00  0.00    +0.000 OA
ENDBRANCH  11  18
ENDBRANCH   1  14
BRANCH   3  19
ATOM     19  N   UNL     1       1.896  13.189  20.363  0.00  0.00    +0.000 N 
ATOM     20  H   UNL     1       1.574  13.408  21.318  0.00  0.00    +0.000 HD
ATOM     21  H   UNL     1       2.400  12.290  20.412  0.00  0.00    +0.000 HD
ENDBRANCH   3  19
BRANCH   2  22
ATOM     22  C   UNL     1      -0.873  14.024  20.977  0.00  0.00    +0.000 C 
ATOM     23  N   UNL     1      -1.241  14.760  21.933  0.00  0.00    +0.000 NA
ENDBRANCH   2  22
BRANCH   8  24
ATOM     24  S   UNL     1       1.822   7.282  20.923  0.00  0.00    +0.000 S 
BRANCH  24  25
ATOM     25  C   UNL     1       1.801   5.880  19.871  0.00  0.00    +0.000 A 
ATOM     26  N   UNL     1       2.477   5.800  18.747  0.00  0.00    +0.000 NA
ATOM     27  C   UNL     1       2.757   4.458  18.468  0.00  0.00    +0.000 A 
ATOM     28  C   UNL     1       3.608   3.989  17.448  0.00  0.00    +0.000 A 
ATOM     29  C   UNL     1       3.926   2.628  17.362  0.00  0.00    +0.000 A 
ATOM     30  C   UNL     1       3.373   1.720  18.251  0.00  0.00    +0.000 A 
ATOM     31  C   UNL     1       2.479   2.151  19.241  0.00  0.00    +0.000 A 
ATOM     32  C   UNL     1       2.186   3.526  19.333  0.00  0.00    +0.000 A 
ATOM     33  S   UNL     1       1.198   4.366  20.464  0.00  0.00    +0.000 S 
ENDBRANCH  24  25
ENDBRANCH   8  24
TORSDOF 6
ENDMDL
MODEL 6
REMARK VINA RESULT:      -7.0      4.068      9.972
REMARK  Name = 
REMARK  7 active torsions:
REMARK  status: ('A' for Active; 'I' for Inactive)
REMARK    1  A    between atoms: C_1  and  O_2
REMARK    2  A    between atoms: O_2  and  C_3
REMARK    3  A    between atoms: C_6  and  C_7
REMARK    4  A    between atoms: C_8  and  C_9
REMARK    5  A    between atoms: C_11  and  N_12
REMARK    6  A    between atoms: C_17  and  S_18
REMARK    7  A    between atoms: S_18  and  C_19
REMARK                            x       y       z     vdW  Elec       q    Type
REMARK                         _______ _______ _______ _____ _____    ______ ____
ROOT
ATOM      1  C   UNL     1      -0.031  10.497  19.768  0.00  0.00    +0.000 C 
ATOM      2  C   UNL     1      -0.099  11.017  18.313  0.00  0.00    +0.000 C 
ATOM      3  C   UNL     1       0.124  12.322  18.176  0.00  0.00    +0.000 C 
ATOM      4  O   UNL     1       1.236  12.827  18.866  0.00  0.00    +0.000 OA
ATOM      5  C   UNL     1       1.063  12.727  20.235  0.00  0.00    +0.000 A 
ATOM      6  C   UNL     1       1.348  13.897  20.915  0.00  0.00    +0.000 A 
ATOM      7  C   UNL     1       0.527  14.238  21.976  0.00  0.00    +0.000 A 
ATOM      8  C   UNL     1      -0.543  13.408  22.366  0.00  0.00    +0.000 A 
ATOM      9  C   UNL     1      -0.650  12.118  21.777  0.00  0.00    +0.000 A 
ATOM     10  C   UNL     1       0.212  11.712  20.721  0.00  0.00    +0.000 A 
ENDROOT
BRANCH   1  14
ATOM     11  C   UNL     1       2.405   6.825  19.843  0.00  0.00    +0.000 A 
ATOM     12  C   UNL     1       1.640   7.179  20.964  0.00  0.00    +0.000 A 
ATOM     13  C   UNL     1       0.810   8.326  20.952  0.00  0.00    +0.000 A 
ATOM     14  C   UNL     1       0.724   9.146  19.818  0.00  0.00    +0.000 A 
ATOM     15  C   UNL     1       1.592   8.831  18.736  0.00  0.00    +0.000 A 
ATOM     16  C   UNL     1       2.419   7.677  18.747  0.00  0.00    +0.000 A 
BRANCH  11  18
ATOM     17  C   UNL     1       2.471   4.593  20.619  0.00  0.00    +0.000 C 
ATOM     18  O   UNL     1       3.129   5.662  19.930  0.00  0.00    +0.000 OA
ENDBRANCH  11  18
ENDBRANCH   1  14
BRANCH   3  19
ATOM     19  N   UNL     1      -0.890  13.225  17.873  0.00  0.00    +0.000 N 
ATOM     20  H   UNL     1      -1.684  13.170  18.530  0.00  0.00    +0.000 HD
ATOM     21  H   UNL     1      -0.506  14.180  17.942  0.00  0.00    +0.000 HD
ENDBRANCH   3  19
BRANCH   2  22
ATOM     22  C   UNL     1      -1.184  10.305  17.523  0.00  0.00    +0.000 C 
ATOM     23  N   UNL     1      -2.084   9.713  16.867  0.00  0.00    +0.000 NA
ENDBRANCH   2  22
BRANCH   8  24
ATOM     24  S   UNL     1      -1.503  14.087  23.712  0.00  0.00    +0.000 S 
BRANCH  24  25
ATOM     25  C   UNL     1      -3.204  14.122  23.290  0.00  0.00    +0.000 A 
ATOM     26  N   UNL     1      -4.013  13.097  23.432  0.00  0.00    +0.000 NA
ATOM     27  C   UNL     1      -5.322  13.558  23.606  0.00  0.00    +0.000 A 
ATOM     28  C   UNL     1      -6.433  12.768  23.961  0.00  0.00    +0.000 A 
ATOM     29  C   UNL     1      -7.664  13.369  24.253  0.00  0.00    +0.000 A 
ATOM     30  C   UNL     1      -7.817  14.743  24.153  0.00  0.00    +0.000 A 
ATOM     31  C   UNL     1      -6.742  15.547  23.747  0.00  0.00    +0.000 A 
ATOM     32  C   UNL     1      -5.502  14.934  23.481  0.00  0.00    +0.000 A 
ATOM     33  S   UNL     1      -3.998  15.643  23.038  0.00  0.00    +0.000 S 
ENDBRANCH  24  25
ENDBRANCH   8  24
TORSDOF 6
ENDMDL
MODEL 7
REMARK VINA RESULT:      -6.9      4.466      7.895
REMARK  Name = 
REMARK  7 active torsions:
REMARK  status: ('A' for Active; 'I' for Inactive)
REMARK    1  A    between atoms: C_1  and  O_2
REMARK    2  A    between atoms: O_2  and  C_3
REMARK    3  A    between atoms: C_6  and  C_7
REMARK    4  A    between atoms: C_8  and  C_9
REMARK    5  A    between atoms: C_11  and  N_12
REMARK    6  A    between atoms: C_17  and  S_18
REMARK    7  A    between atoms: S_18  and  C_19
REMARK                            x       y       z     vdW  Elec       q    Type
REMARK                         _______ _______ _______ _____ _____    ______ ____
ROOT
ATOM      1  C   UNL     1       0.938  10.344  20.407  0.00  0.00    +0.000 C 
ATOM      2  C   UNL     1      -0.316  10.302  21.311  0.00  0.00    +0.000 C 
ATOM      3  C   UNL     1      -1.214  11.252  21.062  0.00  0.00    +0.000 C 
ATOM      4  O   UNL     1      -1.542  11.443  19.711  0.00  0.00    +0.000 OA
ATOM      5  C   UNL     1      -0.454  11.908  18.994  0.00  0.00    +0.000 A 
ATOM      6  C   UNL     1      -0.742  13.003  18.199  0.00  0.00    +0.000 A 
ATOM      7  C   UNL     1       0.209  14.005  18.117  0.00  0.00    +0.000 A 
ATOM      8  C   UNL     1       1.439  13.898  18.796  0.00  0.00    +0.000 A 
ATOM      9  C   UNL     1       1.770  12.660  19.412  0.00  0.00    +0.000 A 
ATOM     10  C   UNL     1       0.836  11.588  19.467  0.00  0.00    +0.000 A 
ENDROOT
BRANCH   1  14
ATOM     11  C   UNL     1       2.350   6.396  19.050  0.00  0.00    +0.000 A 
ATOM     12  C   UNL     1       1.962   6.577  20.385  0.00  0.00    +0.000 A 
ATOM     13  C   UNL     1       1.458   7.820  20.839  0.00  0.00    +0.000 A 
ATOM     14  C   UNL     1       1.329   8.911  19.968  0.00  0.00    +0.000 A 
ATOM     15  C   UNL     1       1.833   8.737  18.649  0.00  0.00    +0.000 A 
ATOM     16  C   UNL     1       2.332   7.488  18.193  0.00  0.00    +0.000 A 
BRANCH  11  18
ATOM     17  C   UNL     1       1.873   4.431  17.824  0.00  0.00    +0.000 C 
ATOM     18  O   UNL     1       2.767   5.137  18.692  0.00  0.00    +0.000 OA
ENDBRANCH  11  18
ENDBRANCH   1  14
BRANCH   3  19
ATOM     19  N   UNL     1      -1.415  12.332  21.916  0.00  0.00    +0.000 N 
ATOM     20  H   UNL     1      -1.586  13.215  21.410  0.00  0.00    +0.000 HD
ATOM     21  H   UNL     1      -2.253  12.142  22.487  0.00  0.00    +0.000 HD
ENDBRANCH   3  19
BRANCH   2  22
ATOM     22  C   UNL     1       0.039   9.891  22.730  0.00  0.00    +0.000 C 
ATOM     23  N   UNL     1       0.334   9.549  23.908  0.00  0.00    +0.000 NA
ENDBRANCH   2  22
BRANCH   8  24
ATOM     24  S   UNL     1       2.477  15.340  18.597  0.00  0.00    +0.000 S 
BRANCH  24  25
ATOM     25  C   UNL     1       4.158  14.923  18.870  0.00  0.00    +0.000 A 
ATOM     26  N   UNL     1       5.007  14.645  17.907  0.00  0.00    +0.000 NA
ATOM     27  C   UNL     1       6.305  14.950  18.329  0.00  0.00    +0.000 A 
ATOM     28  C   UNL     1       7.456  14.951  17.516  0.00  0.00    +0.000 A 
ATOM     29  C   UNL     1       8.676  15.421  18.019  0.00  0.00    +0.000 A 
ATOM     30  C   UNL     1       8.777  15.847  19.334  0.00  0.00    +0.000 A 
ATOM     31  C   UNL     1       7.660  15.804  20.181  0.00  0.00    +0.000 A 
ATOM     32  C   UNL     1       6.432  15.354  19.657  0.00  0.00    +0.000 A 
ATOM     33  S   UNL     1       4.888  15.249  20.409  0.00  0.00    +0.000 S 
ENDBRANCH  24  25
ENDBRANCH   8  24
TORSDOF 6
ENDMDL
MODEL 8
REMARK VINA RESULT:      -6.9      1.495      1.827
REMARK  Name = 
REMARK  7 active torsions:
REMARK  status: ('A' for Active; 'I' for Inactive)
REMARK    1  A    between atoms: C_1  and  O_2
REMARK    2  A    between atoms: O_2  and  C_3
REMARK    3  A    between atoms: C_6  and  C_7
REMARK    4  A    between atoms: C_8  and  C_9
REMARK    5  A    between atoms: C_11  and  N_12
REMARK    6  A    between atoms: C_17  and  S_18
REMARK    7  A    between atoms: S_18  and  C_19
REMARK                            x       y       z     vdW  Elec       q    Type
REMARK                         _______ _______ _______ _____ _____    ______ ____
ROOT
ATOM      1  C   UNL     1      -0.940  12.007  20.587  0.00  0.00    +0.000 C 
ATOM      2  C   UNL     1      -0.132  13.316  20.742  0.00  0.00    +0.000 C 
ATOM      3  C   UNL     1       1.037  13.328  20.106  0.00  0.00    +0.000 C 
ATOM      4  O   UNL     1       1.015  12.875  18.778  0.00  0.00    +0.000 OA
ATOM      5  C   UNL     1       0.688  11.532  18.715  0.00  0.00    +0.000 A 
ATOM      6  C   UNL     1       1.542  10.793  17.915  0.00  0.00    +0.000 A 
ATOM      7  C   UNL     1       1.891   9.526  18.349  0.00  0.00    +0.000 A 
ATOM      8  C   UNL     1       1.372   8.998  19.548  0.00  0.00    +0.000 A 
ATOM      9  C   UNL     1       0.333   9.709  20.210  0.00  0.00    +0.000 A 
ATOM     10  C   UNL     1      -0.090  10.990  19.760  0.00  0.00    +0.000 A 
ENDROOT
BRANCH   1  14
ATOM     11  C   UNL     1      -5.244  12.590  19.837  0.00  0.00    +0.000 A 
ATOM     12  C   UNL     1      -4.715  12.855  21.109  0.00  0.00    +0.000 A 
ATOM     13  C   UNL     1      -3.329  12.724  21.367  0.00  0.00    +0.000 A 
ATOM     14  C   UNL     1      -2.438  12.327  20.359  0.00  0.00    +0.000 A 
ATOM     15  C   UNL     1      -3.012  11.956  19.111  0.00  0.00    +0.000 A 
ATOM     16  C   UNL     1      -4.402  12.094  18.852  0.00  0.00    +0.000 A 
BRANCH  11  18
ATOM     17  C   UNL     1      -7.254  11.846  18.841  0.00  0.00    +0.000 C 
ATOM     18  O   UNL     1      -6.589  12.806  19.670  0.00  0.00    +0.000 OA
ENDBRANCH  11  18
ENDBRANCH   1  14
BRANCH   3  19
ATOM     19  N   UNL     1       2.253  13.246  20.777  0.00  0.00    +0.000 N 
ATOM     20  H   UNL     1       2.538  12.274  20.970  0.00  0.00    +0.000 HD
ATOM     21  H   UNL     1       2.982  13.663  20.179  0.00  0.00    +0.000 HD
ENDBRANCH   3  19
BRANCH   2  22
ATOM     22  C   UNL     1      -0.289  13.901  22.136  0.00  0.00    +0.000 C 
ATOM     23  N   UNL     1      -0.420  14.386  23.293  0.00  0.00    +0.000 NA
ENDBRANCH   2  22
BRANCH   8  24
ATOM     24  S   UNL     1       2.017   7.377  19.937  0.00  0.00    +0.000 S 
BRANCH  24  25
ATOM     25  C   UNL     1       2.688   6.627  18.501  0.00  0.00    +0.000 A 
ATOM     26  N   UNL     1       3.624   7.175  17.760  0.00  0.00    +0.000 NA
ATOM     27  C   UNL     1       4.352   6.171  17.113  0.00  0.00    +0.000 A 
ATOM     28  C   UNL     1       5.537   6.359  16.376  0.00  0.00    +0.000 A 
ATOM     29  C   UNL     1       6.257   5.255  15.901  0.00  0.00    +0.000 A 
ATOM     30  C   UNL     1       5.789   3.968  16.110  0.00  0.00    +0.000 A 
ATOM     31  C   UNL     1       4.582   3.755  16.792  0.00  0.00    +0.000 A 
ATOM     32  C   UNL     1       3.880   4.871  17.288  0.00  0.00    +0.000 A 
ATOM     33  S   UNL     1       2.430   4.937  18.211  0.00  0.00    +0.000 S 
ENDBRANCH  24  25
ENDBRANCH   8  24
TORSDOF 6
ENDMDL
MODEL 9
REMARK VINA RESULT:      -6.9      1.652      2.165
REMARK  Name = 
REMARK  7 active torsions:
REMARK  status: ('A' for Active; 'I' for Inactive)
REMARK    1  A    between atoms: C_1  and  O_2
REMARK    2  A    between atoms: O_2  and  C_3
REMARK    3  A    between atoms: C_6  and  C_7
REMARK    4  A    between atoms: C_8  and  C_9
REMARK    5  A    between atoms: C_11  and  N_12
REMARK    6  A    between atoms: C_17  and  S_18
REMARK    7  A    between atoms: S_18  and  C_19
REMARK                            x       y       z     vdW  Elec       q    Type
REMARK                         _______ _______ _______ _____ _____    ______ ____
ROOT
ATOM      1  C   UNL     1      -0.863  12.080  20.949  0.00  0.00    +0.000 C 
ATOM      2  C   UNL     1      -0.032  13.343  20.624  0.00  0.00    +0.000 C 
ATOM      3  C   UNL     1       1.017  13.132  19.833  0.00  0.00    +0.000 C 
ATOM      4  O   UNL     1       0.774  12.353  18.692  0.00  0.00    +0.000 OA
ATOM      5  C   UNL     1       0.432  11.057  19.035  0.00  0.00    +0.000 A 
ATOM      6  C   UNL     1       1.138  10.095  18.334  0.00  0.00    +0.000 A 
ATOM      7  C   UNL     1       1.545   8.968  19.025  0.00  0.00    +0.000 A 
ATOM      8  C   UNL     1       1.227   8.793  20.387  0.00  0.00    +0.000 A 
ATOM      9  C   UNL     1       0.316   9.702  20.993  0.00  0.00    +0.000 A 
ATOM     10  C   UNL     1      -0.167  10.842  20.295  0.00  0.00    +0.000 A 
ENDROOT
BRANCH   1  14
ATOM     11  C   UNL     1      -5.215  12.691  20.619  0.00  0.00    +0.000 A 
ATOM     12  C   UNL     1      -4.589  12.786  21.870  0.00  0.00    +0.000 A 
ATOM     13  C   UNL     1      -3.187  12.643  22.001  0.00  0.00    +0.000 A 
ATOM     14  C   UNL     1      -2.376  12.403  20.883  0.00  0.00    +0.000 A 
ATOM     15  C   UNL     1      -3.044  12.199  19.643  0.00  0.00    +0.000 A 
ATOM     16  C   UNL     1      -4.450  12.349  19.512  0.00  0.00    +0.000 A 
BRANCH  11  18
ATOM     17  C   UNL     1      -7.369  11.717  20.621  0.00  0.00    +0.000 C 
ATOM     18  O   UNL     1      -6.571  12.905  20.587  0.00  0.00    +0.000 OA
ENDBRANCH  11  18
ENDBRANCH   1  14
BRANCH   3  19
ATOM     19  N   UNL     1       2.326  13.166  20.302  0.00  0.00    +0.000 N 
ATOM     20  H   UNL     1       2.719  12.226  20.460  0.00  0.00    +0.000 HD
ATOM     21  H   UNL     1       2.915  13.624  19.590  0.00  0.00    +0.000 HD
ENDBRANCH   3  19
BRANCH   2  22
ATOM     22  C   UNL     1       0.046  14.274  21.823  0.00  0.00    +0.000 C 
ATOM     23  N   UNL     1       0.111  15.047  22.818  0.00  0.00    +0.000 NA
ENDBRANCH   2  22
BRANCH   8  24
ATOM     24  S   UNL     1       1.917   7.298  21.082  0.00  0.00    +0.000 S 
BRANCH  24  25
ATOM     25  C   UNL     1       1.861   5.998  19.908  0.00  0.00    +0.000 A 
ATOM     26  N   UNL     1       2.586   5.972  18.812  0.00  0.00    +0.000 NA
ATOM     27  C   UNL     1       2.794   4.644  18.425  0.00  0.00    +0.000 A 
ATOM     28  C   UNL     1       3.664   4.211  17.404  0.00  0.00    +0.000 A 
ATOM     29  C   UNL     1       3.901   2.844  17.210  0.00  0.00    +0.000 A 
ATOM     30  C   UNL     1       3.249   1.900  17.987  0.00  0.00    +0.000 A 
ATOM     31  C   UNL     1       2.336   2.302  18.972  0.00  0.00    +0.000 A 
ATOM     32  C   UNL     1       2.125   3.680  19.176  0.00  0.00    +0.000 A 
ATOM     33  S   UNL     1       1.136   4.481  20.334  0.00  0.00    +0.000 S 
ENDBRANCH  24  25
ENDBRANCH   8  24
TORSDOF 6
ENDMDL
