MODEL 1
REMARK VINA RESULT:      -7.2      0.000      0.000
REMARK  Name = 
REMARK  6 active torsions:
REMARK  status: ('A' for Active; 'I' for Inactive)
REMARK    1  A    between atoms: C_1  and  C_2
REMARK    2  A    between atoms: C_4  and  C_5
REMARK    3  A    between atoms: C_5  and  C_6
REMARK    4  A    between atoms: C_6  and  C_7
REMARK    5  A    between atoms: C_7  and  C_8
REMARK    6  A    between atoms: C_12  and  C_13
REMARK                            x       y       z     vdW  Elec       q    Type
REMARK                         _______ _______ _______ _____ _____    ______ ____
ROOT
ATOM      1  C   UNL     1      -0.293  12.826  21.048  0.00  0.00    +0.000 C 
ATOM      2  C   UNL     1       1.061  13.100  20.360  0.00  0.00    +0.000 A 
ATOM      3  C   UNL     1       1.686  14.355  20.409  0.00  0.00    +0.000 A 
ATOM      4  C   UNL     1       2.496  14.756  19.352  0.00  0.00    +0.000 A 
ATOM      5  C   UNL     1       2.741  13.889  18.289  0.00  0.00    +0.000 A 
ATOM      6  C   UNL     1       2.250  12.583  18.309  0.00  0.00    +0.000 A 
ATOM      7  C   UNL     1       1.428  12.180  19.353  0.00  0.00    +0.000 A 
ATOM      8  C   UNL     1       0.770  10.844  19.310  0.00  0.00    +0.000 C 
ATOM      9  O   UNL     1       0.707  10.172  18.296  0.00  0.00    +0.000 OA
ATOM     10  C   UNL     1       0.164  10.357  20.576  0.00  0.00    +0.000 A 
ATOM     11  C   UNL     1       0.152   8.979  20.853  0.00  0.00    +0.000 A 
ATOM     12  C   UNL     1      -0.180   8.523  22.128  0.00  0.00    +0.000 A 
ATOM     13  C   UNL     1      -0.488   9.451  23.115  0.00  0.00    +0.000 A 
ATOM     14  C   UNL     1      -0.540  10.823  22.811  0.00  0.00    +0.000 A 
ATOM     15  C   UNL     1      -0.264  11.315  21.510  0.00  0.00    +0.000 A 
ENDROOT
BRANCH   1  16
ATOM     16  C   UNL     1      -1.335  13.084  19.766  0.00  0.00    +0.000 C 
BRANCH  16  20
ATOM     17  C   UNL     1      -6.398  12.700  20.185  0.00  0.00    +0.000 C 
ATOM     18  C   UNL     1      -5.103  12.237  19.568  0.00  0.00    +0.000 A 
ATOM     19  C   UNL     1      -3.849  12.636  20.072  0.00  0.00    +0.000 A 
ATOM     20  C   UNL     1      -2.640  12.333  19.383  0.00  0.00    +0.000 A 
ATOM     21  C   UNL     1      -2.785  11.555  18.229  0.00  0.00    +0.000 A 
ATOM     22  C   UNL     1      -4.056  11.161  17.822  0.00  0.00    +0.000 A 
ATOM     23  N   UNL     1      -5.213  11.490  18.453  0.00  0.00    +0.000 NA
ENDBRANCH  16  20
ENDBRANCH   1  16
BRANCH   1  24
ATOM     24  C   UNL     1      -0.508  13.736  22.321  0.00  0.00    +0.000 C 
BRANCH  24  25
ATOM     25  C   UNL     1      -1.877  14.224  22.728  0.00  0.00    +0.000 A 
ATOM     26  C   UNL     1      -2.371  15.433  22.209  0.00  0.00    +0.000 A 
ATOM     27  C   UNL     1      -3.712  15.744  22.384  0.00  0.00    +0.000 A 
ATOM     28  N   UNL     1      -4.596  14.933  23.003  0.00  0.00    +0.000 NA
ATOM     29  C   UNL     1      -4.093  13.811  23.560  0.00  0.00    +0.000 A 
ATOM     30  C   UNL     1      -5.044  12.811  24.155  0.00  0.00    +0.000 C 
ATOM     31  C   UNL     1      -2.750  13.484  23.516  0.00  0.00    +0.000 A 
ENDBRANCH  24  25
ENDBRANCH   1  24
TORSDOF 4
ENDMDL
MODEL 2
REMARK VINA RESULT:      -7.1      2.120      4.496
REMARK  Name = 
REMARK  6 active torsions:
REMARK  status: ('A' for Active; 'I' for Inactive)
REMARK    1  A    between atoms: C_1  and  C_2
REMARK    2  A    between atoms: C_4  and  C_5
REMARK    3  A    between atoms: C_5  and  C_6
REMARK    4  A    between atoms: C_6  and  C_7
REMARK    5  A    between atoms: C_7  and  C_8
REMARK    6  A    between atoms: C_12  and  C_13
REMARK                            x       y       z     vdW  Elec       q    Type
REMARK                         _______ _______ _______ _____ _____    ______ ____
ROOT
ATOM      1  C   UNL     1      -1.350  11.951  20.853  0.00  0.00    +0.000 C 
ATOM      2  C   UNL     1      -0.803  10.624  21.420  0.00  0.00    +0.000 A 
ATOM      3  C   UNL     1      -0.781  10.349  22.796  0.00  0.00    +0.000 A 
ATOM      4  C   UNL     1       0.210   9.520  23.311  0.00  0.00    +0.000 A 
ATOM      5  C   UNL     1       1.128   8.912  22.457  0.00  0.00    +0.000 A 
ATOM      6  C   UNL     1       1.016   9.055  21.074  0.00  0.00    +0.000 A 
ATOM      7  C   UNL     1       0.039   9.894  20.552  0.00  0.00    +0.000 A 
ATOM      8  C   UNL     1       0.006  10.180  19.091  0.00  0.00    +0.000 C 
ATOM      9  O   UNL     1       0.936   9.923  18.347  0.00  0.00    +0.000 OA
ATOM     10  C   UNL     1      -1.225  10.823  18.565  0.00  0.00    +0.000 A 
ATOM     11  C   UNL     1      -1.656  10.528  17.260  0.00  0.00    +0.000 A 
ATOM     12  C   UNL     1      -2.927  10.918  16.836  0.00  0.00    +0.000 A 
ATOM     13  C   UNL     1      -3.755  11.590  17.725  0.00  0.00    +0.000 A 
ATOM     14  C   UNL     1      -3.290  11.941  19.006  0.00  0.00    +0.000 A 
ATOM     15  C   UNL     1      -1.984  11.610  19.447  0.00  0.00    +0.000 A 
ENDROOT
BRANCH   1  16
ATOM     16  C   UNL     1       0.069  12.824  20.722  0.00  0.00    +0.000 C 
BRANCH  16  20
ATOM     17  C   UNL     1      -1.001  17.295  18.523  0.00  0.00    +0.000 C 
ATOM     18  C   UNL     1      -0.068  16.127  18.713  0.00  0.00    +0.000 A 
ATOM     19  C   UNL     1      -0.468  14.948  19.372  0.00  0.00    +0.000 A 
ATOM     20  C   UNL     1       0.466  13.922  19.697  0.00  0.00    +0.000 A 
ATOM     21  C   UNL     1       1.774  14.138  19.249  0.00  0.00    +0.000 A 
ATOM     22  C   UNL     1       2.080  15.310  18.563  0.00  0.00    +0.000 A 
ATOM     23  N   UNL     1       1.199  16.309  18.295  0.00  0.00    +0.000 NA
ENDBRANCH  16  20
ENDBRANCH   1  16
BRANCH   1  24
ATOM     24  C   UNL     1      -2.473  12.572  21.774  0.00  0.00    +0.000 C 
BRANCH  24  25
ATOM     25  C   UNL     1      -2.327  13.940  22.394  0.00  0.00    +0.000 A 
ATOM     26  C   UNL     1      -2.954  15.047  21.800  0.00  0.00    +0.000 A 
ATOM     27  C   UNL     1      -3.028  16.240  22.506  0.00  0.00    +0.000 A 
ATOM     28  N   UNL     1      -2.554  16.400  23.760  0.00  0.00    +0.000 NA
ATOM     29  C   UNL     1      -1.889  15.352  24.289  0.00  0.00    +0.000 A 
ATOM     30  C   UNL     1      -1.446  15.425  25.723  0.00  0.00    +0.000 C 
ATOM     31  C   UNL     1      -1.687  14.166  23.607  0.00  0.00    +0.000 A 
ENDBRANCH  24  25
ENDBRANCH   1  24
TORSDOF 4
ENDMDL
MODEL 3
REMARK VINA RESULT:      -7.1      2.123      4.629
REMARK  Name = 
REMARK  6 active torsions:
REMARK  status: ('A' for Active; 'I' for Inactive)
REMARK    1  A    between atoms: C_1  and  C_2
REMARK    2  A    between atoms: C_4  and  C_5
REMARK    3  A    between atoms: C_5  and  C_6
REMARK    4  A    between atoms: C_6  and  C_7
REMARK    5  A    between atoms: C_7  and  C_8
REMARK    6  A    between atoms: C_12  and  C_13
REMARK                            x       y       z     vdW  Elec       q    Type
REMARK                         _______ _______ _______ _____ _____    ______ ____
ROOT
ATOM      1  C   UNL     1      -1.358  11.938  20.826  0.00  0.00    +0.000 C 
ATOM      2  C   UNL     1      -0.807  10.615  21.396  0.00  0.00    +0.000 A 
ATOM      3  C   UNL     1      -0.802  10.336  22.771  0.00  0.00    +0.000 A 
ATOM      4  C   UNL     1       0.190   9.514  23.297  0.00  0.00    +0.000 A 
ATOM      5  C   UNL     1       1.126   8.918  22.454  0.00  0.00    +0.000 A 
ATOM      6  C   UNL     1       1.032   9.065  21.070  0.00  0.00    +0.000 A 
ATOM      7  C   UNL     1       0.054   9.896  20.538  0.00  0.00    +0.000 A 
ATOM      8  C   UNL     1       0.039  10.187  19.077  0.00  0.00    +0.000 C 
ATOM      9  O   UNL     1       0.981   9.942  18.345  0.00  0.00    +0.000 OA
ATOM     10  C   UNL     1      -1.191  10.820  18.536  0.00  0.00    +0.000 A 
ATOM     11  C   UNL     1      -1.601  10.526  17.224  0.00  0.00    +0.000 A 
ATOM     12  C   UNL     1      -2.869  10.905  16.784  0.00  0.00    +0.000 A 
ATOM     13  C   UNL     1      -3.716  11.566  17.664  0.00  0.00    +0.000 A 
ATOM     14  C   UNL     1      -3.273  11.917  18.952  0.00  0.00    +0.000 A 
ATOM     15  C   UNL     1      -1.970  11.597  19.410  0.00  0.00    +0.000 A 
ENDROOT
BRANCH   1  16
ATOM     16  C   UNL     1       0.054  12.826  20.718  0.00  0.00    +0.000 C 
BRANCH  16  20
ATOM     17  C   UNL     1      -0.988  17.282  18.476  0.00  0.00    +0.000 C 
ATOM     18  C   UNL     1      -0.058  16.114  18.685  0.00  0.00    +0.000 A 
ATOM     19  C   UNL     1      -0.466  14.940  19.348  0.00  0.00    +0.000 A 
ATOM     20  C   UNL     1       0.463  13.916  19.689  0.00  0.00    +0.000 A 
ATOM     21  C   UNL     1       1.776  14.128  19.254  0.00  0.00    +0.000 A 
ATOM     22  C   UNL     1       2.091  15.294  18.563  0.00  0.00    +0.000 A 
ATOM     23  N   UNL     1       1.214  16.292  18.279  0.00  0.00    +0.000 NA
ENDBRANCH  16  20
ENDBRANCH   1  16
BRANCH   1  24
ATOM     24  C   UNL     1      -2.500  12.546  21.733  0.00  0.00    +0.000 C 
BRANCH  24  25
ATOM     25  C   UNL     1      -2.315  13.841  22.485  0.00  0.00    +0.000 A 
ATOM     26  C   UNL     1      -1.557  13.859  23.668  0.00  0.00    +0.000 A 
ATOM     27  C   UNL     1      -1.181  15.080  24.210  0.00  0.00    +0.000 A 
ATOM     28  N   UNL     1      -1.475  16.272  23.648  0.00  0.00    +0.000 NA
ATOM     29  C   UNL     1      -2.265  16.242  22.555  0.00  0.00    +0.000 A 
ATOM     30  C   UNL     1      -2.526  17.525  21.816  0.00  0.00    +0.000 C 
ATOM     31  C   UNL     1      -2.763  15.070  22.017  0.00  0.00    +0.000 A 
ENDBRANCH  24  25
ENDBRANCH   1  24
TORSDOF 4
ENDMDL
MODEL 4
REMARK VINA RESULT:      -7.1      0.931      1.200
REMARK  Name = 
REMARK  6 active torsions:
REMARK  status: ('A' for Active; 'I' for Inactive)
REMARK    1  A    between atoms: C_1  and  C_2
REMARK    2  A    between atoms: C_4  and  C_5
REMARK    3  A    between atoms: C_5  and  C_6
REMARK    4  A    between atoms: C_6  and  C_7
REMARK    5  A    between atoms: C_7  and  C_8
REMARK    6  A    between atoms: C_12  and  C_13
REMARK                            x       y       z     vdW  Elec       q    Type
REMARK                         _______ _______ _______ _____ _____    ______ ____
ROOT
ATOM      1  C   UNL     1      -0.875  12.959  21.928  0.00  0.00    +0.000 C 
ATOM      2  C   UNL     1       0.413  13.699  21.510  0.00  0.00    +0.000 A 
ATOM      3  C   UNL     1       0.734  14.976  21.995  0.00  0.00    +0.000 A 
ATOM      4  C   UNL     1       1.481  15.839  21.201  0.00  0.00    +0.000 A 
ATOM      5  C   UNL     1       1.966  15.413  19.966  0.00  0.00    +0.000 A 
ATOM      6  C   UNL     1       1.783  14.095  19.546  0.00  0.00    +0.000 A 
ATOM      7  C   UNL     1       1.025  13.231  20.326  0.00  0.00    +0.000 A 
ATOM      8  C   UNL     1       0.690  11.871  19.819  0.00  0.00    +0.000 C 
ATOM      9  O   UNL     1       0.827  11.549  18.652  0.00  0.00    +0.000 OA
ATOM     10  C   UNL     1       0.151  10.904  20.809  0.00  0.00    +0.000 A 
ATOM     11  C   UNL     1       0.437   9.535  20.667  0.00  0.00    +0.000 A 
ATOM     12  C   UNL     1       0.158   8.649  21.707  0.00  0.00    +0.000 A 
ATOM     13  C   UNL     1      -0.398   9.142  22.880  0.00  0.00    +0.000 A 
ATOM     14  C   UNL     1      -0.745  10.501  22.988  0.00  0.00    +0.000 A 
ATOM     15  C   UNL     1      -0.527  11.418  21.928  0.00  0.00    +0.000 A 
ENDROOT
BRANCH   1  16
ATOM     16  C   UNL     1      -1.886  13.387  20.669  0.00  0.00    +0.000 C 
BRANCH  16  20
ATOM     17  C   UNL     1      -6.873  12.660  19.912  0.00  0.00    +0.000 C 
ATOM     18  C   UNL     1      -5.442  12.306  19.597  0.00  0.00    +0.000 A 
ATOM     19  C   UNL     1      -4.366  12.766  20.382  0.00  0.00    +0.000 A 
ATOM     20  C   UNL     1      -3.014  12.569  19.980  0.00  0.00    +0.000 A 
ATOM     21  C   UNL     1      -2.838  11.830  18.805  0.00  0.00    +0.000 A 
ATOM     22  C   UNL     1      -3.953  11.370  18.110  0.00  0.00    +0.000 A 
ATOM     23  N   UNL     1      -5.243  11.598  18.469  0.00  0.00    +0.000 NA
ENDBRANCH  16  20
ENDBRANCH   1  16
BRANCH   1  24
ATOM     24  C   UNL     1      -1.350  13.366  23.379  0.00  0.00    +0.000 C 
BRANCH  24  25
ATOM     25  C   UNL     1      -2.722  13.942  23.634  0.00  0.00    +0.000 A 
ATOM     26  C   UNL     1      -2.953  15.312  23.429  0.00  0.00    +0.000 A 
ATOM     27  C   UNL     1      -4.260  15.781  23.419  0.00  0.00    +0.000 A 
ATOM     28  N   UNL     1      -5.342  14.988  23.566  0.00  0.00    +0.000 NA
ATOM     29  C   UNL     1      -5.102  13.688  23.836  0.00  0.00    +0.000 A 
ATOM     30  C   UNL     1      -6.263  12.734  23.889  0.00  0.00    +0.000 C 
ATOM     31  C   UNL     1      -3.828  13.167  23.963  0.00  0.00    +0.000 A 
ENDBRANCH  24  25
ENDBRANCH   1  24
TORSDOF 4
ENDMDL
MODEL 5
REMARK VINA RESULT:      -7.0      1.143      1.254
REMARK  Name = 
REMARK  6 active torsions:
REMARK  status: ('A' for Active; 'I' for Inactive)
REMARK    1  A    between atoms: C_1  and  C_2
REMARK    2  A    between atoms: C_4  and  C_5
REMARK    3  A    between atoms: C_5  and  C_6
REMARK    4  A    between atoms: C_6  and  C_7
REMARK    5  A    between atoms: C_7  and  C_8
REMARK    6  A    between atoms: C_12  and  C_13
REMARK                            x       y       z     vdW  Elec       q    Type
REMARK                         _______ _______ _______ _____ _____    ______ ____
ROOT
ATOM      1  C   UNL     1      -0.527  12.933  20.527  0.00  0.00    +0.000 C 
ATOM      2  C   UNL     1       0.871  13.332  20.010  0.00  0.00    +0.000 A 
ATOM      3  C   UNL     1       1.278  14.671  19.910  0.00  0.00    +0.000 A 
ATOM      4  C   UNL     1       2.195  15.033  18.929  0.00  0.00    +0.000 A 
ATOM      5  C   UNL     1       2.756  14.063  18.100  0.00  0.00    +0.000 A 
ATOM      6  C   UNL     1       2.473  12.711  18.296  0.00  0.00    +0.000 A 
ATOM      7  C   UNL     1       1.547  12.341  19.265  0.00  0.00    +0.000 A 
ATOM      8  C   UNL     1       1.119  10.920  19.381  0.00  0.00    +0.000 C 
ATOM      9  O   UNL     1       1.342  10.090  18.516  0.00  0.00    +0.000 OA
ATOM     10  C   UNL     1       0.377  10.545  20.611  0.00  0.00    +0.000 A 
ATOM     11  C   UNL     1       0.524   9.252  21.142  0.00  0.00    +0.000 A 
ATOM     12  C   UNL     1       0.042   8.958  22.417  0.00  0.00    +0.000 A 
ATOM     13  C   UNL     1      -0.575   9.963  23.150  0.00  0.00    +0.000 A 
ATOM     14  C   UNL     1      -0.780  11.235  22.585  0.00  0.00    +0.000 A 
ATOM     15  C   UNL     1      -0.353  11.549  21.270  0.00  0.00    +0.000 A 
ENDROOT
BRANCH   1  16
ATOM     16  C   UNL     1      -1.349  12.784  19.079  0.00  0.00    +0.000 C 
BRANCH  16  20
ATOM     17  C   UNL     1      -6.215  11.500  18.284  0.00  0.00    +0.000 C 
ATOM     18  C   UNL     1      -4.748  11.165  18.196  0.00  0.00    +0.000 A 
ATOM     19  C   UNL     1      -3.765  11.930  18.854  0.00  0.00    +0.000 A 
ATOM     20  C   UNL     1      -2.376  11.709  18.628  0.00  0.00    +0.000 A 
ATOM     21  C   UNL     1      -2.068  10.642  17.777  0.00  0.00    +0.000 A 
ATOM     22  C   UNL     1      -3.098   9.903  17.202  0.00  0.00    +0.000 A 
ATOM     23  N   UNL     1      -4.423  10.143  17.381  0.00  0.00    +0.000 NA
ENDBRANCH  16  20
ENDBRANCH   1  16
BRANCH   1  24
ATOM     24  C   UNL     1      -1.103  13.985  21.555  0.00  0.00    +0.000 C 
BRANCH  24  25
ATOM     25  C   UNL     1      -2.554  14.399  21.541  0.00  0.00    +0.000 A 
ATOM     26  C   UNL     1      -2.933  15.594  20.907  0.00  0.00    +0.000 A 
ATOM     27  C   UNL     1      -4.280  15.838  20.678  0.00  0.00    +0.000 A 
ATOM     28  N   UNL     1      -5.265  14.974  21.002  0.00  0.00    +0.000 NA
ATOM     29  C   UNL     1      -4.893  13.865  21.676  0.00  0.00    +0.000 A 
ATOM     30  C   UNL     1      -5.925  12.809  21.956  0.00  0.00    +0.000 C 
ATOM     31  C   UNL     1      -3.583  13.603  22.030  0.00  0.00    +0.000 A 
ENDBRANCH  24  25
ENDBRANCH   1  24
TORSDOF 4
ENDMDL
MODEL 6
REMARK VINA RESULT:      -7.0      0.985      1.555
REMARK  Name = 
REMARK  6 active torsions:
REMARK  status: ('A' for Active; 'I' for Inactive)
REMARK    1  A    between atoms: C_1  and  C_2
REMARK    2  A    between atoms: C_4  and  C_5
REMARK    3  A    between atoms: C_5  and  C_6
REMARK    4  A    between atoms: C_6  and  C_7
REMARK    5  A    between atoms: C_7  and  C_8
REMARK    6  A    between atoms: C_12  and  C_13
REMARK                            x       y       z     vdW  Elec       q    Type
REMARK                         _______ _______ _______ _____ _____    ______ ____
ROOT
ATOM      1  C   UNL     1      -0.602  12.895  21.697  0.00  0.00    +0.000 C 
ATOM      2  C   UNL     1       0.725  13.620  21.389  0.00  0.00    +0.000 A 
ATOM      3  C   UNL     1       0.999  14.913  21.858  0.00  0.00    +0.000 A 
ATOM      4  C   UNL     1       1.828  15.747  21.115  0.00  0.00    +0.000 A 
ATOM      5  C   UNL     1       2.438  15.275  19.954  0.00  0.00    +0.000 A 
ATOM      6  C   UNL     1       2.295  13.943  19.566  0.00  0.00    +0.000 A 
ATOM      7  C   UNL     1       1.456  13.108  20.294  0.00  0.00    +0.000 A 
ATOM      8  C   UNL     1       1.171  11.730  19.805  0.00  0.00    +0.000 C 
ATOM      9  O   UNL     1       1.429  11.365  18.672  0.00  0.00    +0.000 OA
ATOM     10  C   UNL     1       0.527  10.801  20.768  0.00  0.00    +0.000 A 
ATOM     11  C   UNL     1       0.822   9.428  20.708  0.00  0.00    +0.000 A 
ATOM     12  C   UNL     1       0.432   8.580  21.744  0.00  0.00    +0.000 A 
ATOM     13  C   UNL     1      -0.241   9.116  22.834  0.00  0.00    +0.000 A 
ATOM     14  C   UNL     1      -0.593  10.478  22.854  0.00  0.00    +0.000 A 
ATOM     15  C   UNL     1      -0.262  11.355  21.791  0.00  0.00    +0.000 A 
ENDROOT
BRANCH   1  16
ATOM     16  C   UNL     1      -1.475  13.276  20.324  0.00  0.00    +0.000 C 
BRANCH  16  20
ATOM     17  C   UNL     1      -6.364  12.315  19.259  0.00  0.00    +0.000 C 
ATOM     18  C   UNL     1      -4.900  12.051  19.013  0.00  0.00    +0.000 A 
ATOM     19  C   UNL     1      -3.897  12.536  19.874  0.00  0.00    +0.000 A 
ATOM     20  C   UNL     1      -2.516  12.428  19.543  0.00  0.00    +0.000 A 
ATOM     21  C   UNL     1      -2.235  11.745  18.354  0.00  0.00    +0.000 A 
ATOM     22  C   UNL     1      -3.283  11.255  17.580  0.00  0.00    +0.000 A 
ATOM     23  N   UNL     1      -4.602  11.399  17.873  0.00  0.00    +0.000 NA
ENDBRANCH  16  20
ENDBRANCH   1  16
BRANCH   1  24
ATOM     24  C   UNL     1      -1.225  13.356  23.074  0.00  0.00    +0.000 C 
BRANCH  24  25
ATOM     25  C   UNL     1      -2.703  13.619  23.230  0.00  0.00    +0.000 A 
ATOM     26  C   UNL     1      -3.566  12.566  23.577  0.00  0.00    +0.000 A 
ATOM     27  C   UNL     1      -4.866  12.860  23.964  0.00  0.00    +0.000 A 
ATOM     28  N   UNL     1      -5.354  14.115  24.061  0.00  0.00    +0.000 NA
ATOM     29  C   UNL     1      -4.538  15.110  23.655  0.00  0.00    +0.000 A 
ATOM     30  C   UNL     1      -4.979  16.533  23.853  0.00  0.00    +0.000 C 
ATOM     31  C   UNL     1      -3.266  14.887  23.160  0.00  0.00    +0.000 A 
ENDBRANCH  24  25
ENDBRANCH   1  24
TORSDOF 4
ENDMDL
MODEL 7
REMARK VINA RESULT:      -6.9      1.200      1.729
REMARK  Name = 
REMARK  6 active torsions:
REMARK  status: ('A' for Active; 'I' for Inactive)
REMARK    1  A    between atoms: C_1  and  C_2
REMARK    2  A    between atoms: C_4  and  C_5
REMARK    3  A    between atoms: C_5  and  C_6
REMARK    4  A    between atoms: C_6  and  C_7
REMARK    5  A    between atoms: C_7  and  C_8
REMARK    6  A    between atoms: C_12  and  C_13
REMARK                            x       y       z     vdW  Elec       q    Type
REMARK                         _______ _______ _______ _____ _____    ______ ____
ROOT
ATOM      1  C   UNL     1      -0.384  12.590  20.401  0.00  0.00    +0.000 C 
ATOM      2  C   UNL     1       0.970  13.187  19.965  0.00  0.00    +0.000 A 
ATOM      3  C   UNL     1       1.254  14.557  20.074  0.00  0.00    +0.000 A 
ATOM      4  C   UNL     1       2.131  15.146  19.169  0.00  0.00    +0.000 A 
ATOM      5  C   UNL     1       2.775  14.367  18.209  0.00  0.00    +0.000 A 
ATOM      6  C   UNL     1       2.618  12.981  18.195  0.00  0.00    +0.000 A 
ATOM      7  C   UNL     1       1.732  12.387  19.086  0.00  0.00    +0.000 A 
ATOM      8  C   UNL     1       1.436  10.931  18.981  0.00  0.00    +0.000 C 
ATOM      9  O   UNL     1       1.730  10.266  18.004  0.00  0.00    +0.000 OA
ATOM     10  C   UNL     1       0.734  10.308  20.133  0.00  0.00    +0.000 A 
ATOM     11  C   UNL     1       1.000   8.969  20.464  0.00  0.00    +0.000 A 
ATOM     12  C   UNL     1       0.550   8.442  21.675  0.00  0.00    +0.000 A 
ATOM     13  C   UNL     1      -0.154   9.265  22.544  0.00  0.00    +0.000 A 
ATOM     14  C   UNL     1      -0.475  10.584  22.175  0.00  0.00    +0.000 A 
ATOM     15  C   UNL     1      -0.082  11.131  20.928  0.00  0.00    +0.000 A 
ENDROOT
BRANCH   1  16
ATOM     16  C   UNL     1      -1.193  12.588  18.938  0.00  0.00    +0.000 C 
BRANCH  16  20
ATOM     17  C   UNL     1      -6.039  11.391  17.920  0.00  0.00    +0.000 C 
ATOM     18  C   UNL     1      -4.571  11.063  17.835  0.00  0.00    +0.000 A 
ATOM     19  C   UNL     1      -3.603  11.763  18.582  0.00  0.00    +0.000 A 
ATOM     20  C   UNL     1      -2.209  11.561  18.368  0.00  0.00    +0.000 A 
ATOM     21  C   UNL     1      -1.882  10.574  17.431  0.00  0.00    +0.000 A 
ATOM     22  C   UNL     1      -2.898   9.893  16.768  0.00  0.00    +0.000 A 
ATOM     23  N   UNL     1      -4.228  10.119  16.938  0.00  0.00    +0.000 NA
ENDBRANCH  16  20
ENDBRANCH   1  16
BRANCH   1  24
ATOM     24  C   UNL     1      -1.051  13.417  21.570  0.00  0.00    +0.000 C 
BRANCH  24  25
ATOM     25  C   UNL     1      -2.536  13.681  21.611  0.00  0.00    +0.000 A 
ATOM     26  C   UNL     1      -3.395  12.747  22.214  0.00  0.00    +0.000 A 
ATOM     27  C   UNL     1      -4.709  13.108  22.473  0.00  0.00    +0.000 A 
ATOM     28  N   UNL     1      -5.217  14.330  22.207  0.00  0.00    +0.000 NA
ATOM     29  C   UNL     1      -4.404  15.192  21.562  0.00  0.00    +0.000 A 
ATOM     30  C   UNL     1      -4.870  16.605  21.348  0.00  0.00    +0.000 C 
ATOM     31  C   UNL     1      -3.115  14.868  21.180  0.00  0.00    +0.000 A 
ENDBRANCH  24  25
ENDBRANCH   1  24
TORSDOF 4
ENDMDL
MODEL 8
REMARK VINA RESULT:      -6.9      1.087      2.087
REMARK  Name = 
REMARK  6 active torsions:
REMARK  status: ('A' for Active; 'I' for Inactive)
REMARK    1  A    between atoms: C_1  and  C_2
REMARK    2  A    between atoms: C_4  and  C_5
REMARK    3  A    between atoms: C_5  and  C_6
REMARK    4  A    between atoms: C_6  and  C_7
REMARK    5  A    between atoms: C_7  and  C_8
REMARK    6  A    between atoms: C_12  and  C_13
REMARK                            x       y       z     vdW  Elec       q    Type
REMARK                         _______ _______ _______ _____ _____    ______ ____
ROOT
ATOM      1  C   UNL     1      -0.558  12.944  21.675  0.00  0.00    +0.000 C 
ATOM      2  C   UNL     1       0.814  13.620  21.476  0.00  0.00    +0.000 A 
ATOM      3  C   UNL     1       1.121  14.872  22.032  0.00  0.00    +0.000 A 
ATOM      4  C   UNL     1       2.025  15.704  21.382  0.00  0.00    +0.000 A 
ATOM      5  C   UNL     1       2.673  15.269  20.227  0.00  0.00    +0.000 A 
ATOM      6  C   UNL     1       2.492  13.969  19.757  0.00  0.00    +0.000 A 
ATOM      7  C   UNL     1       1.579  13.135  20.392  0.00  0.00    +0.000 A 
ATOM      8  C   UNL     1       1.259  11.802  19.811  0.00  0.00    +0.000 C 
ATOM      9  O   UNL     1       1.560  11.488  18.673  0.00  0.00    +0.000 OA
ATOM     10  C   UNL     1       0.524  10.852  20.685  0.00  0.00    +0.000 A 
ATOM     11  C   UNL     1       0.760   9.472  20.561  0.00  0.00    +0.000 A 
ATOM     12  C   UNL     1       0.277   8.588  21.526  0.00  0.00    +0.000 A 
ATOM     13  C   UNL     1      -0.428   9.095  22.609  0.00  0.00    +0.000 A 
ATOM     14  C   UNL     1      -0.719  10.469  22.690  0.00  0.00    +0.000 A 
ATOM     15  C   UNL     1      -0.293  11.387  21.696  0.00  0.00    +0.000 A 
ENDROOT
BRANCH   1  16
ATOM     16  C   UNL     1      -1.339  13.441  20.283  0.00  0.00    +0.000 C 
BRANCH  16  20
ATOM     17  C   UNL     1      -2.465   9.932  16.765  0.00  0.00    +0.000 C 
ATOM     18  C   UNL     1      -2.916  10.953  17.778  0.00  0.00    +0.000 A 
ATOM     19  C   UNL     1      -2.024  11.872  18.363  0.00  0.00    +0.000 A 
ATOM     20  C   UNL     1      -2.423  12.715  19.440  0.00  0.00    +0.000 A 
ATOM     21  C   UNL     1      -3.768  12.615  19.814  0.00  0.00    +0.000 A 
ATOM     22  C   UNL     1      -4.598  11.713  19.155  0.00  0.00    +0.000 A 
ATOM     23  N   UNL     1      -4.206  10.877  18.159  0.00  0.00    +0.000 NA
ENDBRANCH  16  20
ENDBRANCH   1  16
BRANCH   1  24
ATOM     24  C   UNL     1      -1.232  13.357  23.043  0.00  0.00    +0.000 C 
BRANCH  24  25
ATOM     25  C   UNL     1      -2.711  13.638  23.148  0.00  0.00    +0.000 A 
ATOM     26  C   UNL     1      -3.595  12.605  23.502  0.00  0.00    +0.000 A 
ATOM     27  C   UNL     1      -4.902  12.922  23.842  0.00  0.00    +0.000 A 
ATOM     28  N   UNL     1      -5.380  14.184  23.886  0.00  0.00    +0.000 NA
ATOM     29  C   UNL     1      -4.544  15.158  23.472  0.00  0.00    +0.000 A 
ATOM     30  C   UNL     1      -4.976  16.591  23.613  0.00  0.00    +0.000 C 
ATOM     31  C   UNL     1      -3.260  14.908  23.022  0.00  0.00    +0.000 A 
ENDBRANCH  24  25
ENDBRANCH   1  24
TORSDOF 4
ENDMDL
MODEL 9
REMARK VINA RESULT:      -6.8      1.188      1.490
REMARK  Name = 
REMARK  6 active torsions:
REMARK  status: ('A' for Active; 'I' for Inactive)
REMARK    1  A    between atoms: C_1  and  C_2
REMARK    2  A    between atoms: C_4  and  C_5
REMARK    3  A    between atoms: C_5  and  C_6
REMARK    4  A    between atoms: C_6  and  C_7
REMARK    5  A    between atoms: C_7  and  C_8
REMARK    6  A    between atoms: C_12  and  C_13
REMARK                            x       y       z     vdW  Elec       q    Type
REMARK                         _______ _______ _______ _____ _____    ______ ____
ROOT
ATOM      1  C   UNL     1      -0.571  12.338  21.125  0.00  0.00    +0.000 C 
ATOM      2  C   UNL     1       0.718  13.169  20.950  0.00  0.00    +0.000 A 
ATOM      3  C   UNL     1       0.843  14.472  21.453  0.00  0.00    +0.000 A 
ATOM      4  C   UNL     1       1.671  15.379  20.799  0.00  0.00    +0.000 A 
ATOM      5  C   UNL     1       2.422  14.975  19.698  0.00  0.00    +0.000 A 
ATOM      6  C   UNL     1       2.422  13.642  19.287  0.00  0.00    +0.000 A 
ATOM      7  C   UNL     1       1.587  12.732  19.925  0.00  0.00    +0.000 A 
ATOM      8  C   UNL     1       1.458  11.344  19.400  0.00  0.00    +0.000 C 
ATOM      9  O   UNL     1       1.850  11.018  18.294  0.00  0.00    +0.000 OA
ATOM     10  C   UNL     1       0.803  10.353  20.290  0.00  0.00    +0.000 A 
ATOM     11  C   UNL     1       1.209   9.008  20.247  0.00  0.00    +0.000 A 
ATOM     12  C   UNL     1       0.791   8.116  21.235  0.00  0.00    +0.000 A 
ATOM     13  C   UNL     1      -0.022   8.582  22.260  0.00  0.00    +0.000 A 
ATOM     14  C   UNL     1      -0.480   9.912  22.258  0.00  0.00    +0.000 A 
ATOM     15  C   UNL     1      -0.120  10.828  21.238  0.00  0.00    +0.000 A 
ENDROOT
BRANCH   1  16
ATOM     16  C   UNL     1      -1.338  12.672  19.678  0.00  0.00    +0.000 C 
BRANCH  16  20
ATOM     17  C   UNL     1      -5.916  11.756  17.637  0.00  0.00    +0.000 C 
ATOM     18  C   UNL     1      -4.458  11.401  17.778  0.00  0.00    +0.000 A 
ATOM     19  C   UNL     1      -3.642  11.968  18.777  0.00  0.00    +0.000 A 
ATOM     20  C   UNL     1      -2.234  11.758  18.797  0.00  0.00    +0.000 A 
ATOM     21  C   UNL     1      -1.742  10.897  17.810  0.00  0.00    +0.000 A 
ATOM     22  C   UNL     1      -2.620  10.338  16.886  0.00  0.00    +0.000 A 
ATOM     23  N   UNL     1      -3.957  10.576  16.839  0.00  0.00    +0.000 NA
ENDBRANCH  16  20
ENDBRANCH   1  16
BRANCH   1  24
ATOM     24  C   UNL     1      -1.355  12.728  22.440  0.00  0.00    +0.000 C 
BRANCH  24  25
ATOM     25  C   UNL     1      -2.709  13.392  22.392  0.00  0.00    +0.000 A 
ATOM     26  C   UNL     1      -2.797  14.791  22.302  0.00  0.00    +0.000 A 
ATOM     27  C   UNL     1      -4.022  15.372  22.004  0.00  0.00    +0.000 A 
ATOM     28  N   UNL     1      -5.147  14.667  21.760  0.00  0.00    +0.000 NA
ATOM     29  C   UNL     1      -5.065  13.330  21.922  0.00  0.00    +0.000 A 
ATOM     30  C   UNL     1      -6.248  12.482  21.548  0.00  0.00    +0.000 C 
ATOM     31  C   UNL     1      -3.905  12.689  22.317  0.00  0.00    +0.000 A 
ENDBRANCH  24  25
ENDBRANCH   1  24
TORSDOF 4
ENDMDL
