MODEL 1
REMARK VINA RESULT:      -8.9      0.000      0.000
REMARK  Name = 
REMARK  5 active torsions:
REMARK  status: ('A' for Active; 'I' for Inactive)
REMARK    1  A    between atoms: C_1  and  C_2
REMARK    2  A    between atoms: C_5  and  C_6
REMARK    3  A    between atoms: C_8  and  C_9
REMARK    4  A    between atoms: N_14  and  S_15
REMARK    5  A    between atoms: S_15  and  C_16
REMARK                            x       y       z     vdW  Elec       q    Type
REMARK                         _______ _______ _______ _____ _____    ______ ____
ROOT
ATOM      1  C   UNL     1       4.632   5.427  17.171  0.00  0.00    +0.000 A 
ATOM      2  C   UNL     1       3.989   6.646  17.303  0.00  0.00    +0.000 A 
ATOM      3  C   UNL     1       2.917   6.750  18.202  0.00  0.00    +0.000 A 
ATOM      4  C   UNL     1       2.489   5.597  18.902  0.00  0.00    +0.000 A 
ATOM      5  C   UNL     1       1.297   5.482  19.652  0.00  0.00    +0.000 A 
ATOM      6  C   UNL     1       1.055   4.392  20.485  0.00  0.00    +0.000 A 
ATOM      7  C   UNL     1       1.957   3.341  20.498  0.00  0.00    +0.000 A 
ATOM      8  C   UNL     1       3.047   3.368  19.631  0.00  0.00    +0.000 A 
ATOM      9  C   UNL     1       3.317   4.460  18.820  0.00  0.00    +0.000 A 
ATOM     10  N   UNL     1       4.348   4.374  17.968  0.00  0.00    +0.000 NA
ENDROOT
BRANCH   3  11
ATOM     11  C   UNL     1       2.230   8.076  18.249  0.00  0.00    +0.000 C 
ATOM     12  O   UNL     1       2.234   8.726  17.200  0.00  0.00    +0.000 OA
ATOM     13  N   UNL     1       1.580   8.557  19.390  0.00  0.00    +0.000 N 
ATOM     14  C   UNL     1       0.782   9.779  19.251  0.00  0.00    +0.000 C 
ATOM     15  C   UNL     1      -0.540   9.666  20.024  0.00  0.00    +0.000 C 
ATOM     16  N   UNL     1      -0.339   9.289  21.461  0.00  0.00    +0.000 NA
ATOM     17  C   UNL     1       0.557   8.097  21.616  0.00  0.00    +0.000 C 
ATOM     18  C   UNL     1       1.860   8.219  20.797  0.00  0.00    +0.000 C 
BRANCH  16  19
ATOM     19  S   UNL     1      -0.108  10.545  22.568  0.00  0.00    +0.000 S 
ATOM     20  C   UNL     1      -1.767  11.182  22.745  0.00  0.00    +0.000 C 
ATOM     21  O   UNL     1       0.262   9.955  23.839  0.00  0.00    +0.000 OA
ATOM     22  O   UNL     1       0.715  11.549  21.938  0.00  0.00    +0.000 OA
ENDBRANCH  16  19
ENDBRANCH   3  11
BRANCH   1  27
ATOM     23  C   UNL     1       5.946   3.552  12.924  0.00  0.00    +0.000 C 
ATOM     24  C   UNL     1       6.212   4.258  14.193  0.00  0.00    +0.000 A 
ATOM     25  C   UNL     1       7.356   4.760  14.772  0.00  0.00    +0.000 A 
ATOM     26  C   UNL     1       6.958   5.328  16.005  0.00  0.00    +0.000 A 
ATOM     27  C   UNL     1       5.594   5.134  16.116  0.00  0.00    +0.000 A 
ATOM     28  O   UNL     1       5.136   4.480  15.004  0.00  0.00    +0.000 OA
ENDBRANCH   1  27
TORSDOF 3
ENDMDL
MODEL 2
REMARK VINA RESULT:      -8.4      3.998      5.998
REMARK  Name = 
REMARK  5 active torsions:
REMARK  status: ('A' for Active; 'I' for Inactive)
REMARK    1  A    between atoms: C_1  and  C_2
REMARK    2  A    between atoms: C_5  and  C_6
REMARK    3  A    between atoms: C_8  and  C_9
REMARK    4  A    between atoms: N_14  and  S_15
REMARK    5  A    between atoms: S_15  and  C_16
REMARK                            x       y       z     vdW  Elec       q    Type
REMARK                         _______ _______ _______ _____ _____    ______ ____
ROOT
ATOM      1  C   UNL     1       1.896   8.411  19.260  0.00  0.00    +0.000 A 
ATOM      2  C   UNL     1       1.514   9.604  18.670  0.00  0.00    +0.000 A 
ATOM      3  C   UNL     1       0.743  10.509  19.415  0.00  0.00    +0.000 A 
ATOM      4  C   UNL     1       0.330  10.152  20.721  0.00  0.00    +0.000 A 
ATOM      5  C   UNL     1      -0.629  10.838  21.500  0.00  0.00    +0.000 A 
ATOM      6  C   UNL     1      -0.820  10.553  22.850  0.00  0.00    +0.000 A 
ATOM      7  C   UNL     1      -0.127   9.498  23.420  0.00  0.00    +0.000 A 
ATOM      8  C   UNL     1       0.692   8.707  22.617  0.00  0.00    +0.000 A 
ATOM      9  C   UNL     1       0.914   8.997  21.279  0.00  0.00    +0.000 A 
ATOM     10  N   UNL     1       1.662   8.145  20.564  0.00  0.00    +0.000 NA
ENDROOT
BRANCH   3  11
ATOM     11  C   UNL     1       0.315  11.747  18.697  0.00  0.00    +0.000 C 
ATOM     12  O   UNL     1      -0.769  11.686  18.110  0.00  0.00    +0.000 OA
ATOM     13  N   UNL     1       1.061  12.930  18.708  0.00  0.00    +0.000 N 
ATOM     14  C   UNL     1       0.442  14.127  18.130  0.00  0.00    +0.000 C 
ATOM     15  C   UNL     1       0.727  15.365  18.991  0.00  0.00    +0.000 C 
ATOM     16  N   UNL     1       2.190  15.563  19.254  0.00  0.00    +0.000 NA
ATOM     17  C   UNL     1       2.851  14.314  19.754  0.00  0.00    +0.000 C 
ATOM     18  C   UNL     1       2.516  13.076  18.893  0.00  0.00    +0.000 C 
BRANCH  16  19
ATOM     19  S   UNL     1       3.065  16.472  18.131  0.00  0.00    +0.000 S 
ATOM     20  C   UNL     1       4.582  16.786  19.020  0.00  0.00    +0.000 C 
ATOM     21  O   UNL     1       3.394  15.606  17.016  0.00  0.00    +0.000 OA
ATOM     22  O   UNL     1       2.373  17.723  17.931  0.00  0.00    +0.000 OA
ENDBRANCH  16  19
ENDBRANCH   3  11
BRANCH   1  27
ATOM     23  C   UNL     1       2.168   3.797  17.873  0.00  0.00    +0.000 C 
ATOM     24  C   UNL     1       2.643   5.195  17.906  0.00  0.00    +0.000 A 
ATOM     25  C   UNL     1       3.735   5.834  17.363  0.00  0.00    +0.000 A 
ATOM     26  C   UNL     1       3.636   7.189  17.756  0.00  0.00    +0.000 A 
ATOM     27  C   UNL     1       2.491   7.303  18.524  0.00  0.00    +0.000 A 
ATOM     28  O   UNL     1       1.882   6.080  18.614  0.00  0.00    +0.000 OA
ENDBRANCH   1  27
TORSDOF 3
ENDMDL
MODEL 3
REMARK VINA RESULT:      -8.4      3.942      5.916
REMARK  Name = 
REMARK  5 active torsions:
REMARK  status: ('A' for Active; 'I' for Inactive)
REMARK    1  A    between atoms: C_1  and  C_2
REMARK    2  A    between atoms: C_5  and  C_6
REMARK    3  A    between atoms: C_8  and  C_9
REMARK    4  A    between atoms: N_14  and  S_15
REMARK    5  A    between atoms: S_15  and  C_16
REMARK                            x       y       z     vdW  Elec       q    Type
REMARK                         _______ _______ _______ _____ _____    ______ ____
ROOT
ATOM      1  C   UNL     1       1.868   8.435  19.267  0.00  0.00    +0.000 A 
ATOM      2  C   UNL     1       1.430   9.605  18.670  0.00  0.00    +0.000 A 
ATOM      3  C   UNL     1       0.646  10.494  19.421  0.00  0.00    +0.000 A 
ATOM      4  C   UNL     1       0.278  10.144  20.742  0.00  0.00    +0.000 A 
ATOM      5  C   UNL     1      -0.685  10.808  21.534  0.00  0.00    +0.000 A 
ATOM      6  C   UNL     1      -0.833  10.537  22.893  0.00  0.00    +0.000 A 
ATOM      7  C   UNL     1      -0.089   9.516  23.461  0.00  0.00    +0.000 A 
ATOM      8  C   UNL     1       0.736   8.741  22.649  0.00  0.00    +0.000 A 
ATOM      9  C   UNL     1       0.916   9.019  21.302  0.00  0.00    +0.000 A 
ATOM     10  N   UNL     1       1.675   8.182  20.581  0.00  0.00    +0.000 NA
ENDROOT
BRANCH   3  11
ATOM     11  C   UNL     1       0.157  11.706  18.696  0.00  0.00    +0.000 C 
ATOM     12  O   UNL     1      -0.864  11.558  18.019  0.00  0.00    +0.000 OA
ATOM     13  N   UNL     1       0.779  12.955  18.794  0.00  0.00    +0.000 N 
ATOM     14  C   UNL     1       0.094  14.102  18.192  0.00  0.00    +0.000 C 
ATOM     15  C   UNL     1       0.183  15.337  19.100  0.00  0.00    +0.000 C 
ATOM     16  N   UNL     1       1.593  15.668  19.490  0.00  0.00    +0.000 NA
ATOM     17  C   UNL     1       2.332  14.475  20.016  0.00  0.00    +0.000 C 
ATOM     18  C   UNL     1       2.192  13.236  19.104  0.00  0.00    +0.000 C 
BRANCH  16  19
ATOM     19  S   UNL     1       2.462  16.690  18.463  0.00  0.00    +0.000 S 
ATOM     20  C   UNL     1       1.164  17.715  17.787  0.00  0.00    +0.000 C 
ATOM     21  O   UNL     1       3.296  17.544  19.286  0.00  0.00    +0.000 OA
ATOM     22  O   UNL     1       3.024  15.887  17.403  0.00  0.00    +0.000 OA
ENDBRANCH  16  19
ENDBRANCH   3  11
BRANCH   1  27
ATOM     23  C   UNL     1       2.198   3.835  17.852  0.00  0.00    +0.000 C 
ATOM     24  C   UNL     1       2.661   5.236  17.903  0.00  0.00    +0.000 A 
ATOM     25  C   UNL     1       3.757   5.887  17.381  0.00  0.00    +0.000 A 
ATOM     26  C   UNL     1       3.640   7.238  17.782  0.00  0.00    +0.000 A 
ATOM     27  C   UNL     1       2.483   7.338  18.533  0.00  0.00    +0.000 A 
ATOM     28  O   UNL     1       1.882   6.110  18.605  0.00  0.00    +0.000 OA
ENDBRANCH   1  27
TORSDOF 3
ENDMDL
MODEL 4
REMARK VINA RESULT:      -8.3      3.931      5.935
REMARK  Name = 
REMARK  5 active torsions:
REMARK  status: ('A' for Active; 'I' for Inactive)
REMARK    1  A    between atoms: C_1  and  C_2
REMARK    2  A    between atoms: C_5  and  C_6
REMARK    3  A    between atoms: C_8  and  C_9
REMARK    4  A    between atoms: N_14  and  S_15
REMARK    5  A    between atoms: S_15  and  C_16
REMARK                            x       y       z     vdW  Elec       q    Type
REMARK                         _______ _______ _______ _____ _____    ______ ____
ROOT
ATOM      1  C   UNL     1       1.872   8.481  19.405  0.00  0.00    +0.000 A 
ATOM      2  C   UNL     1       1.451   9.640  18.775  0.00  0.00    +0.000 A 
ATOM      3  C   UNL     1       0.642  10.539  19.487  0.00  0.00    +0.000 A 
ATOM      4  C   UNL     1       0.233  10.209  20.801  0.00  0.00    +0.000 A 
ATOM      5  C   UNL     1      -0.756  10.883  21.552  0.00  0.00    +0.000 A 
ATOM      6  C   UNL     1      -0.946  10.634  22.909  0.00  0.00    +0.000 A 
ATOM      7  C   UNL     1      -0.219   9.624  23.517  0.00  0.00    +0.000 A 
ATOM      8  C   UNL     1       0.634   8.838  22.744  0.00  0.00    +0.000 A 
ATOM      9  C   UNL     1       0.855   9.095  21.399  0.00  0.00    +0.000 A 
ATOM     10  N   UNL     1       1.639   8.249  20.716  0.00  0.00    +0.000 NA
ENDROOT
BRANCH   3  11
ATOM     11  C   UNL     1       0.174  11.737  18.727  0.00  0.00    +0.000 C 
ATOM     12  O   UNL     1      -0.833  11.579  18.031  0.00  0.00    +0.000 OA
ATOM     13  N   UNL     1       0.799  12.986  18.813  0.00  0.00    +0.000 N 
ATOM     14  C   UNL     1       0.131  14.123  18.173  0.00  0.00    +0.000 C 
ATOM     15  C   UNL     1       0.206  15.376  19.058  0.00  0.00    +0.000 C 
ATOM     16  N   UNL     1       1.609  15.709  19.471  0.00  0.00    +0.000 NA
ATOM     17  C   UNL     1       2.332  14.525  20.037  0.00  0.00    +0.000 C 
ATOM     18  C   UNL     1       2.206  13.268  19.148  0.00  0.00    +0.000 C 
BRANCH  16  19
ATOM     19  S   UNL     1       2.504  16.707  18.442  0.00  0.00    +0.000 S 
ATOM     20  C   UNL     1       1.225  17.724  17.719  0.00  0.00    +0.000 C 
ATOM     21  O   UNL     1       3.325  17.573  19.265  0.00  0.00    +0.000 OA
ATOM     22  O   UNL     1       3.084  15.881  17.411  0.00  0.00    +0.000 OA
ENDBRANCH  16  19
ENDBRANCH   3  11
BRANCH   1  27
ATOM     23  C   UNL     1       5.018   6.588  16.274  0.00  0.00    +0.000 C 
ATOM     24  C   UNL     1       3.924   6.499  17.262  0.00  0.00    +0.000 A 
ATOM     25  C   UNL     1       3.177   5.451  17.751  0.00  0.00    +0.000 A 
ATOM     26  C   UNL     1       2.274   6.011  18.684  0.00  0.00    +0.000 A 
ATOM     27  C   UNL     1       2.513   7.373  18.709  0.00  0.00    +0.000 A 
ATOM     28  O   UNL     1       3.527   7.671  17.838  0.00  0.00    +0.000 OA
ENDBRANCH   1  27
TORSDOF 3
ENDMDL
MODEL 5
REMARK VINA RESULT:      -8.2      3.772      8.413
REMARK  Name = 
REMARK  5 active torsions:
REMARK  status: ('A' for Active; 'I' for Inactive)
REMARK    1  A    between atoms: C_1  and  C_2
REMARK    2  A    between atoms: C_5  and  C_6
REMARK    3  A    between atoms: C_8  and  C_9
REMARK    4  A    between atoms: N_14  and  S_15
REMARK    5  A    between atoms: S_15  and  C_16
REMARK                            x       y       z     vdW  Elec       q    Type
REMARK                         _______ _______ _______ _____ _____    ______ ____
ROOT
ATOM      1  C   UNL     1      -1.584  11.362  18.364  0.00  0.00    +0.000 A 
ATOM      2  C   UNL     1      -0.946  10.329  19.031  0.00  0.00    +0.000 A 
ATOM      3  C   UNL     1       0.190  10.623  19.799  0.00  0.00    +0.000 A 
ATOM      4  C   UNL     1       0.685  11.948  19.823  0.00  0.00    +0.000 A 
ATOM      5  C   UNL     1       1.933  12.355  20.347  0.00  0.00    +0.000 A 
ATOM      6  C   UNL     1       2.251  13.699  20.528  0.00  0.00    +0.000 A 
ATOM      7  C   UNL     1       1.365  14.667  20.085  0.00  0.00    +0.000 A 
ATOM      8  C   UNL     1       0.210  14.276  19.410  0.00  0.00    +0.000 A 
ATOM      9  C   UNL     1      -0.134  12.942  19.250  0.00  0.00    +0.000 A 
ATOM     10  N   UNL     1      -1.227  12.655  18.530  0.00  0.00    +0.000 NA
ENDROOT
BRANCH   3  11
ATOM     11  C   UNL     1       0.864   9.454  20.441  0.00  0.00    +0.000 C 
ATOM     12  O   UNL     1       0.677   9.318  21.653  0.00  0.00    +0.000 OA
ATOM     13  N   UNL     1       1.632   8.530  19.724  0.00  0.00    +0.000 N 
ATOM     14  C   UNL     1       2.077   7.325  20.432  0.00  0.00    +0.000 C 
ATOM     15  C   UNL     1       1.948   6.082  19.540  0.00  0.00    +0.000 C 
ATOM     16  N   UNL     1       2.638   6.244  18.219  0.00  0.00    +0.000 NA
ATOM     17  C   UNL     1       2.263   7.522  17.533  0.00  0.00    +0.000 C 
ATOM     18  C   UNL     1       2.363   8.751  18.464  0.00  0.00    +0.000 C 
BRANCH  16  19
ATOM     19  S   UNL     1       4.268   5.805  18.137  0.00  0.00    +0.000 S 
ATOM     20  C   UNL     1       4.197   4.329  17.132  0.00  0.00    +0.000 C 
ATOM     21  O   UNL     1       4.963   6.815  17.364  0.00  0.00    +0.000 OA
ATOM     22  O   UNL     1       4.702   5.445  19.465  0.00  0.00    +0.000 OA
ENDBRANCH  16  19
ENDBRANCH   3  11
BRANCH   1  27
ATOM     23  C   UNL     1      -3.176  10.020  14.012  0.00  0.00    +0.000 C 
ATOM     24  C   UNL     1      -3.356  10.572  15.369  0.00  0.00    +0.000 A 
ATOM     25  C   UNL     1      -4.441  11.084  16.044  0.00  0.00    +0.000 A 
ATOM     26  C   UNL     1      -3.970  11.454  17.326  0.00  0.00    +0.000 A 
ATOM     27  C   UNL     1      -2.621  11.154  17.361  0.00  0.00    +0.000 A 
ATOM     28  O   UNL     1      -2.245  10.611  16.162  0.00  0.00    +0.000 OA
ENDBRANCH   1  27
TORSDOF 3
ENDMDL
MODEL 6
REMARK VINA RESULT:      -8.1      3.683      7.132
REMARK  Name = 
REMARK  5 active torsions:
REMARK  status: ('A' for Active; 'I' for Inactive)
REMARK    1  A    between atoms: C_1  and  C_2
REMARK    2  A    between atoms: C_5  and  C_6
REMARK    3  A    between atoms: C_8  and  C_9
REMARK    4  A    between atoms: N_14  and  S_15
REMARK    5  A    between atoms: S_15  and  C_16
REMARK                            x       y       z     vdW  Elec       q    Type
REMARK                         _______ _______ _______ _____ _____    ______ ____
ROOT
ATOM      1  C   UNL     1       1.264   9.813  19.400  0.00  0.00    +0.000 A 
ATOM      2  C   UNL     1       0.415   9.984  20.481  0.00  0.00    +0.000 A 
ATOM      3  C   UNL     1       0.115  11.289  20.902  0.00  0.00    +0.000 A 
ATOM      4  C   UNL     1       0.731  12.384  20.252  0.00  0.00    +0.000 A 
ATOM      5  C   UNL     1       0.719  13.724  20.700  0.00  0.00    +0.000 A 
ATOM      6  C   UNL     1       1.161  14.772  19.896  0.00  0.00    +0.000 A 
ATOM      7  C   UNL     1       1.727  14.485  18.665  0.00  0.00    +0.000 A 
ATOM      8  C   UNL     1       1.901  13.154  18.290  0.00  0.00    +0.000 A 
ATOM      9  C   UNL     1       1.438  12.103  19.066  0.00  0.00    +0.000 A 
ATOM     10  N   UNL     1       1.709  10.854  18.662  0.00  0.00    +0.000 NA
ENDROOT
BRANCH   3  11
ATOM     11  C   UNL     1      -0.757  11.399  22.111  0.00  0.00    +0.000 C 
ATOM     12  O   UNL     1      -0.339  10.849  23.133  0.00  0.00    +0.000 OA
ATOM     13  N   UNL     1      -1.961  12.112  22.118  0.00  0.00    +0.000 N 
ATOM     14  C   UNL     1      -2.624  12.307  23.411  0.00  0.00    +0.000 C 
ATOM     15  C   UNL     1      -3.181  13.733  23.535  0.00  0.00    +0.000 C 
ATOM     16  N   UNL     1      -4.069  14.109  22.387  0.00  0.00    +0.000 NA
ATOM     17  C   UNL     1      -3.436  13.821  21.060  0.00  0.00    +0.000 C 
ATOM     18  C   UNL     1      -2.848  12.395  20.976  0.00  0.00    +0.000 C 
BRANCH  16  19
ATOM     19  S   UNL     1      -5.713  13.741  22.525  0.00  0.00    +0.000 S 
ATOM     20  C   UNL     1      -6.387  14.547  21.080  0.00  0.00    +0.000 C 
ATOM     21  O   UNL     1      -5.867  12.313  22.329  0.00  0.00    +0.000 OA
ATOM     22  O   UNL     1      -6.220  14.397  23.706  0.00  0.00    +0.000 OA
ENDBRANCH  16  19
ENDBRANCH   3  11
BRANCH   1  27
ATOM     23  C   UNL     1       2.612   5.260  20.258  0.00  0.00    +0.000 C 
ATOM     24  C   UNL     1       2.474   6.456  19.404  0.00  0.00    +0.000 A 
ATOM     25  C   UNL     1       2.860   6.744  18.113  0.00  0.00    +0.000 A 
ATOM     26  C   UNL     1       2.441   8.072  17.863  0.00  0.00    +0.000 A 
ATOM     27  C   UNL     1       1.829   8.525  19.017  0.00  0.00    +0.000 A 
ATOM     28  O   UNL     1       1.848   7.534  19.961  0.00  0.00    +0.000 OA
ENDBRANCH   1  27
TORSDOF 3
ENDMDL
MODEL 7
REMARK VINA RESULT:      -8.0      1.784      4.365
REMARK  Name = 
REMARK  5 active torsions:
REMARK  status: ('A' for Active; 'I' for Inactive)
REMARK    1  A    between atoms: C_1  and  C_2
REMARK    2  A    between atoms: C_5  and  C_6
REMARK    3  A    between atoms: C_8  and  C_9
REMARK    4  A    between atoms: N_14  and  S_15
REMARK    5  A    between atoms: S_15  and  C_16
REMARK                            x       y       z     vdW  Elec       q    Type
REMARK                         _______ _______ _______ _____ _____    ______ ____
ROOT
ATOM      1  C   UNL     1       2.772   4.773  18.434  0.00  0.00    +0.000 A 
ATOM      2  C   UNL     1       2.259   6.057  18.366  0.00  0.00    +0.000 A 
ATOM      3  C   UNL     1       3.109   7.104  17.977  0.00  0.00    +0.000 A 
ATOM      4  C   UNL     1       4.474   6.827  17.723  0.00  0.00    +0.000 A 
ATOM      5  C   UNL     1       5.494   7.790  17.554  0.00  0.00    +0.000 A 
ATOM      6  C   UNL     1       6.763   7.444  17.095  0.00  0.00    +0.000 A 
ATOM      7  C   UNL     1       7.067   6.107  16.898  0.00  0.00    +0.000 A 
ATOM      8  C   UNL     1       6.122   5.138  17.228  0.00  0.00    +0.000 A 
ATOM      9  C   UNL     1       4.845   5.469  17.657  0.00  0.00    +0.000 A 
ATOM     10  N   UNL     1       4.022   4.474  18.017  0.00  0.00    +0.000 NA
ENDROOT
BRANCH   3  11
ATOM     11  C   UNL     1       2.507   8.471  17.985  0.00  0.00    +0.000 C 
ATOM     12  O   UNL     1       2.683   9.147  16.968  0.00  0.00    +0.000 OA
ATOM     13  N   UNL     1       1.750   8.963  19.054  0.00  0.00    +0.000 N 
ATOM     14  C   UNL     1       1.054  10.239  18.860  0.00  0.00    +0.000 C 
ATOM     15  C   UNL     1      -0.358  10.193  19.460  0.00  0.00    +0.000 C 
ATOM     16  N   UNL     1      -0.363   9.765  20.896  0.00  0.00    +0.000 NA
ATOM     17  C   UNL     1       0.429   8.512  21.119  0.00  0.00    +0.000 C 
ATOM     18  C   UNL     1       1.830   8.569  20.472  0.00  0.00    +0.000 C 
BRANCH  16  19
ATOM     19  S   UNL     1      -0.194  10.972  22.067  0.00  0.00    +0.000 S 
ATOM     20  C   UNL     1      -1.735  11.860  21.898  0.00  0.00    +0.000 C 
ATOM     21  O   UNL     1      -0.209  10.335  23.369  0.00  0.00    +0.000 OA
ATOM     22  O   UNL     1       0.890  11.835  21.665  0.00  0.00    +0.000 OA
ENDBRANCH  16  19
ENDBRANCH   3  11
BRANCH   1  27
ATOM     23  C   UNL     1       1.200   2.178  22.186  0.00  0.00    +0.000 C 
ATOM     24  C   UNL     1       1.364   2.446  20.743  0.00  0.00    +0.000 A 
ATOM     25  C   UNL     1       0.997   1.758  19.608  0.00  0.00    +0.000 A 
ATOM     26  C   UNL     1       1.442   2.536  18.514  0.00  0.00    +0.000 A 
ATOM     27  C   UNL     1       2.063   3.654  19.040  0.00  0.00    +0.000 A 
ATOM     28  O   UNL     1       2.013   3.599  20.407  0.00  0.00    +0.000 OA
ENDBRANCH   1  27
TORSDOF 3
ENDMDL
MODEL 8
REMARK VINA RESULT:      -7.9      3.438      7.632
REMARK  Name = 
REMARK  5 active torsions:
REMARK  status: ('A' for Active; 'I' for Inactive)
REMARK    1  A    between atoms: C_1  and  C_2
REMARK    2  A    between atoms: C_5  and  C_6
REMARK    3  A    between atoms: C_8  and  C_9
REMARK    4  A    between atoms: N_14  and  S_15
REMARK    5  A    between atoms: S_15  and  C_16
REMARK                            x       y       z     vdW  Elec       q    Type
REMARK                         _______ _______ _______ _____ _____    ______ ____
ROOT
ATOM      1  C   UNL     1      -1.027   9.760  18.193  0.00  0.00    +0.000 A 
ATOM      2  C   UNL     1       0.107   9.080  17.784  0.00  0.00    +0.000 A 
ATOM      3  C   UNL     1       1.074   8.744  18.744  0.00  0.00    +0.000 A 
ATOM      4  C   UNL     1       0.891   9.158  20.084  0.00  0.00    +0.000 A 
ATOM      5  C   UNL     1       1.866   9.106  21.106  0.00  0.00    +0.000 A 
ATOM      6  C   UNL     1       1.543   9.328  22.442  0.00  0.00    +0.000 A 
ATOM      7  C   UNL     1       0.254   9.716  22.769  0.00  0.00    +0.000 A 
ATOM      8  C   UNL     1      -0.669   9.938  21.749  0.00  0.00    +0.000 A 
ATOM      9  C   UNL     1      -0.370   9.691  20.418  0.00  0.00    +0.000 A 
ATOM     10  N   UNL     1      -1.295   9.997  19.497  0.00  0.00    +0.000 NA
ENDROOT
BRANCH   3  11
ATOM     11  C   UNL     1       2.300   8.066  18.224  0.00  0.00    +0.000 C 
ATOM     12  O   UNL     1       2.992   8.722  17.441  0.00  0.00    +0.000 OA
ATOM     13  N   UNL     1       2.685   6.780  18.619  0.00  0.00    +0.000 N 
ATOM     14  C   UNL     1       4.003   6.305  18.189  0.00  0.00    +0.000 C 
ATOM     15  C   UNL     1       4.715   5.553  19.323  0.00  0.00    +0.000 C 
ATOM     16  N   UNL     1       3.881   4.447  19.896  0.00  0.00    +0.000 NA
ATOM     17  C   UNL     1       2.497   4.902  20.248  0.00  0.00    +0.000 C 
ATOM     18  C   UNL     1       1.819   5.690  19.106  0.00  0.00    +0.000 C 
BRANCH  16  19
ATOM     19  S   UNL     1       4.004   2.926  19.170  0.00  0.00    +0.000 S 
ATOM     20  C   UNL     1       2.359   2.272  19.417  0.00  0.00    +0.000 C 
ATOM     21  O   UNL     1       4.175   3.125  17.745  0.00  0.00    +0.000 OA
ATOM     22  O   UNL     1       4.940   2.139  19.937  0.00  0.00    +0.000 OA
ENDBRANCH  16  19
ENDBRANCH   3  11
BRANCH   1  27
ATOM     23  C   UNL     1      -3.352  10.071  13.976  0.00  0.00    +0.000 C 
ATOM     24  C   UNL     1      -3.027  10.533  15.341  0.00  0.00    +0.000 A 
ATOM     25  C   UNL     1      -3.427  11.616  16.091  0.00  0.00    +0.000 A 
ATOM     26  C   UNL     1      -2.759  11.505  17.332  0.00  0.00    +0.000 A 
ATOM     27  C   UNL     1      -1.981  10.363  17.270  0.00  0.00    +0.000 A 
ATOM     28  O   UNL     1      -2.147   9.766  16.050  0.00  0.00    +0.000 OA
ENDBRANCH   1  27
TORSDOF 3
ENDMDL
MODEL 9
REMARK VINA RESULT:      -7.8      7.476     10.755
REMARK  Name = 
REMARK  5 active torsions:
REMARK  status: ('A' for Active; 'I' for Inactive)
REMARK    1  A    between atoms: C_1  and  C_2
REMARK    2  A    between atoms: C_5  and  C_6
REMARK    3  A    between atoms: C_8  and  C_9
REMARK    4  A    between atoms: N_14  and  S_15
REMARK    5  A    between atoms: S_15  and  C_16
REMARK                            x       y       z     vdW  Elec       q    Type
REMARK                         _______ _______ _______ _____ _____    ______ ____
ROOT
ATOM      1  C   UNL     1      -4.805  12.436  19.915  0.00  0.00    +0.000 A 
ATOM      2  C   UNL     1      -3.484  12.525  20.322  0.00  0.00    +0.000 A 
ATOM      3  C   UNL     1      -2.479  12.068  19.455  0.00  0.00    +0.000 A 
ATOM      4  C   UNL     1      -2.846  11.479  18.222  0.00  0.00    +0.000 A 
ATOM      5  C   UNL     1      -1.983  10.769  17.357  0.00  0.00    +0.000 A 
ATOM      6  C   UNL     1      -2.367  10.409  16.067  0.00  0.00    +0.000 A 
ATOM      7  C   UNL     1      -3.666  10.661  15.657  0.00  0.00    +0.000 A 
ATOM      8  C   UNL     1      -4.574  11.205  16.563  0.00  0.00    +0.000 A 
ATOM      9  C   UNL     1      -4.197  11.595  17.839  0.00  0.00    +0.000 A 
ATOM     10  N   UNL     1      -5.149  12.046  18.668  0.00  0.00    +0.000 NA
ENDROOT
BRANCH   3  11
ATOM     11  C   UNL     1      -1.083  12.137  19.982  0.00  0.00    +0.000 C 
ATOM     12  O   UNL     1      -0.654  11.111  20.517  0.00  0.00    +0.000 OA
ATOM     13  N   UNL     1      -0.275  13.272  19.853  0.00  0.00    +0.000 N 
ATOM     14  C   UNL     1       1.134  13.148  20.237  0.00  0.00    +0.000 C 
ATOM     15  C   UNL     1       2.044  13.873  19.236  0.00  0.00    +0.000 C 
ATOM     16  N   UNL     1       1.646  15.303  19.022  0.00  0.00    +0.000 NA
ATOM     17  C   UNL     1       0.184  15.447  18.725  0.00  0.00    +0.000 C 
ATOM     18  C   UNL     1      -0.707  14.675  19.723  0.00  0.00    +0.000 C 
BRANCH  16  19
ATOM     19  S   UNL     1       2.314  16.458  20.059  0.00  0.00    +0.000 S 
ATOM     20  C   UNL     1       3.854  15.681  20.525  0.00  0.00    +0.000 C 
ATOM     21  O   UNL     1       2.646  17.627  19.269  0.00  0.00    +0.000 OA
ATOM     22  O   UNL     1       1.468  16.555  21.225  0.00  0.00    +0.000 OA
ENDBRANCH  16  19
ENDBRANCH   3  11
BRANCH   1  27
ATOM     23  C   UNL     1      -6.907  12.689  24.250  0.00  0.00    +0.000 C 
ATOM     24  C   UNL     1      -6.915  12.748  22.775  0.00  0.00    +0.000 A 
ATOM     25  C   UNL     1      -7.910  12.944  21.844  0.00  0.00    +0.000 A 
ATOM     26  C   UNL     1      -7.282  12.891  20.577  0.00  0.00    +0.000 A 
ATOM     27  C   UNL     1      -5.938  12.658  20.804  0.00  0.00    +0.000 A 
ATOM     28  O   UNL     1      -5.713  12.572  22.152  0.00  0.00    +0.000 OA
ENDBRANCH   1  27
TORSDOF 3
ENDMDL
