MODEL 1
REMARK VINA RESULT:      -7.7      0.000      0.000
REMARK  Name = 
REMARK  4 active torsions:
REMARK  status: ('A' for Active; 'I' for Inactive)
REMARK    1  A    between atoms: C_1  and  C_2
REMARK    2  A    between atoms: C_2  and  C_3
REMARK    3  A    between atoms: C_19  and  C_20
REMARK    4  A    between atoms: C_20  and  O_22
REMARK                            x       y       z     vdW  Elec       q    Type
REMARK                         _______ _______ _______ _____ _____    ______ ____
ROOT
ATOM      1  C   UNL     1       4.661   4.120  17.771  0.00  0.00    +0.000 C 
ATOM      2  C   UNL     1       5.441   3.289  16.693  0.00  0.00    +0.000 C 
ATOM      3  C   UNL     1       6.229   4.095  15.686  0.00  0.00    +0.000 C 
ATOM      4  C   UNL     1       5.363   5.227  15.198  0.00  0.00    +0.000 C 
ATOM      5  N   UNL     1       5.179   6.137  16.311  0.00  0.00    +0.000 NA
ATOM      6  C   UNL     1       4.573   7.365  15.898  0.00  0.00    +0.000 C 
ATOM      7  C   UNL     1       3.852   7.783  17.155  0.00  0.00    +0.000 C 
ATOM      8  C   UNL     1       3.024   6.507  17.658  0.00  0.00    +0.000 C 
ATOM      9  C   UNL     1       2.278   7.702  18.631  0.00  0.00    +0.000 A 
ATOM     10  C   UNL     1       1.663   8.920  18.263  0.00  0.00    +0.000 A 
ATOM     11  C   UNL     1       1.074   9.757  19.228  0.00  0.00    +0.000 A 
ATOM     12  C   UNL     1       0.965   9.348  20.554  0.00  0.00    +0.000 A 
ATOM     13  C   UNL     1       1.444   8.100  20.916  0.00  0.00    +0.000 A 
ATOM     14  C   UNL     1       2.052   7.316  19.944  0.00  0.00    +0.000 A 
ATOM     15  N   UNL     1       2.407   5.988  20.155  0.00  0.00    +0.000 N 
ATOM     16  C   UNL     1       2.273   5.542  18.742  0.00  0.00    +0.000 C 
ATOM     17  C   UNL     1       2.479   4.023  18.908  0.00  0.00    +0.000 C 
ATOM     18  C   UNL     1       3.290   3.441  17.810  0.00  0.00    +0.000 C 
ATOM     19  C   UNL     1       4.482   5.683  17.532  0.00  0.00    +0.000 C 
ATOM     20  H   UNL     1       3.384   5.991  20.465  0.00  0.00    +0.000 HD
ENDROOT
BRANCH   1  22
ATOM     21  C   UNL     1       6.402   5.198  19.494  0.00  0.00    +0.000 C 
ATOM     22  C   UNL     1       5.484   4.051  19.116  0.00  0.00    +0.000 C 
ENDBRANCH   1  22
BRANCH  17  23
ATOM     23  C   UNL     1       1.161   3.298  19.138  0.00  0.00    +0.000 C 
ATOM     24  O   UNL     1       0.695   2.448  18.393  0.00  0.00    +0.000 OA
BRANCH  23  25
ATOM     25  O   UNL     1       0.594   3.611  20.329  0.00  0.00    +0.000 OA
ATOM     26  H   UNL     1       0.885   4.498  20.660  0.00  0.00    +0.000 HD
ENDBRANCH  23  25
ENDBRANCH  17  23
TORSDOF 3
ENDMDL
MODEL 2
REMARK VINA RESULT:      -7.7      3.972      8.247
REMARK  Name = 
REMARK  4 active torsions:
REMARK  status: ('A' for Active; 'I' for Inactive)
REMARK    1  A    between atoms: C_1  and  C_2
REMARK    2  A    between atoms: C_2  and  C_3
REMARK    3  A    between atoms: C_19  and  C_20
REMARK    4  A    between atoms: C_20  and  O_22
REMARK                            x       y       z     vdW  Elec       q    Type
REMARK                         _______ _______ _______ _____ _____    ______ ____
ROOT
ATOM      1  C   UNL     1      -1.095  12.342  20.640  0.00  0.00    +0.000 C 
ATOM      2  C   UNL     1      -2.068  13.078  21.627  0.00  0.00    +0.000 C 
ATOM      3  C   UNL     1      -1.813  12.845  23.098  0.00  0.00    +0.000 C 
ATOM      4  C   UNL     1      -1.587  11.371  23.314  0.00  0.00    +0.000 C 
ATOM      5  N   UNL     1      -0.329  11.031  22.681  0.00  0.00    +0.000 NA
ATOM      6  C   UNL     1       0.102   9.712  23.028  0.00  0.00    +0.000 C 
ATOM      7  C   UNL     1       0.904   9.327  21.810  0.00  0.00    +0.000 C 
ATOM      8  C   UNL     1      -0.005   9.660  20.534  0.00  0.00    +0.000 C 
ATOM      9  C   UNL     1       1.180   8.694  19.764  0.00  0.00    +0.000 A 
ATOM     10  C   UNL     1       1.627   7.388  20.069  0.00  0.00    +0.000 A 
ATOM     11  C   UNL     1       2.604   6.752  19.282  0.00  0.00    +0.000 A 
ATOM     12  C   UNL     1       3.062   7.338  18.105  0.00  0.00    +0.000 A 
ATOM     13  C   UNL     1       2.543   8.562  17.715  0.00  0.00    +0.000 A 
ATOM     14  C   UNL     1       1.607   9.178  18.536  0.00  0.00    +0.000 A 
ATOM     15  N   UNL     1       0.897  10.311  18.158  0.00  0.00    +0.000 N 
ATOM     16  C   UNL     1      -0.316  10.042  18.976  0.00  0.00    +0.000 C 
ATOM     17  C   UNL     1      -1.244  11.170  18.480  0.00  0.00    +0.000 C 
ATOM     18  C   UNL     1      -2.038  11.770  19.580  0.00  0.00    +0.000 C 
ATOM     19  C   UNL     1      -0.170  11.184  21.220  0.00  0.00    +0.000 C 
ATOM     20  H   UNL     1       1.423  11.118  18.507  0.00  0.00    +0.000 HD
ENDROOT
BRANCH   1  22
ATOM     21  C   UNL     1       1.428  13.191  20.352  0.00  0.00    +0.000 C 
ATOM     22  C   UNL     1      -0.055  13.405  20.113  0.00  0.00    +0.000 C 
ENDBRANCH   1  22
BRANCH  17  23
ATOM     23  C   UNL     1      -2.088  10.725  17.295  0.00  0.00    +0.000 C 
ATOM     24  O   UNL     1      -2.756   9.702  17.262  0.00  0.00    +0.000 OA
BRANCH  23  25
ATOM     25  O   UNL     1      -2.116  11.644  16.300  0.00  0.00    +0.000 OA
ATOM     26  H   UNL     1      -1.372  12.295  16.370  0.00  0.00    +0.000 HD
ENDBRANCH  23  25
ENDBRANCH  17  23
TORSDOF 3
ENDMDL
MODEL 3
REMARK VINA RESULT:      -7.0      2.065      5.369
REMARK  Name = 
REMARK  4 active torsions:
REMARK  status: ('A' for Active; 'I' for Inactive)
REMARK    1  A    between atoms: C_1  and  C_2
REMARK    2  A    between atoms: C_2  and  C_3
REMARK    3  A    between atoms: C_19  and  C_20
REMARK    4  A    between atoms: C_20  and  O_22
REMARK                            x       y       z     vdW  Elec       q    Type
REMARK                         _______ _______ _______ _____ _____    ______ ____
ROOT
ATOM      1  C   UNL     1       1.981   4.493  19.544  0.00  0.00    +0.000 C 
ATOM      2  C   UNL     1       1.142   5.102  20.722  0.00  0.00    +0.000 C 
ATOM      3  C   UNL     1       0.854   6.582  20.628  0.00  0.00    +0.000 C 
ATOM      4  C   UNL     1       2.127   7.292  20.241  0.00  0.00    +0.000 C 
ATOM      5  N   UNL     1       2.436   6.906  18.879  0.00  0.00    +0.000 NA
ATOM      6  C   UNL     1       3.489   7.702  18.328  0.00  0.00    +0.000 C 
ATOM      7  C   UNL     1       4.101   6.746  17.335  0.00  0.00    +0.000 C 
ATOM      8  C   UNL     1       4.342   5.366  18.110  0.00  0.00    +0.000 C 
ATOM      9  C   UNL     1       5.292   5.053  16.720  0.00  0.00    +0.000 A 
ATOM     10  C   UNL     1       6.343   5.807  16.150  0.00  0.00    +0.000 A 
ATOM     11  C   UNL     1       7.025   5.353  15.007  0.00  0.00    +0.000 A 
ATOM     12  C   UNL     1       6.773   4.088  14.483  0.00  0.00    +0.000 A 
ATOM     13  C   UNL     1       5.838   3.275  15.103  0.00  0.00    +0.000 A 
ATOM     14  C   UNL     1       5.157   3.772  16.208  0.00  0.00    +0.000 A 
ATOM     15  N   UNL     1       4.334   2.986  17.006  0.00  0.00    +0.000 N 
ATOM     16  C   UNL     1       4.527   3.750  18.267  0.00  0.00    +0.000 C 
ATOM     17  C   UNL     1       3.782   2.838  19.263  0.00  0.00    +0.000 C 
ATOM     18  C   UNL     1       3.005   3.613  20.262  0.00  0.00    +0.000 C 
ATOM     19  C   UNL     1       2.728   5.494  18.557  0.00  0.00    +0.000 C 
ATOM     20  H   UNL     1       3.383   3.088  16.638  0.00  0.00    +0.000 HD
ENDROOT
BRANCH   1  22
ATOM     21  C   UNL     1       0.656   2.269  18.862  0.00  0.00    +0.000 C 
ATOM     22  C   UNL     1       0.982   3.726  18.593  0.00  0.00    +0.000 C 
ENDBRANCH   1  22
BRANCH  17  23
ATOM     23  C   UNL     1       4.710   1.805  19.886  0.00  0.00    +0.000 C 
ATOM     24  O   UNL     1       5.263   1.930  20.969  0.00  0.00    +0.000 OA
BRANCH  23  25
ATOM     25  O   UNL     1       4.783   0.664  19.159  0.00  0.00    +0.000 OA
ATOM     26  H   UNL     1       4.102   0.634  18.440  0.00  0.00    +0.000 HD
ENDBRANCH  23  25
ENDBRANCH  17  23
TORSDOF 3
ENDMDL
MODEL 4
REMARK VINA RESULT:      -6.9      2.731      4.350
REMARK  Name = 
REMARK  4 active torsions:
REMARK  status: ('A' for Active; 'I' for Inactive)
REMARK    1  A    between atoms: C_1  and  C_2
REMARK    2  A    between atoms: C_2  and  C_3
REMARK    3  A    between atoms: C_19  and  C_20
REMARK    4  A    between atoms: C_20  and  O_22
REMARK                            x       y       z     vdW  Elec       q    Type
REMARK                         _______ _______ _______ _____ _____    ______ ____
ROOT
ATOM      1  C   UNL     1       4.262   3.503  18.533  0.00  0.00    +0.000 C 
ATOM      2  C   UNL     1       4.759   2.112  19.064  0.00  0.00    +0.000 C 
ATOM      3  C   UNL     1       3.861   1.436  20.074  0.00  0.00    +0.000 C 
ATOM      4  C   UNL     1       3.437   2.459  21.095  0.00  0.00    +0.000 C 
ATOM      5  N   UNL     1       2.564   3.400  20.423  0.00  0.00    +0.000 NA
ATOM      6  C   UNL     1       1.912   4.275  21.349  0.00  0.00    +0.000 C 
ATOM      7  C   UNL     1       1.701   5.505  20.503  0.00  0.00    +0.000 C 
ATOM      8  C   UNL     1       3.105   5.833  19.806  0.00  0.00    +0.000 C 
ATOM      9  C   UNL     1       2.304   7.312  19.485  0.00  0.00    +0.000 A 
ATOM     10  C   UNL     1       1.657   8.206  20.368  0.00  0.00    +0.000 A 
ATOM     11  C   UNL     1       1.078   9.399  19.900  0.00  0.00    +0.000 A 
ATOM     12  C   UNL     1       1.239   9.795  18.575  0.00  0.00    +0.000 A 
ATOM     13  C   UNL     1       1.981   8.999  17.717  0.00  0.00    +0.000 A 
ATOM     14  C   UNL     1       2.507   7.810  18.206  0.00  0.00    +0.000 A 
ATOM     15  N   UNL     1       3.406   7.028  17.490  0.00  0.00    +0.000 N 
ATOM     16  C   UNL     1       4.104   6.439  18.664  0.00  0.00    +0.000 C 
ATOM     17  C   UNL     1       5.249   5.684  17.957  0.00  0.00    +0.000 C 
ATOM     18  C   UNL     1       5.524   4.367  18.583  0.00  0.00    +0.000 C 
ATOM     19  C   UNL     1       3.080   4.227  19.314  0.00  0.00    +0.000 C 
ATOM     20  H   UNL     1       2.851   6.330  16.984  0.00  0.00    +0.000 HD
ENDROOT
BRANCH   1  22
ATOM     21  C   UNL     1       2.182   3.524  16.848  0.00  0.00    +0.000 C 
ATOM     22  C   UNL     1       3.658   3.276  17.093  0.00  0.00    +0.000 C 
ENDBRANCH   1  22
BRANCH  17  23
ATOM     23  C   UNL     1       6.488   6.554  17.805  0.00  0.00    +0.000 C 
ATOM     24  O   UNL     1       7.475   6.490  18.524  0.00  0.00    +0.000 OA
BRANCH  23  25
ATOM     25  O   UNL     1       6.437   7.347  16.708  0.00  0.00    +0.000 OA
ATOM     26  H   UNL     1       5.507   7.554  16.438  0.00  0.00    +0.000 HD
ENDBRANCH  23  25
ENDBRANCH  17  23
TORSDOF 3
ENDMDL
MODEL 5
REMARK VINA RESULT:      -6.6      6.805      8.851
REMARK  Name = 
REMARK  4 active torsions:
REMARK  status: ('A' for Active; 'I' for Inactive)
REMARK    1  A    between atoms: C_1  and  C_2
REMARK    2  A    between atoms: C_2  and  C_3
REMARK    3  A    between atoms: C_19  and  C_20
REMARK    4  A    between atoms: C_20  and  O_22
REMARK                            x       y       z     vdW  Elec       q    Type
REMARK                         _______ _______ _______ _____ _____    ______ ____
ROOT
ATOM      1  C   UNL     1      -0.897  11.032  18.976  0.00  0.00    +0.000 C 
ATOM      2  C   UNL     1      -1.136  10.132  17.713  0.00  0.00    +0.000 C 
ATOM      3  C   UNL     1      -2.379  10.443  16.911  0.00  0.00    +0.000 C 
ATOM      4  C   UNL     1      -3.531  10.620  17.866  0.00  0.00    +0.000 C 
ATOM      5  N   UNL     1      -3.284  11.835  18.616  0.00  0.00    +0.000 NA
ATOM      6  C   UNL     1      -4.427  12.228  19.381  0.00  0.00    +0.000 C 
ATOM      7  C   UNL     1      -3.781  12.960  20.531  0.00  0.00    +0.000 C 
ATOM      8  C   UNL     1      -2.619  12.010  21.090  0.00  0.00    +0.000 C 
ATOM      9  C   UNL     1      -2.694  13.122  22.390  0.00  0.00    +0.000 A 
ATOM     10  C   UNL     1      -3.797  13.530  23.174  0.00  0.00    +0.000 A 
ATOM     11  C   UNL     1      -3.637  14.446  24.230  0.00  0.00    +0.000 A 
ATOM     12  C   UNL     1      -2.370  14.875  24.615  0.00  0.00    +0.000 A 
ATOM     13  C   UNL     1      -1.260  14.388  23.945  0.00  0.00    +0.000 A 
ATOM     14  C   UNL     1      -1.458  13.513  22.883  0.00  0.00    +0.000 A 
ATOM     15  N   UNL     1      -0.419  12.832  22.260  0.00  0.00    +0.000 N 
ATOM     16  C   UNL     1      -1.213  11.646  21.838  0.00  0.00    +0.000 C 
ATOM     17  C   UNL     1      -0.092  10.743  21.285  0.00  0.00    +0.000 C 
ATOM     18  C   UNL     1      -0.505  10.022  20.056  0.00  0.00    +0.000 C 
ATOM     19  C   UNL     1      -2.100  11.936  19.494  0.00  0.00    +0.000 C 
ATOM     20  H   UNL     1      -0.130  13.404  21.460  0.00  0.00    +0.000 HD
ENDROOT
BRANCH   1  22
ATOM     21  C   UNL     1      -0.111  13.570  18.644  0.00  0.00    +0.000 C 
ATOM     22  C   UNL     1       0.215  12.089  18.607  0.00  0.00    +0.000 C 
ENDBRANCH   1  22
BRANCH  17  23
ATOM     23  C   UNL     1       0.479   9.830  22.360  0.00  0.00    +0.000 C 
ATOM     24  O   UNL     1       1.379   9.023  22.182  0.00  0.00    +0.000 OA
BRANCH  23  25
ATOM     25  O   UNL     1      -0.042  10.080  23.586  0.00  0.00    +0.000 OA
ATOM     26  H   UNL     1      -0.672   9.373  23.876  0.00  0.00    +0.000 HD
ENDBRANCH  23  25
ENDBRANCH  17  23
TORSDOF 3
ENDMDL
MODEL 6
REMARK VINA RESULT:      -6.3      7.289      9.665
REMARK  Name = 
REMARK  4 active torsions:
REMARK  status: ('A' for Active; 'I' for Inactive)
REMARK    1  A    between atoms: C_1  and  C_2
REMARK    2  A    between atoms: C_2  and  C_3
REMARK    3  A    between atoms: C_19  and  C_20
REMARK    4  A    between atoms: C_20  and  O_22
REMARK                            x       y       z     vdW  Elec       q    Type
REMARK                         _______ _______ _______ _____ _____    ______ ____
ROOT
ATOM      1  C   UNL     1      -0.721  12.525  21.592  0.00  0.00    +0.000 C 
ATOM      2  C   UNL     1      -0.696  13.439  22.868  0.00  0.00    +0.000 C 
ATOM      3  C   UNL     1      -2.039  13.720  23.501  0.00  0.00    +0.000 C 
ATOM      4  C   UNL     1      -3.015  14.076  22.410  0.00  0.00    +0.000 C 
ATOM      5  N   UNL     1      -3.240  12.878  21.626  0.00  0.00    +0.000 NA
ATOM      6  C   UNL     1      -4.328  13.038  20.712  0.00  0.00    +0.000 C 
ATOM      7  C   UNL     1      -3.933  12.092  19.606  0.00  0.00    +0.000 C 
ATOM      8  C   UNL     1      -2.408  12.419  19.240  0.00  0.00    +0.000 C 
ATOM      9  C   UNL     1      -2.801  11.456  17.880  0.00  0.00    +0.000 A 
ATOM     10  C   UNL     1      -3.859  11.585  16.951  0.00  0.00    +0.000 A 
ATOM     11  C   UNL     1      -3.988  10.693  15.870  0.00  0.00    +0.000 A 
ATOM     12  C   UNL     1      -3.006   9.741  15.612  0.00  0.00    +0.000 A 
ATOM     13  C   UNL     1      -1.893   9.679  16.434  0.00  0.00    +0.000 A 
ATOM     14  C   UNL     1      -1.817  10.552  17.512  0.00  0.00    +0.000 A 
ATOM     15  N   UNL     1      -0.674  10.696  18.291  0.00  0.00    +0.000 N 
ATOM     16  C   UNL     1      -0.903  12.112  18.683  0.00  0.00    +0.000 C 
ATOM     17  C   UNL     1       0.421  12.417  19.413  0.00  0.00    +0.000 C 
ATOM     18  C   UNL     1       0.216  13.250  20.624  0.00  0.00    +0.000 C 
ATOM     19  C   UNL     1      -2.122  12.256  20.887  0.00  0.00    +0.000 C 
ATOM     20  H   UNL     1      -0.776  10.056  19.084  0.00  0.00    +0.000 HD
ENDROOT
BRANCH   1  22
ATOM     21  C   UNL     1      -0.975  10.365  23.154  0.00  0.00    +0.000 C 
ATOM     22  C   UNL     1      -0.253  11.082  22.028  0.00  0.00    +0.000 C 
ENDBRANCH   1  22
BRANCH  17  23
ATOM     23  C   UNL     1       1.471  12.975  18.465  0.00  0.00    +0.000 C 
ATOM     24  O   UNL     1       1.783  14.154  18.387  0.00  0.00    +0.000 OA
BRANCH  23  25
ATOM     25  O   UNL     1       2.120  12.005  17.776  0.00  0.00    +0.000 OA
ATOM     26  H   UNL     1       2.585  11.368  18.375  0.00  0.00    +0.000 HD
ENDBRANCH  23  25
ENDBRANCH  17  23
TORSDOF 3
ENDMDL
MODEL 7
REMARK VINA RESULT:      -6.2      2.221      4.550
REMARK  Name = 
REMARK  4 active torsions:
REMARK  status: ('A' for Active; 'I' for Inactive)
REMARK    1  A    between atoms: C_1  and  C_2
REMARK    2  A    between atoms: C_2  and  C_3
REMARK    3  A    between atoms: C_19  and  C_20
REMARK    4  A    between atoms: C_20  and  O_22
REMARK                            x       y       z     vdW  Elec       q    Type
REMARK                         _______ _______ _______ _____ _____    ______ ____
ROOT
ATOM      1  C   UNL     1       5.408   6.875  17.134  0.00  0.00    +0.000 C 
ATOM      2  C   UNL     1       6.756   7.669  17.011  0.00  0.00    +0.000 C 
ATOM      3  C   UNL     1       7.993   6.942  17.488  0.00  0.00    +0.000 C 
ATOM      4  C   UNL     1       7.685   6.297  18.814  0.00  0.00    +0.000 C 
ATOM      5  N   UNL     1       6.728   5.237  18.564  0.00  0.00    +0.000 NA
ATOM      6  C   UNL     1       6.547   4.404  19.713  0.00  0.00    +0.000 C 
ATOM      7  C   UNL     1       5.130   3.926  19.516  0.00  0.00    +0.000 C 
ATOM      8  C   UNL     1       4.242   5.222  19.208  0.00  0.00    +0.000 C 
ATOM      9  C   UNL     1       2.978   4.111  19.523  0.00  0.00    +0.000 A 
ATOM     10  C   UNL     1       2.759   3.279  20.644  0.00  0.00    +0.000 A 
ATOM     11  C   UNL     1       1.626   2.449  20.722  0.00  0.00    +0.000 A 
ATOM     12  C   UNL     1       0.624   2.521  19.758  0.00  0.00    +0.000 A 
ATOM     13  C   UNL     1       0.754   3.424  18.716  0.00  0.00    +0.000 A 
ATOM     14  C   UNL     1       1.903   4.201  18.652  0.00  0.00    +0.000 A 
ATOM     15  N   UNL     1       2.057   5.254  17.757  0.00  0.00    +0.000 N 
ATOM     16  C   UNL     1       2.983   6.063  18.593  0.00  0.00    +0.000 C 
ATOM     17  C   UNL     1       3.071   7.350  17.746  0.00  0.00    +0.000 C 
ATOM     18  C   UNL     1       4.444   7.911  17.716  0.00  0.00    +0.000 C 
ATOM     19  C   UNL     1       5.390   5.559  18.028  0.00  0.00    +0.000 C 
ATOM     20  H   UNL     1       2.523   4.871  16.929  0.00  0.00    +0.000 HD
ENDROOT
BRANCH   1  22
ATOM     21  C   UNL     1       5.195   4.866  15.377  0.00  0.00    +0.000 C 
ATOM     22  C   UNL     1       5.035   6.341  15.697  0.00  0.00    +0.000 C 
ENDBRANCH   1  22
BRANCH  17  23
ATOM     23  C   UNL     1       2.011   8.364  18.150  0.00  0.00    +0.000 C 
ATOM     24  O   UNL     1       1.525   9.198  17.401  0.00  0.00    +0.000 OA
BRANCH  23  25
ATOM     25  O   UNL     1       1.568   8.179  19.418  0.00  0.00    +0.000 OA
ATOM     26  H   UNL     1       0.740   8.689  19.603  0.00  0.00    +0.000 HD
ENDBRANCH  23  25
ENDBRANCH  17  23
TORSDOF 3
ENDMDL
MODEL 8
REMARK VINA RESULT:      -6.0      5.114      8.089
REMARK  Name = 
REMARK  4 active torsions:
REMARK  status: ('A' for Active; 'I' for Inactive)
REMARK    1  A    between atoms: C_1  and  C_2
REMARK    2  A    between atoms: C_2  and  C_3
REMARK    3  A    between atoms: C_19  and  C_20
REMARK    4  A    between atoms: C_20  and  O_22
REMARK                            x       y       z     vdW  Elec       q    Type
REMARK                         _______ _______ _______ _____ _____    ______ ____
ROOT
ATOM      1  C   UNL     1       0.854  10.090  18.794  0.00  0.00    +0.000 C 
ATOM      2  C   UNL     1       1.786   8.858  18.517  0.00  0.00    +0.000 C 
ATOM      3  C   UNL     1       1.665   7.710  19.493  0.00  0.00    +0.000 C 
ATOM      4  C   UNL     1       1.653   8.272  20.891  0.00  0.00    +0.000 C 
ATOM      5  N   UNL     1       0.411   9.002  21.051  0.00  0.00    +0.000 NA
ATOM      6  C   UNL     1       0.186   9.375  22.413  0.00  0.00    +0.000 C 
ATOM      7  C   UNL     1      -0.639  10.627  22.249  0.00  0.00    +0.000 C 
ATOM      8  C   UNL     1       0.128  11.550  21.189  0.00  0.00    +0.000 C 
ATOM      9  C   UNL     1      -0.968  12.714  21.803  0.00  0.00    +0.000 A 
ATOM     10  C   UNL     1      -1.214  13.116  23.135  0.00  0.00    +0.000 A 
ATOM     11  C   UNL     1      -2.148  14.126  23.428  0.00  0.00    +0.000 A 
ATOM     12  C   UNL     1      -2.760  14.847  22.406  0.00  0.00    +0.000 A 
ATOM     13  C   UNL     1      -2.438  14.560  21.090  0.00  0.00    +0.000 A 
ATOM     14  C   UNL     1      -1.538  13.531  20.838  0.00  0.00    +0.000 A 
ATOM     15  N   UNL     1      -1.013  13.276  19.576  0.00  0.00    +0.000 N 
ATOM     16  C   UNL     1       0.278  12.697  20.035  0.00  0.00    +0.000 C 
ATOM     17  C   UNL     1       1.010  12.545  18.686  0.00  0.00    +0.000 C 
ATOM     18  C   UNL     1       1.790  11.285  18.608  0.00  0.00    +0.000 C 
ATOM     19  C   UNL     1       0.134  10.185  20.211  0.00  0.00    +0.000 C 
ATOM     20  H   UNL     1      -1.618  12.571  19.143  0.00  0.00    +0.000 HD
ENDROOT
BRANCH   1  22
ATOM     21  C   UNL     1      -1.776  10.098  18.297  0.00  0.00    +0.000 C 
ATOM     22  C   UNL     1      -0.353  10.015  17.780  0.00  0.00    +0.000 C 
ENDBRANCH   1  22
BRANCH  17  23
ATOM     23  C   UNL     1       1.824  13.784  18.343  0.00  0.00    +0.000 C 
ATOM     24  O   UNL     1       1.508  14.927  18.639  0.00  0.00    +0.000 OA
BRANCH  23  25
ATOM     25  O   UNL     1       3.010  13.485  17.761  0.00  0.00    +0.000 OA
ATOM     26  H   UNL     1       3.779  13.706  18.344  0.00  0.00    +0.000 HD
ENDBRANCH  23  25
ENDBRANCH  17  23
TORSDOF 3
ENDMDL
MODEL 9
REMARK VINA RESULT:      -6.0      5.370      8.361
REMARK  Name = 
REMARK  4 active torsions:
REMARK  status: ('A' for Active; 'I' for Inactive)
REMARK    1  A    between atoms: C_1  and  C_2
REMARK    2  A    between atoms: C_2  and  C_3
REMARK    3  A    between atoms: C_19  and  C_20
REMARK    4  A    between atoms: C_20  and  O_22
REMARK                            x       y       z     vdW  Elec       q    Type
REMARK                         _______ _______ _______ _____ _____    ______ ____
ROOT
ATOM      1  C   UNL     1       0.433  10.449  18.681  0.00  0.00    +0.000 C 
ATOM      2  C   UNL     1       1.625   9.523  18.252  0.00  0.00    +0.000 C 
ATOM      3  C   UNL     1       1.816   8.272  19.078  0.00  0.00    +0.000 C 
ATOM      4  C   UNL     1       1.714   8.644  20.536  0.00  0.00    +0.000 C 
ATOM      5  N   UNL     1       0.339   9.024  20.787  0.00  0.00    +0.000 NA
ATOM      6  C   UNL     1       0.074   9.166  22.186  0.00  0.00    +0.000 C 
ATOM      7  C   UNL     1      -1.033  10.191  22.180  0.00  0.00    +0.000 C 
ATOM      8  C   UNL     1      -0.546  11.392  21.240  0.00  0.00    +0.000 C 
ATOM      9  C   UNL     1      -1.870  12.173  21.995  0.00  0.00    +0.000 A 
ATOM     10  C   UNL     1      -2.162  12.341  23.368  0.00  0.00    +0.000 A 
ATOM     11  C   UNL     1      -3.303  13.051  23.785  0.00  0.00    +0.000 A 
ATOM     12  C   UNL     1      -4.103  13.718  22.862  0.00  0.00    +0.000 A 
ATOM     13  C   UNL     1      -3.763  13.677  21.520  0.00  0.00    +0.000 A 
ATOM     14  C   UNL     1      -2.651  12.936  21.140  0.00  0.00    +0.000 A 
ATOM     15  N   UNL     1      -2.121  12.969  19.855  0.00  0.00    +0.000 N 
ATOM     16  C   UNL     1      -0.715  12.670  20.236  0.00  0.00    +0.000 C 
ATOM     17  C   UNL     1      -0.011  12.863  18.876  0.00  0.00    +0.000 C 
ATOM     18  C   UNL     1       1.047  11.850  18.642  0.00  0.00    +0.000 C 
ATOM     19  C   UNL     1      -0.243  10.196  20.100  0.00  0.00    +0.000 C 
ATOM     20  H   UNL     1      -2.552  12.194  19.340  0.00  0.00    +0.000 HD
ENDROOT
BRANCH   1  22
ATOM     21  C   UNL     1      -2.147   9.927  18.195  0.00  0.00    +0.000 C 
ATOM     22  C   UNL     1      -0.752  10.204  17.668  0.00  0.00    +0.000 C 
ENDBRANCH   1  22
BRANCH  17  23
ATOM     23  C   UNL     1       0.468  14.295  18.688  0.00  0.00    +0.000 C 
ATOM     24  O   UNL     1       1.638  14.627  18.565  0.00  0.00    +0.000 OA
BRANCH  23  25
ATOM     25  O   UNL     1      -0.555  15.174  18.557  0.00  0.00    +0.000 OA
ATOM     26  H   UNL     1      -0.637  15.518  17.632  0.00  0.00    +0.000 HD
ENDBRANCH  23  25
ENDBRANCH  17  23
TORSDOF 3
ENDMDL
