MODEL 1
REMARK VINA RESULT:      -8.5      0.000      0.000
REMARK  Name = 
REMARK  8 active torsions:
REMARK  status: ('A' for Active; 'I' for Inactive)
REMARK    1  A    between atoms: C_2  and  C_3
REMARK    2  A    between atoms: C_2  and  C_12
REMARK    3  A    between atoms: C_4  and  C_5
REMARK    4  A    between atoms: C_9  and  O_10
REMARK    5  A    between atoms: C_17  and  N_18
REMARK    6  A    between atoms: N_18  and  S_19
REMARK    7  A    between atoms: S_19  and  C_22
REMARK    8  A    between atoms: C_25  and  O_26
REMARK                            x       y       z     vdW  Elec       q    Type
REMARK                         _______ _______ _______ _____ _____    ______ ____
ROOT
ATOM      1  C   UNL     1       2.747   4.235  19.284  0.00  0.00    +0.000 A 
ATOM      2  C   UNL     1       1.416   4.036  19.701  0.00  0.00    +0.000 A 
ATOM      3  C   UNL     1       0.715   2.888  19.377  0.00  0.00    +0.000 A 
ATOM      4  C   UNL     1       1.339   1.934  18.592  0.00  0.00    +0.000 A 
ATOM      5  C   UNL     1       2.654   2.116  18.155  0.00  0.00    +0.000 A 
ATOM      6  C   UNL     1       3.394   3.257  18.494  0.00  0.00    +0.000 A 
ENDROOT
BRANCH   1   8
ATOM      7  O   UNL     1       4.485   5.710  19.878  0.00  0.00    +0.000 OA
ATOM      8  C   UNL     1       3.281   5.560  19.661  0.00  0.00    +0.000 C 
BRANCH   8   9
ATOM      9  C   UNL     1       2.342   6.718  19.624  0.00  0.00    +0.000 C 
ATOM     10  C   UNL     1       1.971   7.310  20.766  0.00  0.00    +0.000 C 
BRANCH  10  11
ATOM     11  C   UNL     1       1.200   8.556  20.808  0.00  0.00    +0.000 A 
ATOM     12  C   UNL     1       0.915   9.298  19.653  0.00  0.00    +0.000 A 
ATOM     13  C   UNL     1       0.214  10.501  19.736  0.00  0.00    +0.000 A 
ATOM     14  C   UNL     1      -0.227  10.968  20.973  0.00  0.00    +0.000 A 
ATOM     15  C   UNL     1       0.028  10.216  22.115  0.00  0.00    +0.000 A 
ATOM     16  C   UNL     1       0.729   9.016  22.042  0.00  0.00    +0.000 A 
BRANCH  15  17
ATOM     17  O   UNL     1      -0.392  10.634  23.344  0.00  0.00    +0.000 OA
ATOM     18  H   UNL     1      -0.953  11.418  23.230  0.00  0.00    +0.000 HD
ENDBRANCH  15  17
ENDBRANCH  10  11
ENDBRANCH   8   9
ENDBRANCH   1   8
BRANCH   6  19
ATOM     19  N   UNL     1       4.767   3.246  18.040  0.00  0.00    +0.000 N 
ATOM     20  H   UNL     1       5.304   2.377  18.120  0.00  0.00    +0.000 HD
BRANCH  19  21
ATOM     21  S   UNL     1       5.188   4.159  16.673  0.00  0.00    +0.000 S 
ATOM     22  O   UNL     1       5.906   3.275  15.756  0.00  0.00    +0.000 OA
ATOM     23  O   UNL     1       4.058   4.931  16.253  0.00  0.00    +0.000 OA
BRANCH  21  24
ATOM     24  C   UNL     1       6.439   5.303  17.237  0.00  0.00    +0.000 A 
ATOM     25  C   UNL     1       6.396   6.633  16.798  0.00  0.00    +0.000 A 
ATOM     26  C   UNL     1       7.206   7.593  17.407  0.00  0.00    +0.000 A 
ATOM     27  C   UNL     1       8.038   7.214  18.458  0.00  0.00    +0.000 A 
ATOM     28  C   UNL     1       8.075   5.898  18.908  0.00  0.00    +0.000 A 
ATOM     29  C   UNL     1       7.269   4.934  18.301  0.00  0.00    +0.000 A 
BRANCH  27  30
ATOM     30  O   UNL     1       8.823   8.124  19.100  0.00  0.00    +0.000 OA
ATOM     31  H   UNL     1       9.621   8.281  18.568  0.00  0.00    +0.000 HD
ENDBRANCH  27  30
ENDBRANCH  21  24
ENDBRANCH  19  21
ENDBRANCH   6  19
TORSDOF 8
ENDMDL
MODEL 2
REMARK VINA RESULT:      -8.3      0.997      1.344
REMARK  Name = 
REMARK  8 active torsions:
REMARK  status: ('A' for Active; 'I' for Inactive)
REMARK    1  A    between atoms: C_2  and  C_3
REMARK    2  A    between atoms: C_2  and  C_12
REMARK    3  A    between atoms: C_4  and  C_5
REMARK    4  A    between atoms: C_9  and  O_10
REMARK    5  A    between atoms: C_17  and  N_18
REMARK    6  A    between atoms: N_18  and  S_19
REMARK    7  A    between atoms: S_19  and  C_22
REMARK    8  A    between atoms: C_25  and  O_26
REMARK                            x       y       z     vdW  Elec       q    Type
REMARK                         _______ _______ _______ _____ _____    ______ ____
ROOT
ATOM      1  C   UNL     1       2.713   4.143  19.297  0.00  0.00    +0.000 A 
ATOM      2  C   UNL     1       1.386   3.857  19.672  0.00  0.00    +0.000 A 
ATOM      3  C   UNL     1       0.770   2.669  19.321  0.00  0.00    +0.000 A 
ATOM      4  C   UNL     1       1.476   1.763  18.549  0.00  0.00    +0.000 A 
ATOM      5  C   UNL     1       2.789   2.031  18.152  0.00  0.00    +0.000 A 
ATOM      6  C   UNL     1       3.444   3.214  18.520  0.00  0.00    +0.000 A 
ENDROOT
BRANCH   1   8
ATOM      7  O   UNL     1       4.338   5.726  19.933  0.00  0.00    +0.000 OA
ATOM      8  C   UNL     1       3.150   5.496  19.698  0.00  0.00    +0.000 C 
BRANCH   8   9
ATOM      9  C   UNL     1       2.135   6.588  19.663  0.00  0.00    +0.000 C 
ATOM     10  C   UNL     1       2.015   7.417  20.706  0.00  0.00    +0.000 C 
BRANCH  10  11
ATOM     11  C   UNL     1       1.173   8.617  20.682  0.00  0.00    +0.000 A 
ATOM     12  C   UNL     1       0.446   9.043  21.801  0.00  0.00    +0.000 A 
ATOM     13  C   UNL     1      -0.378  10.167  21.729  0.00  0.00    +0.000 A 
ATOM     14  C   UNL     1      -0.469  10.891  20.542  0.00  0.00    +0.000 A 
ATOM     15  C   UNL     1       0.278  10.487  19.439  0.00  0.00    +0.000 A 
ATOM     16  C   UNL     1       1.099   9.366  19.501  0.00  0.00    +0.000 A 
BRANCH  15  17
ATOM     17  O   UNL     1       0.222  11.171  18.260  0.00  0.00    +0.000 OA
ATOM     18  H   UNL     1       1.108  11.511  18.056  0.00  0.00    +0.000 HD
ENDBRANCH  15  17
ENDBRANCH  10  11
ENDBRANCH   8   9
ENDBRANCH   1   8
BRANCH   6  19
ATOM     19  N   UNL     1       4.828   3.295  18.107  0.00  0.00    +0.000 N 
ATOM     20  H   UNL     1       5.421   2.466  18.214  0.00  0.00    +0.000 HD
BRANCH  19  21
ATOM     21  S   UNL     1       5.225   4.220  16.742  0.00  0.00    +0.000 S 
ATOM     22  O   UNL     1       5.934   3.346  15.807  0.00  0.00    +0.000 OA
ATOM     23  O   UNL     1       4.086   4.991  16.343  0.00  0.00    +0.000 OA
BRANCH  21  24
ATOM     24  C   UNL     1       6.480   5.366  17.297  0.00  0.00    +0.000 A 
ATOM     25  C   UNL     1       6.486   6.670  16.786  0.00  0.00    +0.000 A 
ATOM     26  C   UNL     1       7.293   7.644  17.377  0.00  0.00    +0.000 A 
ATOM     27  C   UNL     1       8.072   7.303  18.481  0.00  0.00    +0.000 A 
ATOM     28  C   UNL     1       8.059   6.013  19.001  0.00  0.00    +0.000 A 
ATOM     29  C   UNL     1       7.256   5.036  18.412  0.00  0.00    +0.000 A 
BRANCH  27  30
ATOM     30  O   UNL     1       8.852   8.229  19.106  0.00  0.00    +0.000 OA
ATOM     31  H   UNL     1       9.060   7.913  20.001  0.00  0.00    +0.000 HD
ENDBRANCH  27  30
ENDBRANCH  21  24
ENDBRANCH  19  21
ENDBRANCH   6  19
TORSDOF 8
ENDMDL
MODEL 3
REMARK VINA RESULT:      -8.1      2.991      7.145
REMARK  Name = 
REMARK  8 active torsions:
REMARK  status: ('A' for Active; 'I' for Inactive)
REMARK    1  A    between atoms: C_2  and  C_3
REMARK    2  A    between atoms: C_2  and  C_12
REMARK    3  A    between atoms: C_4  and  C_5
REMARK    4  A    between atoms: C_9  and  O_10
REMARK    5  A    between atoms: C_17  and  N_18
REMARK    6  A    between atoms: N_18  and  S_19
REMARK    7  A    between atoms: S_19  and  C_22
REMARK    8  A    between atoms: C_25  and  O_26
REMARK                            x       y       z     vdW  Elec       q    Type
REMARK                         _______ _______ _______ _____ _____    ______ ____
ROOT
ATOM      1  C   UNL     1       6.753   6.144  16.799  0.00  0.00    +0.000 A 
ATOM      2  C   UNL     1       7.609   5.345  16.016  0.00  0.00    +0.000 A 
ATOM      3  C   UNL     1       7.124   4.521  15.016  0.00  0.00    +0.000 A 
ATOM      4  C   UNL     1       5.755   4.463  14.815  0.00  0.00    +0.000 A 
ATOM      5  C   UNL     1       4.885   5.236  15.590  0.00  0.00    +0.000 A 
ATOM      6  C   UNL     1       5.355   6.099  16.588  0.00  0.00    +0.000 A 
ENDROOT
BRANCH   1   8
ATOM      7  O   UNL     1       7.891   6.289  18.857  0.00  0.00    +0.000 OA
ATOM      8  C   UNL     1       7.462   6.881  17.865  0.00  0.00    +0.000 C 
BRANCH   8   9
ATOM      9  C   UNL     1       7.762   8.322  17.624  0.00  0.00    +0.000 C 
ATOM     10  C   UNL     1       8.510   9.000  18.502  0.00  0.00    +0.000 C 
BRANCH  10  11
ATOM     11  C   UNL     1       8.999  10.360  18.254  0.00  0.00    +0.000 A 
ATOM     12  C   UNL     1      10.324  10.737  18.511  0.00  0.00    +0.000 A 
ATOM     13  C   UNL     1      10.743  12.051  18.303  0.00  0.00    +0.000 A 
ATOM     14  C   UNL     1       9.847  13.001  17.816  0.00  0.00    +0.000 A 
ATOM     15  C   UNL     1       8.539  12.620  17.531  0.00  0.00    +0.000 A 
ATOM     16  C   UNL     1       8.112  11.313  17.739  0.00  0.00    +0.000 A 
BRANCH  15  17
ATOM     17  O   UNL     1       7.632  13.517  17.048  0.00  0.00    +0.000 OA
ATOM     18  H   UNL     1       6.833  13.475  17.596  0.00  0.00    +0.000 HD
ENDBRANCH  15  17
ENDBRANCH  10  11
ENDBRANCH   8   9
ENDBRANCH   1   8
BRANCH   6  19
ATOM     19  N   UNL     1       4.333   6.894  17.232  0.00  0.00    +0.000 N 
ATOM     20  H   UNL     1       3.822   7.584  16.672  0.00  0.00    +0.000 HD
BRANCH  19  21
ATOM     21  S   UNL     1       3.375   6.181  18.437  0.00  0.00    +0.000 S 
ATOM     22  O   UNL     1       2.505   5.201  17.788  0.00  0.00    +0.000 OA
ATOM     23  O   UNL     1       4.199   5.840  19.557  0.00  0.00    +0.000 OA
BRANCH  21  24
ATOM     24  C   UNL     1       2.253   7.467  18.970  0.00  0.00    +0.000 A 
ATOM     25  C   UNL     1       1.872   7.525  20.317  0.00  0.00    +0.000 A 
ATOM     26  C   UNL     1       1.201   8.649  20.802  0.00  0.00    +0.000 A 
ATOM     27  C   UNL     1       0.931   9.706  19.936  0.00  0.00    +0.000 A 
ATOM     28  C   UNL     1       1.320   9.660  18.601  0.00  0.00    +0.000 A 
ATOM     29  C   UNL     1       1.989   8.539  18.111  0.00  0.00    +0.000 A 
BRANCH  27  30
ATOM     30  O   UNL     1       0.304  10.834  20.373  0.00  0.00    +0.000 OA
ATOM     31  H   UNL     1      -0.333  10.591  21.065  0.00  0.00    +0.000 HD
ENDBRANCH  27  30
ENDBRANCH  21  24
ENDBRANCH  19  21
ENDBRANCH   6  19
TORSDOF 8
ENDMDL
MODEL 4
REMARK VINA RESULT:      -8.1      2.169      3.066
REMARK  Name = 
REMARK  8 active torsions:
REMARK  status: ('A' for Active; 'I' for Inactive)
REMARK    1  A    between atoms: C_2  and  C_3
REMARK    2  A    between atoms: C_2  and  C_12
REMARK    3  A    between atoms: C_4  and  C_5
REMARK    4  A    between atoms: C_9  and  O_10
REMARK    5  A    between atoms: C_17  and  N_18
REMARK    6  A    between atoms: N_18  and  S_19
REMARK    7  A    between atoms: S_19  and  C_22
REMARK    8  A    between atoms: C_25  and  O_26
REMARK                            x       y       z     vdW  Elec       q    Type
REMARK                         _______ _______ _______ _____ _____    ______ ____
ROOT
ATOM      1  C   UNL     1       2.546   3.277  19.995  0.00  0.00    +0.000 A 
ATOM      2  C   UNL     1       1.359   2.782  19.421  0.00  0.00    +0.000 A 
ATOM      3  C   UNL     1       1.347   2.182  18.174  0.00  0.00    +0.000 A 
ATOM      4  C   UNL     1       2.534   2.106  17.468  0.00  0.00    +0.000 A 
ATOM      5  C   UNL     1       3.723   2.603  18.011  0.00  0.00    +0.000 A 
ATOM      6  C   UNL     1       3.765   3.189  19.283  0.00  0.00    +0.000 A 
ENDROOT
BRANCH   1   8
ATOM      7  O   UNL     1       2.414   3.327  22.347  0.00  0.00    +0.000 OA
ATOM      8  C   UNL     1       2.326   3.955  21.289  0.00  0.00    +0.000 C 
BRANCH   8   9
ATOM      9  C   UNL     1       2.143   5.435  21.270  0.00  0.00    +0.000 C 
ATOM     10  C   UNL     1       2.012   6.073  20.101  0.00  0.00    +0.000 C 
BRANCH  10  11
ATOM     11  C   UNL     1       1.651   7.490  19.999  0.00  0.00    +0.000 A 
ATOM     12  C   UNL     1       1.090   8.198  21.071  0.00  0.00    +0.000 A 
ATOM     13  C   UNL     1       0.721   9.535  20.925  0.00  0.00    +0.000 A 
ATOM     14  C   UNL     1       0.927  10.187  19.711  0.00  0.00    +0.000 A 
ATOM     15  C   UNL     1       1.514   9.495  18.656  0.00  0.00    +0.000 A 
ATOM     16  C   UNL     1       1.882   8.160  18.792  0.00  0.00    +0.000 A 
BRANCH  15  17
ATOM     17  O   UNL     1       1.738  10.098  17.454  0.00  0.00    +0.000 OA
ATOM     18  H   UNL     1       1.014   9.867  16.851  0.00  0.00    +0.000 HD
ENDBRANCH  15  17
ENDBRANCH  10  11
ENDBRANCH   8   9
ENDBRANCH   1   8
BRANCH   6  19
ATOM     19  N   UNL     1       5.087   3.566  19.734  0.00  0.00    +0.000 N 
ATOM     20  H   UNL     1       5.804   2.839  19.815  0.00  0.00    +0.000 HD
BRANCH  19  21
ATOM     21  S   UNL     1       5.719   5.067  19.258  0.00  0.00    +0.000 S 
ATOM     22  O   UNL     1       4.644   6.052  19.360  0.00  0.00    +0.000 OA
ATOM     23  O   UNL     1       6.991   5.265  19.885  0.00  0.00    +0.000 OA
BRANCH  21  24
ATOM     24  C   UNL     1       6.006   4.922  17.500  0.00  0.00    +0.000 A 
ATOM     25  C   UNL     1       5.114   5.534  16.610  0.00  0.00    +0.000 A 
ATOM     26  C   UNL     1       5.445   5.643  15.258  0.00  0.00    +0.000 A 
ATOM     27  C   UNL     1       6.671   5.150  14.816  0.00  0.00    +0.000 A 
ATOM     28  C   UNL     1       7.567   4.554  15.698  0.00  0.00    +0.000 A 
ATOM     29  C   UNL     1       7.240   4.441  17.049  0.00  0.00    +0.000 A 
BRANCH  27  30
ATOM     30  O   UNL     1       7.047   5.261  13.511  0.00  0.00    +0.000 OA
ATOM     31  H   UNL     1       6.808   4.443  13.045  0.00  0.00    +0.000 HD
ENDBRANCH  27  30
ENDBRANCH  21  24
ENDBRANCH  19  21
ENDBRANCH   6  19
TORSDOF 8
ENDMDL
MODEL 5
REMARK VINA RESULT:      -8.1      2.633      7.435
REMARK  Name = 
REMARK  8 active torsions:
REMARK  status: ('A' for Active; 'I' for Inactive)
REMARK    1  A    between atoms: C_2  and  C_3
REMARK    2  A    between atoms: C_2  and  C_12
REMARK    3  A    between atoms: C_4  and  C_5
REMARK    4  A    between atoms: C_9  and  O_10
REMARK    5  A    between atoms: C_17  and  N_18
REMARK    6  A    between atoms: N_18  and  S_19
REMARK    7  A    between atoms: S_19  and  C_22
REMARK    8  A    between atoms: C_25  and  O_26
REMARK                            x       y       z     vdW  Elec       q    Type
REMARK                         _______ _______ _______ _____ _____    ______ ____
ROOT
ATOM      1  C   UNL     1       3.396   3.769  19.244  0.00  0.00    +0.000 A 
ATOM      2  C   UNL     1       2.918   2.444  19.232  0.00  0.00    +0.000 A 
ATOM      3  C   UNL     1       1.686   2.109  19.766  0.00  0.00    +0.000 A 
ATOM      4  C   UNL     1       0.931   3.107  20.358  0.00  0.00    +0.000 A 
ATOM      5  C   UNL     1       1.391   4.427  20.394  0.00  0.00    +0.000 A 
ATOM      6  C   UNL     1       2.622   4.795  19.834  0.00  0.00    +0.000 A 
ENDROOT
BRANCH   1   8
ATOM      7  O   UNL     1       5.743   3.805  19.448  0.00  0.00    +0.000 OA
ATOM      8  C   UNL     1       4.765   3.896  18.703  0.00  0.00    +0.000 C 
BRANCH   8   9
ATOM      9  C   UNL     1       4.916   3.989  17.222  0.00  0.00    +0.000 C 
ATOM     10  C   UNL     1       6.035   4.505  16.700  0.00  0.00    +0.000 C 
BRANCH  10  11
ATOM     11  C   UNL     1       6.338   4.469  15.266  0.00  0.00    +0.000 A 
ATOM     12  C   UNL     1       5.609   3.680  14.366  0.00  0.00    +0.000 A 
ATOM     13  C   UNL     1       5.953   3.639  13.015  0.00  0.00    +0.000 A 
ATOM     14  C   UNL     1       7.019   4.402  12.543  0.00  0.00    +0.000 A 
ATOM     15  C   UNL     1       7.723   5.211  13.429  0.00  0.00    +0.000 A 
ATOM     16  C   UNL     1       7.389   5.256  14.779  0.00  0.00    +0.000 A 
BRANCH  15  17
ATOM     17  O   UNL     1       8.769   5.978  13.006  0.00  0.00    +0.000 OA
ATOM     18  H   UNL     1       8.454   6.575  12.309  0.00  0.00    +0.000 HD
ENDBRANCH  15  17
ENDBRANCH  10  11
ENDBRANCH   8   9
ENDBRANCH   1   8
BRANCH   6  19
ATOM     19  N   UNL     1       2.906   6.213  19.873  0.00  0.00    +0.000 N 
ATOM     20  H   UNL     1       3.716   6.536  20.411  0.00  0.00    +0.000 HD
BRANCH  19  21
ATOM     21  S   UNL     1       2.619   7.147  18.487  0.00  0.00    +0.000 S 
ATOM     22  O   UNL     1       3.907   7.665  18.028  0.00  0.00    +0.000 OA
ATOM     23  O   UNL     1       1.732   6.438  17.613  0.00  0.00    +0.000 OA
BRANCH  21  24
ATOM     24  C   UNL     1       1.752   8.598  19.067  0.00  0.00    +0.000 A 
ATOM     25  C   UNL     1       1.416   9.604  18.152  0.00  0.00    +0.000 A 
ATOM     26  C   UNL     1       0.536  10.621  18.528  0.00  0.00    +0.000 A 
ATOM     27  C   UNL     1      -0.008  10.610  19.811  0.00  0.00    +0.000 A 
ATOM     28  C   UNL     1       0.311   9.606  20.719  0.00  0.00    +0.000 A 
ATOM     29  C   UNL     1       1.192   8.589  20.349  0.00  0.00    +0.000 A 
BRANCH  27  30
ATOM     30  O   UNL     1      -0.893  11.566  20.210  0.00  0.00    +0.000 OA
ATOM     31  H   UNL     1      -0.402  12.372  20.438  0.00  0.00    +0.000 HD
ENDBRANCH  27  30
ENDBRANCH  21  24
ENDBRANCH  19  21
ENDBRANCH   6  19
TORSDOF 8
ENDMDL
MODEL 6
REMARK VINA RESULT:      -8.0      2.769      7.463
REMARK  Name = 
REMARK  8 active torsions:
REMARK  status: ('A' for Active; 'I' for Inactive)
REMARK    1  A    between atoms: C_2  and  C_3
REMARK    2  A    between atoms: C_2  and  C_12
REMARK    3  A    between atoms: C_4  and  C_5
REMARK    4  A    between atoms: C_9  and  O_10
REMARK    5  A    between atoms: C_17  and  N_18
REMARK    6  A    between atoms: N_18  and  S_19
REMARK    7  A    between atoms: S_19  and  C_22
REMARK    8  A    between atoms: C_25  and  O_26
REMARK                            x       y       z     vdW  Elec       q    Type
REMARK                         _______ _______ _______ _____ _____    ______ ____
ROOT
ATOM      1  C   UNL     1       3.487   3.328  18.207  0.00  0.00    +0.000 A 
ATOM      2  C   UNL     1       3.288   1.979  18.558  0.00  0.00    +0.000 A 
ATOM      3  C   UNL     1       2.025   1.464  18.788  0.00  0.00    +0.000 A 
ATOM      4  C   UNL     1       0.939   2.319  18.703  0.00  0.00    +0.000 A 
ATOM      5  C   UNL     1       1.113   3.666  18.370  0.00  0.00    +0.000 A 
ATOM      6  C   UNL     1       2.380   4.203  18.104  0.00  0.00    +0.000 A 
ENDROOT
BRANCH   1   8
ATOM      7  O   UNL     1       5.563   4.006  19.091  0.00  0.00    +0.000 OA
ATOM      8  C   UNL     1       4.914   3.693  18.091  0.00  0.00    +0.000 C 
BRANCH   8   9
ATOM      9  C   UNL     1       5.562   3.527  16.758  0.00  0.00    +0.000 C 
ATOM     10  C   UNL     1       5.185   4.302  15.735  0.00  0.00    +0.000 C 
BRANCH  10  11
ATOM     11  C   UNL     1       5.888   4.328  14.449  0.00  0.00    +0.000 A 
ATOM     12  C   UNL     1       5.458   3.577  13.346  0.00  0.00    +0.000 A 
ATOM     13  C   UNL     1       6.176   3.594  12.150  0.00  0.00    +0.000 A 
ATOM     14  C   UNL     1       7.323   4.377  12.036  0.00  0.00    +0.000 A 
ATOM     15  C   UNL     1       7.733   5.147  13.120  0.00  0.00    +0.000 A 
ATOM     16  C   UNL     1       7.024   5.134  14.317  0.00  0.00    +0.000 A 
BRANCH  15  17
ATOM     17  O   UNL     1       8.846   5.932  13.047  0.00  0.00    +0.000 OA
ATOM     18  H   UNL     1       8.848   6.389  12.191  0.00  0.00    +0.000 HD
ENDBRANCH  15  17
ENDBRANCH  10  11
ENDBRANCH   8   9
ENDBRANCH   1   8
BRANCH   6  19
ATOM     19  N   UNL     1       2.376   5.587  17.684  0.00  0.00    +0.000 N 
ATOM     20  H   UNL     1       1.533   5.962  17.239  0.00  0.00    +0.000 HD
BRANCH  19  21
ATOM     21  S   UNL     1       3.190   6.735  18.632  0.00  0.00    +0.000 S 
ATOM     22  O   UNL     1       3.394   6.150  19.956  0.00  0.00    +0.000 OA
ATOM     23  O   UNL     1       4.269   7.294  17.875  0.00  0.00    +0.000 OA
BRANCH  21  24
ATOM     24  C   UNL     1       2.002   8.040  18.915  0.00  0.00    +0.000 A 
ATOM     25  C   UNL     1       1.540   8.272  20.217  0.00  0.00    +0.000 A 
ATOM     26  C   UNL     1       0.809   9.427  20.500  0.00  0.00    +0.000 A 
ATOM     27  C   UNL     1       0.562  10.343  19.480  0.00  0.00    +0.000 A 
ATOM     28  C   UNL     1       1.031  10.125  18.188  0.00  0.00    +0.000 A 
ATOM     29  C   UNL     1       1.760   8.971  17.899  0.00  0.00    +0.000 A 
BRANCH  27  30
ATOM     30  O   UNL     1      -0.122  11.497  19.718  0.00  0.00    +0.000 OA
ATOM     31  H   UNL     1      -0.297  11.939  18.871  0.00  0.00    +0.000 HD
ENDBRANCH  27  30
ENDBRANCH  21  24
ENDBRANCH  19  21
ENDBRANCH   6  19
TORSDOF 8
ENDMDL
MODEL 7
REMARK VINA RESULT:      -8.0      3.937      6.817
REMARK  Name = 
REMARK  8 active torsions:
REMARK  status: ('A' for Active; 'I' for Inactive)
REMARK    1  A    between atoms: C_2  and  C_3
REMARK    2  A    between atoms: C_2  and  C_12
REMARK    3  A    between atoms: C_4  and  C_5
REMARK    4  A    between atoms: C_9  and  O_10
REMARK    5  A    between atoms: C_17  and  N_18
REMARK    6  A    between atoms: N_18  and  S_19
REMARK    7  A    between atoms: S_19  and  C_22
REMARK    8  A    between atoms: C_25  and  O_26
REMARK                            x       y       z     vdW  Elec       q    Type
REMARK                         _______ _______ _______ _____ _____    ______ ____
ROOT
ATOM      1  C   UNL     1       6.732   5.923  17.147  0.00  0.00    +0.000 A 
ATOM      2  C   UNL     1       7.524   5.181  16.251  0.00  0.00    +0.000 A 
ATOM      3  C   UNL     1       7.041   4.763  15.024  0.00  0.00    +0.000 A 
ATOM      4  C   UNL     1       5.729   5.059  14.697  0.00  0.00    +0.000 A 
ATOM      5  C   UNL     1       4.918   5.783  15.576  0.00  0.00    +0.000 A 
ATOM      6  C   UNL     1       5.394   6.241  16.812  0.00  0.00    +0.000 A 
ENDROOT
BRANCH   1   8
ATOM      7  O   UNL     1       7.350   5.375  19.354  0.00  0.00    +0.000 OA
ATOM      8  C   UNL     1       7.407   6.193  18.433  0.00  0.00    +0.000 C 
BRANCH   8   9
ATOM      9  C   UNL     1       8.270   7.407  18.517  0.00  0.00    +0.000 C 
ATOM     10  C   UNL     1       7.804   8.584  18.082  0.00  0.00    +0.000 C 
BRANCH  10  11
ATOM     11  C   UNL     1       8.511   9.851  18.291  0.00  0.00    +0.000 A 
ATOM     12  C   UNL     1       9.568   9.975  19.203  0.00  0.00    +0.000 A 
ATOM     13  C   UNL     1      10.191  11.207  19.406  0.00  0.00    +0.000 A 
ATOM     14  C   UNL     1       9.778  12.325  18.684  0.00  0.00    +0.000 A 
ATOM     15  C   UNL     1       8.750  12.195  17.755  0.00  0.00    +0.000 A 
ATOM     16  C   UNL     1       8.121  10.972  17.549  0.00  0.00    +0.000 A 
BRANCH  15  17
ATOM     17  O   UNL     1       8.319  13.264  17.025  0.00  0.00    +0.000 OA
ATOM     18  H   UNL     1       7.620  13.718  17.522  0.00  0.00    +0.000 HD
ENDBRANCH  15  17
ENDBRANCH  10  11
ENDBRANCH   8   9
ENDBRANCH   1   8
BRANCH   6  19
ATOM     19  N   UNL     1       4.459   7.052  17.560  0.00  0.00    +0.000 N 
ATOM     20  H   UNL     1       4.221   7.982  17.202  0.00  0.00    +0.000 HD
BRANCH  19  21
ATOM     21  S   UNL     1       3.162   6.295  18.347  0.00  0.00    +0.000 S 
ATOM     22  O   UNL     1       3.233   6.654  19.763  0.00  0.00    +0.000 OA
ATOM     23  O   UNL     1       1.968   6.479  17.578  0.00  0.00    +0.000 OA
BRANCH  21  24
ATOM     24  C   UNL     1       3.550   4.550  18.325  0.00  0.00    +0.000 A 
ATOM     25  C   UNL     1       4.334   4.012  19.353  0.00  0.00    +0.000 A 
ATOM     26  C   UNL     1       4.446   2.628  19.490  0.00  0.00    +0.000 A 
ATOM     27  C   UNL     1       3.760   1.799  18.605  0.00  0.00    +0.000 A 
ATOM     28  C   UNL     1       2.967   2.327  17.591  0.00  0.00    +0.000 A 
ATOM     29  C   UNL     1       2.854   3.710  17.448  0.00  0.00    +0.000 A 
BRANCH  27  30
ATOM     30  O   UNL     1       3.818   0.442  18.721  0.00  0.00    +0.000 OA
ATOM     31  H   UNL     1       3.785   0.050  17.833  0.00  0.00    +0.000 HD
ENDBRANCH  27  30
ENDBRANCH  21  24
ENDBRANCH  19  21
ENDBRANCH   6  19
TORSDOF 8
ENDMDL
MODEL 8
REMARK VINA RESULT:      -8.0      2.727      6.928
REMARK  Name = 
REMARK  8 active torsions:
REMARK  status: ('A' for Active; 'I' for Inactive)
REMARK    1  A    between atoms: C_2  and  C_3
REMARK    2  A    between atoms: C_2  and  C_12
REMARK    3  A    between atoms: C_4  and  C_5
REMARK    4  A    between atoms: C_9  and  O_10
REMARK    5  A    between atoms: C_17  and  N_18
REMARK    6  A    between atoms: N_18  and  S_19
REMARK    7  A    between atoms: S_19  and  C_22
REMARK    8  A    between atoms: C_25  and  O_26
REMARK                            x       y       z     vdW  Elec       q    Type
REMARK                         _______ _______ _______ _____ _____    ______ ____
ROOT
ATOM      1  C   UNL     1       6.817   5.712  17.003  0.00  0.00    +0.000 A 
ATOM      2  C   UNL     1       7.623   4.987  16.104  0.00  0.00    +0.000 A 
ATOM      3  C   UNL     1       7.169   4.625  14.848  0.00  0.00    +0.000 A 
ATOM      4  C   UNL     1       5.874   4.960  14.492  0.00  0.00    +0.000 A 
ATOM      5  C   UNL     1       5.051   5.668  15.373  0.00  0.00    +0.000 A 
ATOM      6  C   UNL     1       5.498   6.070  16.639  0.00  0.00    +0.000 A 
ENDROOT
BRANCH   1   8
ATOM      7  O   UNL     1       7.465   5.021  19.160  0.00  0.00    +0.000 OA
ATOM      8  C   UNL     1       7.458   5.921  18.317  0.00  0.00    +0.000 C 
BRANCH   8   9
ATOM      9  C   UNL     1       8.210   7.192  18.524  0.00  0.00    +0.000 C 
ATOM     10  C   UNL     1       7.796   8.314  17.923  0.00  0.00    +0.000 C 
BRANCH  10  11
ATOM     11  C   UNL     1       8.367   9.633  18.211  0.00  0.00    +0.000 A 
ATOM     12  C   UNL     1       8.100  10.754  17.413  0.00  0.00    +0.000 A 
ATOM     13  C   UNL     1       8.694  11.984  17.694  0.00  0.00    +0.000 A 
ATOM     14  C   UNL     1       9.548  12.115  18.787  0.00  0.00    +0.000 A 
ATOM     15  C   UNL     1       9.788  11.010  19.599  0.00  0.00    +0.000 A 
ATOM     16  C   UNL     1       9.203   9.778  19.325  0.00  0.00    +0.000 A 
BRANCH  15  17
ATOM     17  O   UNL     1      10.612  11.097  20.682  0.00  0.00    +0.000 OA
ATOM     18  H   UNL     1      10.191  10.644  21.430  0.00  0.00    +0.000 HD
ENDBRANCH  15  17
ENDBRANCH  10  11
ENDBRANCH   8   9
ENDBRANCH   1   8
BRANCH   6  19
ATOM     19  N   UNL     1       4.555   6.873  17.387  0.00  0.00    +0.000 N 
ATOM     20  H   UNL     1       4.139   7.691  16.933  0.00  0.00    +0.000 HD
BRANCH  19  21
ATOM     21  S   UNL     1       3.496   6.104  18.465  0.00  0.00    +0.000 S 
ATOM     22  O   UNL     1       2.704   5.143  17.697  0.00  0.00    +0.000 OA
ATOM     23  O   UNL     1       4.213   5.724  19.645  0.00  0.00    +0.000 OA
BRANCH  21  24
ATOM     24  C   UNL     1       2.312   7.357  18.938  0.00  0.00    +0.000 A 
ATOM     25  C   UNL     1       1.923   7.457  20.280  0.00  0.00    +0.000 A 
ATOM     26  C   UNL     1       1.197   8.567  20.713  0.00  0.00    +0.000 A 
ATOM     27  C   UNL     1       0.882   9.572  19.801  0.00  0.00    +0.000 A 
ATOM     28  C   UNL     1       1.278   9.485  18.470  0.00  0.00    +0.000 A 
ATOM     29  C   UNL     1       2.001   8.376  18.032  0.00  0.00    +0.000 A 
BRANCH  27  30
ATOM     30  O   UNL     1       0.200  10.687  20.187  0.00  0.00    +0.000 OA
ATOM     31  H   UNL     1       0.067  10.656  21.148  0.00  0.00    +0.000 HD
ENDBRANCH  27  30
ENDBRANCH  21  24
ENDBRANCH  19  21
ENDBRANCH   6  19
TORSDOF 8
ENDMDL
MODEL 9
REMARK VINA RESULT:      -7.9      2.964      7.365
REMARK  Name = 
REMARK  8 active torsions:
REMARK  status: ('A' for Active; 'I' for Inactive)
REMARK    1  A    between atoms: C_2  and  C_3
REMARK    2  A    between atoms: C_2  and  C_12
REMARK    3  A    between atoms: C_4  and  C_5
REMARK    4  A    between atoms: C_9  and  O_10
REMARK    5  A    between atoms: C_17  and  N_18
REMARK    6  A    between atoms: N_18  and  S_19
REMARK    7  A    between atoms: S_19  and  C_22
REMARK    8  A    between atoms: C_25  and  O_26
REMARK                            x       y       z     vdW  Elec       q    Type
REMARK                         _______ _______ _______ _____ _____    ______ ____
ROOT
ATOM      1  C   UNL     1       6.714   6.150  16.964  0.00  0.00    +0.000 A 
ATOM      2  C   UNL     1       7.528   5.283  16.210  0.00  0.00    +0.000 A 
ATOM      3  C   UNL     1       6.997   4.419  15.268  0.00  0.00    +0.000 A 
ATOM      4  C   UNL     1       5.623   4.392  15.099  0.00  0.00    +0.000 A 
ATOM      5  C   UNL     1       4.794   5.233  15.846  0.00  0.00    +0.000 A 
ATOM      6  C   UNL     1       5.311   6.136  16.785  0.00  0.00    +0.000 A 
ENDROOT
BRANCH   1   8
ATOM      7  O   UNL     1       7.985   6.358  18.937  0.00  0.00    +0.000 OA
ATOM      8  C   UNL     1       7.468   6.924  17.971  0.00  0.00    +0.000 C 
BRANCH   8   9
ATOM      9  C   UNL     1       7.699   8.371  17.697  0.00  0.00    +0.000 C 
ATOM     10  C   UNL     1       8.591   9.051  18.428  0.00  0.00    +0.000 C 
BRANCH  10  11
ATOM     11  C   UNL     1       9.007  10.421  18.111  0.00  0.00    +0.000 A 
ATOM     12  C   UNL     1       8.088  11.418  17.755  0.00  0.00    +0.000 A 
ATOM     13  C   UNL     1       8.524  12.700  17.419  0.00  0.00    +0.000 A 
ATOM     14  C   UNL     1       9.884  13.006  17.454  0.00  0.00    +0.000 A 
ATOM     15  C   UNL     1      10.793  12.026  17.839  0.00  0.00    +0.000 A 
ATOM     16  C   UNL     1      10.368  10.744  18.172  0.00  0.00    +0.000 A 
BRANCH  15  17
ATOM     17  O   UNL     1      12.131  12.286  17.891  0.00  0.00    +0.000 OA
ATOM     18  H   UNL     1      12.384  12.424  18.818  0.00  0.00    +0.000 HD
ENDBRANCH  15  17
ENDBRANCH  10  11
ENDBRANCH   8   9
ENDBRANCH   1   8
BRANCH   6  19
ATOM     19  N   UNL     1       4.327   6.998  17.404  0.00  0.00    +0.000 N 
ATOM     20  H   UNL     1       3.922   7.757  16.849  0.00  0.00    +0.000 HD
BRANCH  19  21
ATOM     21  S   UNL     1       3.228   6.328  18.509  0.00  0.00    +0.000 S 
ATOM     22  O   UNL     1       2.233   5.579  17.743  0.00  0.00    +0.000 OA
ATOM     23  O   UNL     1       3.950   5.738  19.596  0.00  0.00    +0.000 OA
BRANCH  21  24
ATOM     24  C   UNL     1       2.313   7.716  19.164  0.00  0.00    +0.000 A 
ATOM     25  C   UNL     1       1.897   8.732  18.294  0.00  0.00    +0.000 A 
ATOM     26  C   UNL     1       0.983   9.691  18.731  0.00  0.00    +0.000 A 
ATOM     27  C   UNL     1       0.485   9.614  20.030  0.00  0.00    +0.000 A 
ATOM     28  C   UNL     1       0.883   8.599  20.895  0.00  0.00    +0.000 A 
ATOM     29  C   UNL     1       1.798   7.639  20.463  0.00  0.00    +0.000 A 
BRANCH  27  30
ATOM     30  O   UNL     1      -0.431  10.512  20.489  0.00  0.00    +0.000 OA
ATOM     31  H   UNL     1      -1.096  10.041  21.018  0.00  0.00    +0.000 HD
ENDBRANCH  27  30
ENDBRANCH  21  24
ENDBRANCH  19  21
ENDBRANCH   6  19
TORSDOF 8
ENDMDL
