MODEL 1
REMARK VINA RESULT:      -7.0      0.000      0.000
REMARK  Name = 
REMARK  2 active torsions:
REMARK  status: ('A' for Active; 'I' for Inactive)
REMARK    1  A    between atoms: C_1  and  C_2
REMARK    2  A    between atoms: C_7  and  C_8
REMARK                            x       y       z     vdW  Elec       q    Type
REMARK                         _______ _______ _______ _____ _____    ______ ____
ROOT
ATOM      1  C   UNL     1       7.067   4.981  14.346  0.00  0.00    +0.000 C 
ATOM      2  C   UNL     1       6.011   4.988  15.407  0.00  0.00    +0.000 A 
ATOM      3  N   UNL     1       5.593   3.807  15.877  0.00  0.00    +0.000 NA
ATOM      4  C   UNL     1       4.650   3.805  16.828  0.00  0.00    +0.000 A 
ATOM      5 CL   UNL     1       4.062   2.269  17.251  0.00  0.00    +0.000 Cl
ATOM      6  C   UNL     1       4.103   4.970  17.367  0.00  0.00    +0.000 A 
ATOM      7  C   UNL     1       3.144   5.340  18.407  0.00  0.00    +0.000 A 
ATOM      8  C   UNL     1       2.942   6.711  18.429  0.00  0.00    +0.000 A 
ATOM      9  S   UNL     1       3.884   7.554  17.290  0.00  0.00    +0.000 S 
ATOM     10  C   UNL     1       4.600   6.114  16.744  0.00  0.00    +0.000 A 
ATOM     11  N   UNL     1       5.533   6.176  15.782  0.00  0.00    +0.000 NA
ENDROOT
BRANCH   7  12
ATOM     12  C   UNL     1       2.435   4.506  19.392  0.00  0.00    +0.000 A 
ATOM     13  C   UNL     1       1.347   3.711  19.013  0.00  0.00    +0.000 A 
ATOM     14  C   UNL     1       0.657   2.938  19.953  0.00  0.00    +0.000 A 
ATOM     15  C   UNL     1       1.091   2.891  21.274  0.00  0.00    +0.000 A 
ATOM     16  C   UNL     1       2.212   3.622  21.657  0.00  0.00    +0.000 A 
ATOM     17  C   UNL     1       2.869   4.436  20.728  0.00  0.00    +0.000 A 
ENDBRANCH   7  12
TORSDOF 1
ENDMDL
MODEL 2
REMARK VINA RESULT:      -6.9      0.057      1.167
REMARK  Name = 
REMARK  2 active torsions:
REMARK  status: ('A' for Active; 'I' for Inactive)
REMARK    1  A    between atoms: C_1  and  C_2
REMARK    2  A    between atoms: C_7  and  C_8
REMARK                            x       y       z     vdW  Elec       q    Type
REMARK                         _______ _______ _______ _____ _____    ______ ____
ROOT
ATOM      1  C   UNL     1       7.105   4.974  14.317  0.00  0.00    +0.000 C 
ATOM      2  C   UNL     1       6.048   4.979  15.377  0.00  0.00    +0.000 A 
ATOM      3  N   UNL     1       5.622   3.797  15.836  0.00  0.00    +0.000 NA
ATOM      4  C   UNL     1       4.678   3.793  16.787  0.00  0.00    +0.000 A 
ATOM      5 CL   UNL     1       4.080   2.257  17.195  0.00  0.00    +0.000 Cl
ATOM      6  C   UNL     1       4.138   4.956  17.335  0.00  0.00    +0.000 A 
ATOM      7  C   UNL     1       3.181   5.323  18.377  0.00  0.00    +0.000 A 
ATOM      8  C   UNL     1       2.987   6.696  18.411  0.00  0.00    +0.000 A 
ATOM      9  S   UNL     1       3.936   7.543  17.281  0.00  0.00    +0.000 S 
ATOM     10  C   UNL     1       4.643   6.103  16.722  0.00  0.00    +0.000 A 
ATOM     11  N   UNL     1       5.577   6.167  15.762  0.00  0.00    +0.000 NA
ENDROOT
BRANCH   7  12
ATOM     12  C   UNL     1       2.465   4.486  19.355  0.00  0.00    +0.000 A 
ATOM     13  C   UNL     1       2.817   4.501  20.710  0.00  0.00    +0.000 A 
ATOM     14  C   UNL     1       2.154   3.687  21.635  0.00  0.00    +0.000 A 
ATOM     15  C   UNL     1       1.080   2.900  21.231  0.00  0.00    +0.000 A 
ATOM     16  C   UNL     1       0.673   2.921  19.901  0.00  0.00    +0.000 A 
ATOM     17  C   UNL     1       1.369   3.695  18.966  0.00  0.00    +0.000 A 
ENDBRANCH   7  12
TORSDOF 1
ENDMDL
MODEL 3
REMARK VINA RESULT:      -6.9      1.829      2.131
REMARK  Name = 
REMARK  2 active torsions:
REMARK  status: ('A' for Active; 'I' for Inactive)
REMARK    1  A    between atoms: C_1  and  C_2
REMARK    2  A    between atoms: C_7  and  C_8
REMARK                            x       y       z     vdW  Elec       q    Type
REMARK                         _______ _______ _______ _____ _____    ______ ____
ROOT
ATOM      1  C   UNL     1       7.113   4.511  13.501  0.00  0.00    +0.000 C 
ATOM      2  C   UNL     1       6.530   4.574  14.878  0.00  0.00    +0.000 A 
ATOM      3  N   UNL     1       5.285   4.116  15.048  0.00  0.00    +0.000 NA
ATOM      4  C   UNL     1       4.756   4.166  16.278  0.00  0.00    +0.000 A 
ATOM      5 CL   UNL     1       3.121   3.718  16.374  0.00  0.00    +0.000 Cl
ATOM      6  C   UNL     1       5.448   4.648  17.389  0.00  0.00    +0.000 A 
ATOM      7  C   UNL     1       5.226   4.796  18.827  0.00  0.00    +0.000 A 
ATOM      8  C   UNL     1       6.294   5.444  19.428  0.00  0.00    +0.000 A 
ATOM      9  S   UNL     1       7.549   5.832  18.347  0.00  0.00    +0.000 S 
ATOM     10  C   UNL     1       6.709   5.134  17.047  0.00  0.00    +0.000 A 
ATOM     11  N   UNL     1       7.284   5.120  15.834  0.00  0.00    +0.000 NA
ENDROOT
BRANCH   7  12
ATOM     12  C   UNL     1       4.106   4.348  19.671  0.00  0.00    +0.000 A 
ATOM     13  C   UNL     1       3.091   5.234  20.051  0.00  0.00    +0.000 A 
ATOM     14  C   UNL     1       2.039   4.815  20.873  0.00  0.00    +0.000 A 
ATOM     15  C   UNL     1       1.948   3.485  21.269  0.00  0.00    +0.000 A 
ATOM     16  C   UNL     1       2.911   2.573  20.848  0.00  0.00    +0.000 A 
ATOM     17  C   UNL     1       3.990   3.004  20.068  0.00  0.00    +0.000 A 
ENDBRANCH   7  12
TORSDOF 1
ENDMDL
MODEL 4
REMARK VINA RESULT:      -6.9      1.833      2.123
REMARK  Name = 
REMARK  2 active torsions:
REMARK  status: ('A' for Active; 'I' for Inactive)
REMARK    1  A    between atoms: C_1  and  C_2
REMARK    2  A    between atoms: C_7  and  C_8
REMARK                            x       y       z     vdW  Elec       q    Type
REMARK                         _______ _______ _______ _____ _____    ______ ____
ROOT
ATOM      1  C   UNL     1       7.139   4.460  13.542  0.00  0.00    +0.000 C 
ATOM      2  C   UNL     1       6.541   4.521  14.913  0.00  0.00    +0.000 A 
ATOM      3  N   UNL     1       5.286   4.083  15.065  0.00  0.00    +0.000 NA
ATOM      4  C   UNL     1       4.745   4.131  16.289  0.00  0.00    +0.000 A 
ATOM      5 CL   UNL     1       3.101   3.709  16.362  0.00  0.00    +0.000 Cl
ATOM      6  C   UNL     1       5.431   4.593  17.412  0.00  0.00    +0.000 A 
ATOM      7  C   UNL     1       5.194   4.732  18.848  0.00  0.00    +0.000 A 
ATOM      8  C   UNL     1       6.265   5.358  19.467  0.00  0.00    +0.000 A 
ATOM      9  S   UNL     1       7.539   5.733  18.405  0.00  0.00    +0.000 S 
ATOM     10  C   UNL     1       6.704   5.060  17.088  0.00  0.00    +0.000 A 
ATOM     11  N   UNL     1       7.292   5.047  15.883  0.00  0.00    +0.000 NA
ENDROOT
BRANCH   7  12
ATOM     12  C   UNL     1       4.057   4.296  19.675  0.00  0.00    +0.000 A 
ATOM     13  C   UNL     1       3.963   2.976  20.132  0.00  0.00    +0.000 A 
ATOM     14  C   UNL     1       2.870   2.555  20.898  0.00  0.00    +0.000 A 
ATOM     15  C   UNL     1       1.891   3.466  21.280  0.00  0.00    +0.000 A 
ATOM     16  C   UNL     1       2.001   4.798  20.892  0.00  0.00    +0.000 A 
ATOM     17  C   UNL     1       3.066   5.207  20.083  0.00  0.00    +0.000 A 
ENDBRANCH   7  12
TORSDOF 1
ENDMDL
MODEL 5
REMARK VINA RESULT:      -6.7      3.162      5.759
REMARK  Name = 
REMARK  2 active torsions:
REMARK  status: ('A' for Active; 'I' for Inactive)
REMARK    1  A    between atoms: C_1  and  C_2
REMARK    2  A    between atoms: C_7  and  C_8
REMARK                            x       y       z     vdW  Elec       q    Type
REMARK                         _______ _______ _______ _____ _____    ______ ____
ROOT
ATOM      1  C   UNL     1       0.644   8.017  21.383  0.00  0.00    +0.000 C 
ATOM      2  C   UNL     1       1.542   7.121  20.589  0.00  0.00    +0.000 A 
ATOM      3  N   UNL     1       2.185   7.653  19.544  0.00  0.00    +0.000 NA
ATOM      4  C   UNL     1       2.993   6.858  18.830  0.00  0.00    +0.000 A 
ATOM      5 CL   UNL     1       3.641   7.568  17.430  0.00  0.00    +0.000 Cl
ATOM      6  C   UNL     1       3.213   5.516  19.136  0.00  0.00    +0.000 A 
ATOM      7  C   UNL     1       4.030   4.408  18.642  0.00  0.00    +0.000 A 
ATOM      8  C   UNL     1       3.749   3.239  19.333  0.00  0.00    +0.000 A 
ATOM      9  S   UNL     1       2.590   3.439  20.562  0.00  0.00    +0.000 S 
ATOM     10  C   UNL     1       2.439   5.095  20.217  0.00  0.00    +0.000 A 
ATOM     11  N   UNL     1       1.607   5.841  20.960  0.00  0.00    +0.000 NA
ENDROOT
BRANCH   7  12
ATOM     12  C   UNL     1       5.068   4.379  17.598  0.00  0.00    +0.000 A 
ATOM     13  C   UNL     1       4.733   4.161  16.256  0.00  0.00    +0.000 A 
ATOM     14  C   UNL     1       5.721   4.109  15.267  0.00  0.00    +0.000 A 
ATOM     15  C   UNL     1       7.052   4.346  15.594  0.00  0.00    +0.000 A 
ATOM     16  C   UNL     1       7.397   4.630  16.912  0.00  0.00    +0.000 A 
ATOM     17  C   UNL     1       6.416   4.631  17.909  0.00  0.00    +0.000 A 
ENDBRANCH   7  12
TORSDOF 1
ENDMDL
MODEL 6
REMARK VINA RESULT:      -6.7      3.193      5.881
REMARK  Name = 
REMARK  2 active torsions:
REMARK  status: ('A' for Active; 'I' for Inactive)
REMARK    1  A    between atoms: C_1  and  C_2
REMARK    2  A    between atoms: C_7  and  C_8
REMARK                            x       y       z     vdW  Elec       q    Type
REMARK                         _______ _______ _______ _____ _____    ______ ____
ROOT
ATOM      1  C   UNL     1       0.591   8.111  21.417  0.00  0.00    +0.000 C 
ATOM      2  C   UNL     1       1.489   7.209  20.629  0.00  0.00    +0.000 A 
ATOM      3  N   UNL     1       2.138   7.736  19.584  0.00  0.00    +0.000 NA
ATOM      4  C   UNL     1       2.946   6.935  18.876  0.00  0.00    +0.000 A 
ATOM      5 CL   UNL     1       3.602   7.639  17.476  0.00  0.00    +0.000 Cl
ATOM      6  C   UNL     1       3.159   5.593  19.187  0.00  0.00    +0.000 A 
ATOM      7  C   UNL     1       3.974   4.481  18.700  0.00  0.00    +0.000 A 
ATOM      8  C   UNL     1       3.686   3.315  19.392  0.00  0.00    +0.000 A 
ATOM      9  S   UNL     1       2.522   3.523  20.616  0.00  0.00    +0.000 S 
ATOM     10  C   UNL     1       2.379   5.179  20.266  0.00  0.00    +0.000 A 
ATOM     11  N   UNL     1       1.548   5.930  21.004  0.00  0.00    +0.000 NA
ENDROOT
BRANCH   7  12
ATOM     12  C   UNL     1       5.015   4.445  17.659  0.00  0.00    +0.000 A 
ATOM     13  C   UNL     1       6.363   4.639  17.983  0.00  0.00    +0.000 A 
ATOM     14  C   UNL     1       7.351   4.628  16.991  0.00  0.00    +0.000 A 
ATOM     15  C   UNL     1       7.014   4.351  15.671  0.00  0.00    +0.000 A 
ATOM     16  C   UNL     1       5.687   4.090  15.339  0.00  0.00    +0.000 A 
ATOM     17  C   UNL     1       4.694   4.151  16.322  0.00  0.00    +0.000 A 
ENDBRANCH   7  12
TORSDOF 1
ENDMDL
MODEL 7
REMARK VINA RESULT:      -6.3      2.954      4.724
REMARK  Name = 
REMARK  2 active torsions:
REMARK  status: ('A' for Active; 'I' for Inactive)
REMARK    1  A    between atoms: C_1  and  C_2
REMARK    2  A    between atoms: C_7  and  C_8
REMARK                            x       y       z     vdW  Elec       q    Type
REMARK                         _______ _______ _______ _____ _____    ______ ____
ROOT
ATOM      1  C   UNL     1       4.645   1.633  19.927  0.00  0.00    +0.000 C 
ATOM      2  C   UNL     1       4.150   2.999  19.566  0.00  0.00    +0.000 A 
ATOM      3  N   UNL     1       3.046   3.442  20.179  0.00  0.00    +0.000 NA
ATOM      4  C   UNL     1       2.598   4.665  19.864  0.00  0.00    +0.000 A 
ATOM      5 CL   UNL     1       1.108   5.083  20.564  0.00  0.00    +0.000 Cl
ATOM      6  C   UNL     1       3.237   5.502  18.950  0.00  0.00    +0.000 A 
ATOM      7  C   UNL     1       3.079   6.857  18.424  0.00  0.00    +0.000 A 
ATOM      8  C   UNL     1       4.016   7.118  17.436  0.00  0.00    +0.000 A 
ATOM      9  S   UNL     1       5.087   5.825  17.160  0.00  0.00    +0.000 S 
ATOM     10  C   UNL     1       4.339   4.885  18.360  0.00  0.00    +0.000 A 
ATOM     11  N   UNL     1       4.826   3.664  18.627  0.00  0.00    +0.000 NA
ENDROOT
BRANCH   7  12
ATOM     12  C   UNL     1       2.137   7.925  18.802  0.00  0.00    +0.000 A 
ATOM     13  C   UNL     1       1.810   8.155  20.143  0.00  0.00    +0.000 A 
ATOM     14  C   UNL     1       0.897   9.153  20.501  0.00  0.00    +0.000 A 
ATOM     15  C   UNL     1       0.353   9.985  19.528  0.00  0.00    +0.000 A 
ATOM     16  C   UNL     1       0.716   9.816  18.196  0.00  0.00    +0.000 A 
ATOM     17  C   UNL     1       1.589   8.784  17.833  0.00  0.00    +0.000 A 
ENDBRANCH   7  12
TORSDOF 1
ENDMDL
MODEL 8
REMARK VINA RESULT:      -6.3      2.935      4.649
REMARK  Name = 
REMARK  2 active torsions:
REMARK  status: ('A' for Active; 'I' for Inactive)
REMARK    1  A    between atoms: C_1  and  C_2
REMARK    2  A    between atoms: C_7  and  C_8
REMARK                            x       y       z     vdW  Elec       q    Type
REMARK                         _______ _______ _______ _____ _____    ______ ____
ROOT
ATOM      1  C   UNL     1       4.717   1.597  20.176  0.00  0.00    +0.000 C 
ATOM      2  C   UNL     1       4.236   2.951  19.756  0.00  0.00    +0.000 A 
ATOM      3  N   UNL     1       3.115   3.415  20.318  0.00  0.00    +0.000 NA
ATOM      4  C   UNL     1       2.679   4.627  19.949  0.00  0.00    +0.000 A 
ATOM      5 CL   UNL     1       1.169   5.070  20.586  0.00  0.00    +0.000 Cl
ATOM      6  C   UNL     1       3.349   5.434  19.030  0.00  0.00    +0.000 A 
ATOM      7  C   UNL     1       3.211   6.771  18.455  0.00  0.00    +0.000 A 
ATOM      8  C   UNL     1       4.181   6.999  17.491  0.00  0.00    +0.000 A 
ATOM      9  S   UNL     1       5.258   5.697  17.291  0.00  0.00    +0.000 S 
ATOM     10  C   UNL     1       4.469   4.797  18.496  0.00  0.00    +0.000 A 
ATOM     11  N   UNL     1       4.944   3.584  18.818  0.00  0.00    +0.000 NA
ENDROOT
BRANCH   7  12
ATOM     12  C   UNL     1       2.260   7.852  18.768  0.00  0.00    +0.000 A 
ATOM     13  C   UNL     1       1.701   8.635  17.751  0.00  0.00    +0.000 A 
ATOM     14  C   UNL     1       0.816   9.677  18.049  0.00  0.00    +0.000 A 
ATOM     15  C   UNL     1       0.421   9.905  19.363  0.00  0.00    +0.000 A 
ATOM     16  C   UNL     1       0.914   9.095  20.381  0.00  0.00    +0.000 A 
ATOM     17  C   UNL     1       1.839   8.086  20.088  0.00  0.00    +0.000 A 
ENDBRANCH   7  12
TORSDOF 1
ENDMDL
MODEL 9
REMARK VINA RESULT:      -6.2      2.565      3.358
REMARK  Name = 
REMARK  2 active torsions:
REMARK  status: ('A' for Active; 'I' for Inactive)
REMARK    1  A    between atoms: C_1  and  C_2
REMARK    2  A    between atoms: C_7  and  C_8
REMARK                            x       y       z     vdW  Elec       q    Type
REMARK                         _______ _______ _______ _____ _____    ______ ____
ROOT
ATOM      1  C   UNL     1       8.218   8.317  17.451  0.00  0.00    +0.000 C 
ATOM      2  C   UNL     1       7.257   7.174  17.358  0.00  0.00    +0.000 A 
ATOM      3  N   UNL     1       6.424   6.976  18.385  0.00  0.00    +0.000 NA
ATOM      4  C   UNL     1       5.558   5.956  18.309  0.00  0.00    +0.000 A 
ATOM      5 CL   UNL     1       4.653   5.679  19.718  0.00  0.00    +0.000 Cl
ATOM      6  C   UNL     1       5.469   5.110  17.205  0.00  0.00    +0.000 A 
ATOM      7  C   UNL     1       4.649   3.982  16.764  0.00  0.00    +0.000 A 
ATOM      8  C   UNL     1       5.105   3.481  15.554  0.00  0.00    +0.000 A 
ATOM      9  S   UNL     1       6.434   4.336  14.924  0.00  0.00    +0.000 S 
ATOM     10  C   UNL     1       6.431   5.408  16.241  0.00  0.00    +0.000 A 
ATOM     11  N   UNL     1       7.327   6.406  16.268  0.00  0.00    +0.000 NA
ENDROOT
BRANCH   7  12
ATOM     12  C   UNL     1       3.459   3.369  17.378  0.00  0.00    +0.000 A 
ATOM     13  C   UNL     1       3.510   2.075  17.911  0.00  0.00    +0.000 A 
ATOM     14  C   UNL     1       2.374   1.483  18.473  0.00  0.00    +0.000 A 
ATOM     15  C   UNL     1       1.188   2.202  18.576  0.00  0.00    +0.000 A 
ATOM     16  C   UNL     1       1.135   3.513  18.112  0.00  0.00    +0.000 A 
ATOM     17  C   UNL     1       2.257   4.087  17.504  0.00  0.00    +0.000 A 
ENDBRANCH   7  12
TORSDOF 1
ENDMDL
