MODEL 1
REMARK VINA RESULT:      -7.5      0.000      0.000
REMARK  Name = 
REMARK  4 active torsions:
REMARK  status: ('A' for Active; 'I' for Inactive)
REMARK    1  A    between atoms: N_1  and  N_2
REMARK    2  A    between atoms: C_3  and  C_4
REMARK    3  A    between atoms: C_4  and  C_5
REMARK    4  A    between atoms: C_17  and  N_18
REMARK                            x       y       z     vdW  Elec       q    Type
REMARK                         _______ _______ _______ _____ _____    ______ ____
ROOT
ATOM      1  N   UNL     1      -0.270  10.077  22.438  0.00  0.00    +0.000 N 
ATOM      2  C   UNL     1       0.827  10.082  21.638  0.00  0.00    +0.000 A 
ATOM      3  N   UNL     1       1.199  11.141  20.962  0.00  0.00    +0.000 NA
ATOM      4  C   UNL     1       0.481  12.349  21.094  0.00  0.00    +0.000 A 
ATOM      5  C   UNL     1      -0.549  12.436  21.962  0.00  0.00    +0.000 A 
ATOM      6  C   UNL     1      -1.008  11.255  22.679  0.00  0.00    +0.000 A 
ATOM      7  O   UNL     1      -1.961  11.348  23.448  0.00  0.00    +0.000 OA
ENDROOT
BRANCH   4   8
ATOM      8  N   UNL     1       0.858  13.541  20.396  0.00  0.00    +0.000 N 
ATOM      9  C   UNL     1       0.028  14.767  20.431  0.00  0.00    +0.000 C 
ATOM     10  C   UNL     1       0.077  15.475  19.060  0.00  0.00    +0.000 C 
ATOM     11  O   UNL     1       1.425  15.784  18.659  0.00  0.00    +0.000 OA
ATOM     12  C   UNL     1       2.209  14.583  18.605  0.00  0.00    +0.000 C 
ATOM     13  C   UNL     1       2.240  13.880  19.978  0.00  0.00    +0.000 C 
ENDBRANCH   4   8
BRANCH   1  14
ATOM     14  N   UNL     1      -0.827   8.905  23.031  0.00  0.00    +0.000 N 
ATOM     15  H   UNL     1      -0.212   8.144  22.743  0.00  0.00    +0.000 HD
ATOM     16  H   UNL     1      -0.663   8.984  24.039  0.00  0.00    +0.000 HD
ENDBRANCH   1  14
BRANCH   2  17
ATOM     17  C   UNL     1       1.671   8.688  21.459  0.00  0.00    +0.000 C 
BRANCH  17  18
ATOM     18  C   UNL     1       1.671   7.965  20.086  0.00  0.00    +0.000 C 
ATOM     19  O   UNL     1       1.077   8.508  19.141  0.00  0.00    +0.000 OA
ATOM     20  N   UNL     1       2.542   6.820  19.859  0.00  0.00    +0.000 N 
ATOM     21  C   UNL     1       3.197   6.971  18.491  0.00  0.00    +0.000 C 
ATOM     22  C   UNL     1       3.608   5.604  18.016  0.00  0.00    +0.000 C 
ATOM     23  C   UNL     1       2.369   4.919  18.467  0.00  0.00    +0.000 A 
ATOM     24  C   UNL     1       1.717   3.862  17.854  0.00  0.00    +0.000 A 
ATOM     25  C   UNL     1       0.917   3.073  18.656  0.00  0.00    +0.000 A 
ATOM     26  C   UNL     1       0.936   3.308  20.041  0.00  0.00    +0.000 A 
ATOM     27  C   UNL     1       1.462   4.517  20.582  0.00  0.00    +0.000 A 
ATOM     28  C   UNL     1       2.011   5.446  19.715  0.00  0.00    +0.000 A 
ENDBRANCH  17  18
ENDBRANCH   2  17
TORSDOF 4
ENDMDL
MODEL 2
REMARK VINA RESULT:      -7.5      0.418      1.020
REMARK  Name = 
REMARK  4 active torsions:
REMARK  status: ('A' for Active; 'I' for Inactive)
REMARK    1  A    between atoms: N_1  and  N_2
REMARK    2  A    between atoms: C_3  and  C_4
REMARK    3  A    between atoms: C_4  and  C_5
REMARK    4  A    between atoms: C_17  and  N_18
REMARK                            x       y       z     vdW  Elec       q    Type
REMARK                         _______ _______ _______ _____ _____    ______ ____
ROOT
ATOM      1  N   UNL     1      -0.256  10.235  22.360  0.00  0.00    +0.000 N 
ATOM      2  C   UNL     1       0.761  10.139  21.465  0.00  0.00    +0.000 A 
ATOM      3  N   UNL     1       1.068  11.113  20.644  0.00  0.00    +0.000 NA
ATOM      4  C   UNL     1       0.366  12.337  20.708  0.00  0.00    +0.000 A 
ATOM      5  C   UNL     1      -0.577  12.530  21.654  0.00  0.00    +0.000 A 
ATOM      6  C   UNL     1      -0.968  11.441  22.537  0.00  0.00    +0.000 A 
ATOM      7  O   UNL     1      -1.843  11.628  23.376  0.00  0.00    +0.000 OA
ENDROOT
BRANCH   4   8
ATOM      8  N   UNL     1       0.676  13.440  19.850  0.00  0.00    +0.000 N 
ATOM      9  C   UNL     1       1.748  13.365  18.831  0.00  0.00    +0.000 C 
ATOM     10  C   UNL     1       2.467  14.727  18.723  0.00  0.00    +0.000 C 
ATOM     11  O   UNL     1       1.552  15.798  18.421  0.00  0.00    +0.000 OA
ATOM     12  C   UNL     1       0.535  15.874  19.431  0.00  0.00    +0.000 C 
ATOM     13  C   UNL     1      -0.252  14.551  19.523  0.00  0.00    +0.000 C 
ENDBRANCH   4   8
BRANCH   1  14
ATOM     14  N   UNL     1      -0.756   9.142  23.129  0.00  0.00    +0.000 N 
ATOM     15  H   UNL     1      -1.191   9.570  23.946  0.00  0.00    +0.000 HD
ATOM     16  H   UNL     1      -1.547   8.756  22.605  0.00  0.00    +0.000 HD
ENDBRANCH   1  14
BRANCH   2  17
ATOM     17  C   UNL     1       1.584   8.725  21.364  0.00  0.00    +0.000 C 
BRANCH  17  18
ATOM     18  C   UNL     1       1.645   7.972  20.008  0.00  0.00    +0.000 C 
ATOM     19  O   UNL     1       1.100   8.496  19.025  0.00  0.00    +0.000 OA
ATOM     20  N   UNL     1       2.520   6.819  19.848  0.00  0.00    +0.000 N 
ATOM     21  C   UNL     1       3.240   6.938  18.510  0.00  0.00    +0.000 C 
ATOM     22  C   UNL     1       3.667   5.559  18.085  0.00  0.00    +0.000 C 
ATOM     23  C   UNL     1       2.405   4.889  18.491  0.00  0.00    +0.000 A 
ATOM     24  C   UNL     1       1.777   3.820  17.871  0.00  0.00    +0.000 A 
ATOM     25  C   UNL     1       0.936   3.052  18.651  0.00  0.00    +0.000 A 
ATOM     26  C   UNL     1       0.890   3.318  20.030  0.00  0.00    +0.000 A 
ATOM     27  C   UNL     1       1.396   4.536  20.569  0.00  0.00    +0.000 A 
ATOM     28  C   UNL     1       1.989   5.444  19.709  0.00  0.00    +0.000 A 
ENDBRANCH  17  18
ENDBRANCH   2  17
TORSDOF 4
ENDMDL
MODEL 3
REMARK VINA RESULT:      -7.3      4.149      6.301
REMARK  Name = 
REMARK  4 active torsions:
REMARK  status: ('A' for Active; 'I' for Inactive)
REMARK    1  A    between atoms: N_1  and  N_2
REMARK    2  A    between atoms: C_3  and  C_4
REMARK    3  A    between atoms: C_4  and  C_5
REMARK    4  A    between atoms: C_17  and  N_18
REMARK                            x       y       z     vdW  Elec       q    Type
REMARK                         _______ _______ _______ _____ _____    ______ ____
ROOT
ATOM      1  N   UNL     1      -2.705  12.195  18.435  0.00  0.00    +0.000 N 
ATOM      2  C   UNL     1      -2.436  12.647  19.687  0.00  0.00    +0.000 A 
ATOM      3  N   UNL     1      -3.371  12.825  20.586  0.00  0.00    +0.000 NA
ATOM      4  C   UNL     1      -4.711  12.491  20.285  0.00  0.00    +0.000 A 
ATOM      5  C   UNL     1      -5.020  11.930  19.098  0.00  0.00    +0.000 A 
ATOM      6  C   UNL     1      -4.002  11.777  18.068  0.00  0.00    +0.000 A 
ATOM      7  O   UNL     1      -4.307  11.285  16.986  0.00  0.00    +0.000 OA
ENDROOT
BRANCH   4   8
ATOM      8  N   UNL     1      -5.768  12.645  21.239  0.00  0.00    +0.000 N 
ATOM      9  C   UNL     1      -5.603  13.450  22.470  0.00  0.00    +0.000 C 
ATOM     10  C   UNL     1      -6.368  12.788  23.637  0.00  0.00    +0.000 C 
ATOM     11  O   UNL     1      -7.764  12.604  23.332  0.00  0.00    +0.000 OA
ATOM     12  C   UNL     1      -7.906  11.801  22.150  0.00  0.00    +0.000 C 
ATOM     13  C   UNL     1      -7.211  12.464  20.944  0.00  0.00    +0.000 C 
ENDBRANCH   4   8
BRANCH   1  14
ATOM     14  N   UNL     1      -1.760  12.176  17.366  0.00  0.00    +0.000 N 
ATOM     15  H   UNL     1      -1.973  11.329  16.839  0.00  0.00    +0.000 HD
ATOM     16  H   UNL     1      -2.025  12.934  16.730  0.00  0.00    +0.000 HD
ENDBRANCH   1  14
BRANCH   2  17
ATOM     17  C   UNL     1      -0.890  13.052  20.057  0.00  0.00    +0.000 C 
BRANCH  17  18
ATOM     18  C   UNL     1       0.073  11.968  20.608  0.00  0.00    +0.000 C 
ATOM     19  O   UNL     1       0.991  12.330  21.359  0.00  0.00    +0.000 OA
ATOM     20  N   UNL     1      -0.241  10.555  20.444  0.00  0.00    +0.000 N 
ATOM     21  C   UNL     1       0.037   9.840  21.760  0.00  0.00    +0.000 C 
ATOM     22  C   UNL     1       0.271   8.384  21.461  0.00  0.00    +0.000 C 
ATOM     23  C   UNL     1       1.101   8.621  20.251  0.00  0.00    +0.000 A 
ATOM     24  C   UNL     1       2.184   7.877  19.810  0.00  0.00    +0.000 A 
ATOM     25  C   UNL     1       2.482   7.949  18.464  0.00  0.00    +0.000 A 
ATOM     26  C   UNL     1       1.594   8.646  17.627  0.00  0.00    +0.000 A 
ATOM     27  C   UNL     1       0.622   9.543  18.159  0.00  0.00    +0.000 A 
ATOM     28  C   UNL     1       0.530   9.680  19.532  0.00  0.00    +0.000 A 
ENDBRANCH  17  18
ENDBRANCH   2  17
TORSDOF 4
ENDMDL
MODEL 4
REMARK VINA RESULT:      -7.3      2.874      8.091
REMARK  Name = 
REMARK  4 active torsions:
REMARK  status: ('A' for Active; 'I' for Inactive)
REMARK    1  A    between atoms: N_1  and  N_2
REMARK    2  A    between atoms: C_3  and  C_4
REMARK    3  A    between atoms: C_4  and  C_5
REMARK    4  A    between atoms: C_17  and  N_18
REMARK                            x       y       z     vdW  Elec       q    Type
REMARK                         _______ _______ _______ _____ _____    ______ ____
ROOT
ATOM      1  N   UNL     1       1.639   4.623  19.477  0.00  0.00    +0.000 N 
ATOM      2  C   UNL     1       2.229   5.843  19.566  0.00  0.00    +0.000 A 
ATOM      3  N   UNL     1       3.299   6.159  18.878  0.00  0.00    +0.000 NA
ATOM      4  C   UNL     1       3.846   5.233  17.962  0.00  0.00    +0.000 A 
ATOM      5  C   UNL     1       3.236   4.050  17.746  0.00  0.00    +0.000 A 
ATOM      6  C   UNL     1       2.080   3.662  18.542  0.00  0.00    +0.000 A 
ATOM      7  O   UNL     1       1.551   2.571  18.347  0.00  0.00    +0.000 OA
ENDROOT
BRANCH   4   8
ATOM      8  N   UNL     1       4.999   5.536  17.169  0.00  0.00    +0.000 N 
ATOM      9  C   UNL     1       5.316   4.792  15.930  0.00  0.00    +0.000 C 
ATOM     10  C   UNL     1       6.845   4.622  15.794  0.00  0.00    +0.000 C 
ATOM     11  O   UNL     1       7.533   5.888  15.818  0.00  0.00    +0.000 OA
ATOM     12  C   UNL     1       7.235   6.585  17.037  0.00  0.00    +0.000 C 
ATOM     13  C   UNL     1       5.720   6.833  17.177  0.00  0.00    +0.000 C 
ENDBRANCH   4   8
BRANCH   1  14
ATOM     14  N   UNL     1       0.604   4.165  20.345  0.00  0.00    +0.000 N 
ATOM     15  H   UNL     1       1.056   4.035  21.250  0.00  0.00    +0.000 HD
ATOM     16  H   UNL     1      -0.022   4.961  20.496  0.00  0.00    +0.000 HD
ENDBRANCH   1  14
BRANCH   2  17
ATOM     17  C   UNL     1       1.619   6.931  20.631  0.00  0.00    +0.000 C 
BRANCH  17  18
ATOM     18  C   UNL     1       1.381   8.394  20.176  0.00  0.00    +0.000 C 
ATOM     19  O   UNL     1       2.317   8.995  19.627  0.00  0.00    +0.000 OA
ATOM     20  N   UNL     1       0.034   8.951  20.171  0.00  0.00    +0.000 N 
ATOM     21  C   UNL     1      -0.168   9.722  18.872  0.00  0.00    +0.000 C 
ATOM     22  C   UNL     1      -1.260  10.733  19.093  0.00  0.00    +0.000 C 
ATOM     23  C   UNL     1      -0.800  11.144  20.445  0.00  0.00    +0.000 A 
ATOM     24  C   UNL     1      -0.860  12.407  21.011  0.00  0.00    +0.000 A 
ATOM     25  C   UNL     1      -0.856  12.474  22.390  0.00  0.00    +0.000 A 
ATOM     26  C   UNL     1      -0.935  11.270  23.109  0.00  0.00    +0.000 A 
ATOM     27  C   UNL     1      -0.673  10.015  22.486  0.00  0.00    +0.000 A 
ATOM     28  C   UNL     1      -0.387   9.995  21.133  0.00  0.00    +0.000 A 
ENDBRANCH  17  18
ENDBRANCH   2  17
TORSDOF 4
ENDMDL
MODEL 5
REMARK VINA RESULT:      -7.3      3.059      8.365
REMARK  Name = 
REMARK  4 active torsions:
REMARK  status: ('A' for Active; 'I' for Inactive)
REMARK    1  A    between atoms: N_1  and  N_2
REMARK    2  A    between atoms: C_3  and  C_4
REMARK    3  A    between atoms: C_4  and  C_5
REMARK    4  A    between atoms: C_17  and  N_18
REMARK                            x       y       z     vdW  Elec       q    Type
REMARK                         _______ _______ _______ _____ _____    ______ ____
ROOT
ATOM      1  N   UNL     1       2.066   5.291  19.626  0.00  0.00    +0.000 N 
ATOM      2  C   UNL     1       2.592   6.484  19.247  0.00  0.00    +0.000 A 
ATOM      3  N   UNL     1       3.633   6.574  18.456  0.00  0.00    +0.000 NA
ATOM      4  C   UNL     1       4.215   5.403  17.921  0.00  0.00    +0.000 A 
ATOM      5  C   UNL     1       3.664   4.197  18.170  0.00  0.00    +0.000 A 
ATOM      6  C   UNL     1       2.542   4.075  19.090  0.00  0.00    +0.000 A 
ATOM      7  O   UNL     1       2.068   2.966  19.321  0.00  0.00    +0.000 OA
ENDROOT
BRANCH   4   8
ATOM      8  N   UNL     1       5.338   5.446  17.035  0.00  0.00    +0.000 N 
ATOM      9  C   UNL     1       5.233   5.988  15.661  0.00  0.00    +0.000 C 
ATOM     10  C   UNL     1       6.129   5.171  14.704  0.00  0.00    +0.000 C 
ATOM     11  O   UNL     1       7.502   5.147  15.138  0.00  0.00    +0.000 OA
ATOM     12  C   UNL     1       7.589   4.596  16.461  0.00  0.00    +0.000 C 
ATOM     13  C   UNL     1       6.759   5.426  17.461  0.00  0.00    +0.000 C 
ENDBRANCH   4   8
BRANCH   1  14
ATOM     14  N   UNL     1       1.070   5.135  20.636  0.00  0.00    +0.000 N 
ATOM     15  H   UNL     1       0.662   4.215  20.466  0.00  0.00    +0.000 HD
ATOM     16  H   UNL     1       1.570   5.021  21.522  0.00  0.00    +0.000 HD
ENDBRANCH   1  14
BRANCH   2  17
ATOM     17  C   UNL     1       1.943   7.857  19.865  0.00  0.00    +0.000 C 
BRANCH  17  18
ATOM     18  C   UNL     1       1.454   8.971  18.902  0.00  0.00    +0.000 C 
ATOM     19  O   UNL     1       1.851   8.943  17.727  0.00  0.00    +0.000 OA
ATOM     20  N   UNL     1       0.377   9.867  19.303  0.00  0.00    +0.000 N 
ATOM     21  C   UNL     1      -0.588  10.020  18.134  0.00  0.00    +0.000 C 
ATOM     22  C   UNL     1      -1.332  11.316  18.308  0.00  0.00    +0.000 C 
ATOM     23  C   UNL     1      -0.148  12.101  18.744  0.00  0.00    +0.000 A 
ATOM     24  C   UNL     1       0.132  13.431  18.473  0.00  0.00    +0.000 A 
ATOM     25  C   UNL     1       0.977  14.082  19.349  0.00  0.00    +0.000 A 
ATOM     26  C   UNL     1       1.371  13.402  20.513  0.00  0.00    +0.000 A 
ATOM     27  C   UNL     1       1.217  11.990  20.637  0.00  0.00    +0.000 A 
ATOM     28  C   UNL     1       0.616  11.297  19.601  0.00  0.00    +0.000 A 
ENDBRANCH  17  18
ENDBRANCH   2  17
TORSDOF 4
ENDMDL
MODEL 6
REMARK VINA RESULT:      -7.2      2.816      3.220
REMARK  Name = 
REMARK  4 active torsions:
REMARK  status: ('A' for Active; 'I' for Inactive)
REMARK    1  A    between atoms: N_1  and  N_2
REMARK    2  A    between atoms: C_3  and  C_4
REMARK    3  A    between atoms: C_4  and  C_5
REMARK    4  A    between atoms: C_17  and  N_18
REMARK                            x       y       z     vdW  Elec       q    Type
REMARK                         _______ _______ _______ _____ _____    ______ ____
ROOT
ATOM      1  N   UNL     1       0.950   9.658  21.369  0.00  0.00    +0.000 N 
ATOM      2  C   UNL     1       1.100   9.441  20.037  0.00  0.00    +0.000 A 
ATOM      3  N   UNL     1       0.193   9.796  19.160  0.00  0.00    +0.000 NA
ATOM      4  C   UNL     1      -0.967  10.480  19.585  0.00  0.00    +0.000 A 
ATOM      5  C   UNL     1      -1.116  10.826  20.881  0.00  0.00    +0.000 A 
ATOM      6  C   UNL     1      -0.145  10.391  21.875  0.00  0.00    +0.000 A 
ATOM      7  O   UNL     1      -0.308  10.696  23.052  0.00  0.00    +0.000 OA
ENDROOT
BRANCH   4   8
ATOM      8  N   UNL     1      -1.978  10.910  18.667  0.00  0.00    +0.000 N 
ATOM      9  C   UNL     1      -2.917  12.008  18.991  0.00  0.00    +0.000 C 
ATOM     10  C   UNL     1      -4.310  11.702  18.399  0.00  0.00    +0.000 C 
ATOM     11  O   UNL     1      -4.255  11.482  16.977  0.00  0.00    +0.000 OA
ATOM     12  C   UNL     1      -3.361  10.399  16.681  0.00  0.00    +0.000 C 
ATOM     13  C   UNL     1      -1.940  10.698  17.199  0.00  0.00    +0.000 C 
ENDBRANCH   4   8
BRANCH   1  14
ATOM     14  N   UNL     1       1.806   9.116  22.373  0.00  0.00    +0.000 N 
ATOM     15  H   UNL     1       2.080   8.199  22.021  0.00  0.00    +0.000 HD
ATOM     16  H   UNL     1       2.674   9.660  22.340  0.00  0.00    +0.000 HD
ENDBRANCH   1  14
BRANCH   2  17
ATOM     17  C   UNL     1       2.433   8.638  19.520  0.00  0.00    +0.000 C 
BRANCH  17  18
ATOM     18  C   UNL     1       2.273   7.429  18.561  0.00  0.00    +0.000 C 
ATOM     19  O   UNL     1       1.729   7.624  17.463  0.00  0.00    +0.000 OA
ATOM     20  N   UNL     1       2.957   6.174  18.842  0.00  0.00    +0.000 N 
ATOM     21  C   UNL     1       3.573   5.657  17.547  0.00  0.00    +0.000 C 
ATOM     22  C   UNL     1       3.761   4.170  17.680  0.00  0.00    +0.000 C 
ATOM     23  C   UNL     1       2.453   3.921  18.341  0.00  0.00    +0.000 A 
ATOM     24  C   UNL     1       1.629   2.817  18.196  0.00  0.00    +0.000 A 
ATOM     25  C   UNL     1       0.754   2.551  19.230  0.00  0.00    +0.000 A 
ATOM     26  C   UNL     1       0.861   3.323  20.399  0.00  0.00    +0.000 A 
ATOM     27  C   UNL     1       1.580   4.554  20.413  0.00  0.00    +0.000 A 
ATOM     28  C   UNL     1       2.224   4.957  19.257  0.00  0.00    +0.000 A 
ENDBRANCH  17  18
ENDBRANCH   2  17
TORSDOF 4
ENDMDL
MODEL 7
REMARK VINA RESULT:      -7.2      5.008      9.277
REMARK  Name = 
REMARK  4 active torsions:
REMARK  status: ('A' for Active; 'I' for Inactive)
REMARK    1  A    between atoms: N_1  and  N_2
REMARK    2  A    between atoms: C_3  and  C_4
REMARK    3  A    between atoms: C_4  and  C_5
REMARK    4  A    between atoms: C_17  and  N_18
REMARK                            x       y       z     vdW  Elec       q    Type
REMARK                         _______ _______ _______ _____ _____    ______ ____
ROOT
ATOM      1  N   UNL     1       5.720   4.170  18.482  0.00  0.00    +0.000 N 
ATOM      2  C   UNL     1       4.742   3.771  17.628  0.00  0.00    +0.000 A 
ATOM      3  N   UNL     1       4.877   3.834  16.326  0.00  0.00    +0.000 NA
ATOM      4  C   UNL     1       6.095   4.278  15.765  0.00  0.00    +0.000 A 
ATOM      5  C   UNL     1       7.141   4.577  16.562  0.00  0.00    +0.000 A 
ATOM      6  C   UNL     1       6.990   4.565  18.010  0.00  0.00    +0.000 A 
ATOM      7  O   UNL     1       7.947   4.862  18.719  0.00  0.00    +0.000 OA
ENDROOT
BRANCH   4   8
ATOM      8  N   UNL     1       6.303   4.343  14.350  0.00  0.00    +0.000 N 
ATOM      9  C   UNL     1       5.325   3.789  13.386  0.00  0.00    +0.000 C 
ATOM     10  C   UNL     1       6.067   3.171  12.181  0.00  0.00    +0.000 C 
ATOM     11  O   UNL     1       6.935   4.123  11.535  0.00  0.00    +0.000 OA
ATOM     12  C   UNL     1       7.892   4.632  12.476  0.00  0.00    +0.000 C 
ATOM     13  C   UNL     1       7.188   5.317  13.665  0.00  0.00    +0.000 C 
ENDBRANCH   4   8
BRANCH   1  14
ATOM     14  N   UNL     1       5.549   4.310  19.891  0.00  0.00    +0.000 N 
ATOM     15  H   UNL     1       6.066   5.154  20.138  0.00  0.00    +0.000 HD
ATOM     16  H   UNL     1       4.570   4.570  20.041  0.00  0.00    +0.000 HD
ENDBRANCH   1  14
BRANCH   2  17
ATOM     17  C   UNL     1       3.315   3.264  18.256  0.00  0.00    +0.000 C 
BRANCH  17  18
ATOM     18  C   UNL     1       2.256   4.311  18.691  0.00  0.00    +0.000 C 
ATOM     19  O   UNL     1       1.058   4.009  18.580  0.00  0.00    +0.000 OA
ATOM     20  N   UNL     1       2.660   5.500  19.428  0.00  0.00    +0.000 N 
ATOM     21  C   UNL     1       1.677   5.719  20.572  0.00  0.00    +0.000 C 
ATOM     22  C   UNL     1       1.724   7.173  20.957  0.00  0.00    +0.000 C 
ATOM     23  C   UNL     1       1.776   7.687  19.563  0.00  0.00    +0.000 A 
ATOM     24  C   UNL     1       1.202   8.846  19.067  0.00  0.00    +0.000 A 
ATOM     25  C   UNL     1       1.766   9.383  17.927  0.00  0.00    +0.000 A 
ATOM     26  C   UNL     1       2.950   8.804  17.442  0.00  0.00    +0.000 A 
ATOM     27  C   UNL     1       3.376   7.513  17.870  0.00  0.00    +0.000 A 
ATOM     28  C   UNL     1       2.622   6.850  18.823  0.00  0.00    +0.000 A 
ENDBRANCH  17  18
ENDBRANCH   2  17
TORSDOF 4
ENDMDL
MODEL 8
REMARK VINA RESULT:      -7.2      2.318      2.474
REMARK  Name = 
REMARK  4 active torsions:
REMARK  status: ('A' for Active; 'I' for Inactive)
REMARK    1  A    between atoms: N_1  and  N_2
REMARK    2  A    between atoms: C_3  and  C_4
REMARK    3  A    between atoms: C_4  and  C_5
REMARK    4  A    between atoms: C_17  and  N_18
REMARK                            x       y       z     vdW  Elec       q    Type
REMARK                         _______ _______ _______ _____ _____    ______ ____
ROOT
ATOM      1  N   UNL     1      -0.450  11.056  18.835  0.00  0.00    +0.000 N 
ATOM      2  C   UNL     1       0.859  11.028  19.198  0.00  0.00    +0.000 A 
ATOM      3  N   UNL     1       1.635  12.080  19.110  0.00  0.00    +0.000 NA
ATOM      4  C   UNL     1       1.103  13.314  18.676  0.00  0.00    +0.000 A 
ATOM      5  C   UNL     1      -0.215  13.431  18.413  0.00  0.00    +0.000 A 
ATOM      6  C   UNL     1      -1.080  12.260  18.453  0.00  0.00    +0.000 A 
ATOM      7  O   UNL     1      -2.273  12.381  18.189  0.00  0.00    +0.000 OA
ENDROOT
BRANCH   4   8
ATOM      8  N   UNL     1       1.902  14.499  18.584  0.00  0.00    +0.000 N 
ATOM      9  C   UNL     1       1.574  15.727  19.343  0.00  0.00    +0.000 C 
ATOM     10  C   UNL     1       1.904  16.974  18.494  0.00  0.00    +0.000 C 
ATOM     11  O   UNL     1       3.281  16.989  18.070  0.00  0.00    +0.000 OA
ATOM     12  C   UNL     1       3.575  15.805  17.315  0.00  0.00    +0.000 C 
ATOM     13  C   UNL     1       3.321  14.536  18.154  0.00  0.00    +0.000 C 
ENDBRANCH   4   8
BRANCH   1  14
ATOM     14  N   UNL     1      -1.278   9.900  18.722  0.00  0.00    +0.000 N 
ATOM     15  H   UNL     1      -2.213  10.261  18.534  0.00  0.00    +0.000 HD
ATOM     16  H   UNL     1      -1.013   9.438  17.847  0.00  0.00    +0.000 HD
ENDBRANCH   1  14
BRANCH   2  17
ATOM     17  C   UNL     1       1.503   9.604  19.693  0.00  0.00    +0.000 C 
BRANCH  17  18
ATOM     18  C   UNL     1       1.772   8.484  18.653  0.00  0.00    +0.000 C 
ATOM     19  O   UNL     1       1.340   8.642  17.501  0.00  0.00    +0.000 OA
ATOM     20  N   UNL     1       2.706   7.409  18.957  0.00  0.00    +0.000 N 
ATOM     21  C   UNL     1       3.589   7.174  17.738  0.00  0.00    +0.000 C 
ATOM     22  C   UNL     1       4.124   5.769  17.811  0.00  0.00    +0.000 C 
ATOM     23  C   UNL     1       2.847   5.156  18.261  0.00  0.00    +0.000 A 
ATOM     24  C   UNL     1       2.349   3.904  17.935  0.00  0.00    +0.000 A 
ATOM     25  C   UNL     1       1.445   3.345  18.815  0.00  0.00    +0.000 A 
ATOM     26  C   UNL     1       1.208   4.010  20.030  0.00  0.00    +0.000 A 
ATOM     27  C   UNL     1       1.590   5.370  20.218  0.00  0.00    +0.000 A 
ATOM     28  C   UNL     1       2.254   6.019  19.192  0.00  0.00    +0.000 A 
ENDBRANCH  17  18
ENDBRANCH   2  17
TORSDOF 4
ENDMDL
MODEL 9
REMARK VINA RESULT:      -7.1      3.050      8.173
REMARK  Name = 
REMARK  4 active torsions:
REMARK  status: ('A' for Active; 'I' for Inactive)
REMARK    1  A    between atoms: N_1  and  N_2
REMARK    2  A    between atoms: C_3  and  C_4
REMARK    3  A    between atoms: C_4  and  C_5
REMARK    4  A    between atoms: C_17  and  N_18
REMARK                            x       y       z     vdW  Elec       q    Type
REMARK                         _______ _______ _______ _____ _____    ______ ____
ROOT
ATOM      1  N   UNL     1       1.589   4.117  19.371  0.00  0.00    +0.000 N 
ATOM      2  C   UNL     1       2.283   5.263  19.594  0.00  0.00    +0.000 A 
ATOM      3  N   UNL     1       3.420   5.524  18.997  0.00  0.00    +0.000 NA
ATOM      4  C   UNL     1       3.938   4.621  18.043  0.00  0.00    +0.000 A 
ATOM      5  C   UNL     1       3.235   3.523  17.696  0.00  0.00    +0.000 A 
ATOM      6  C   UNL     1       1.998   3.191  18.388  0.00  0.00    +0.000 A 
ATOM      7  O   UNL     1       1.384   2.175  18.074  0.00  0.00    +0.000 OA
ENDROOT
BRANCH   4   8
ATOM      8  N   UNL     1       5.164   4.868  17.346  0.00  0.00    +0.000 N 
ATOM      9  C   UNL     1       6.346   5.450  18.020  0.00  0.00    +0.000 C 
ATOM     10  C   UNL     1       7.090   6.397  17.053  0.00  0.00    +0.000 C 
ATOM     11  O   UNL     1       7.474   5.732  15.835  0.00  0.00    +0.000 OA
ATOM     12  C   UNL     1       6.314   5.196  15.181  0.00  0.00    +0.000 C 
ATOM     13  C   UNL     1       5.580   4.192  16.092  0.00  0.00    +0.000 C 
ENDBRANCH   4   8
BRANCH   1  14
ATOM     14  N   UNL     1       0.461   3.698  20.137  0.00  0.00    +0.000 N 
ATOM     15  H   UNL     1       0.470   4.290  20.969  0.00  0.00    +0.000 HD
ATOM     16  H   UNL     1      -0.370   4.010  19.625  0.00  0.00    +0.000 HD
ENDBRANCH   1  14
BRANCH   2  17
ATOM     17  C   UNL     1       1.708   6.322  20.707  0.00  0.00    +0.000 C 
BRANCH  17  18
ATOM     18  C   UNL     1       1.590   7.825  20.341  0.00  0.00    +0.000 C 
ATOM     19  O   UNL     1       2.611   8.414  19.954  0.00  0.00    +0.000 OA
ATOM     20  N   UNL     1       0.279   8.451  20.224  0.00  0.00    +0.000 N 
ATOM     21  C   UNL     1       0.268   9.322  18.974  0.00  0.00    +0.000 C 
ATOM     22  C   UNL     1      -0.797  10.371  19.144  0.00  0.00    +0.000 C 
ATOM     23  C   UNL     1      -0.485  10.659  20.568  0.00  0.00    +0.000 A 
ATOM     24  C   UNL     1      -0.557  11.880  21.220  0.00  0.00    +0.000 A 
ATOM     25  C   UNL     1      -0.715  11.848  22.590  0.00  0.00    +0.000 A 
ATOM     26  C   UNL     1      -0.932  10.601  23.200  0.00  0.00    +0.000 A 
ATOM     27  C   UNL     1      -0.652   9.381  22.517  0.00  0.00    +0.000 A 
ATOM     28  C   UNL     1      -0.208   9.443  21.208  0.00  0.00    +0.000 A 
ENDBRANCH  17  18
ENDBRANCH   2  17
TORSDOF 4
ENDMDL
