MODEL 1
REMARK VINA RESULT:      -7.6      0.000      0.000
REMARK  Name = 
REMARK  7 active torsions:
REMARK  status: ('A' for Active; 'I' for Inactive)
REMARK    1  A    between atoms: C_2  and  C_3
REMARK    2  A    between atoms: C_8  and  S_9
REMARK    3  A    between atoms: S_9  and  N_12
REMARK    4  A    between atoms: N_12  and  C_13
REMARK    5  A    between atoms: C_13  and  C_14
REMARK    6  A    between atoms: C_14  and  O_15
REMARK    7  A    between atoms: O_15  and  C_16
REMARK                            x       y       z     vdW  Elec       q    Type
REMARK                         _______ _______ _______ _____ _____    ______ ____
ROOT
ATOM      1  N   UNL     1       2.932   3.613  19.359  0.00  0.00    +0.000 NA
ATOM      2  H   UNL     1       3.637   3.836  20.062  0.00  0.00    +0.000 HD
ENDROOT
BRANCH   1   3
ATOM      3  S   UNL     1       3.570   3.463  17.816  0.00  0.00    +0.000 S 
ATOM      4  O   UNL     1       2.692   4.200  16.931  0.00  0.00    +0.000 OA
ATOM      5  O   UNL     1       3.850   2.057  17.604  0.00  0.00    +0.000 OA
BRANCH   3  11
ATOM      6  C   UNL     1       5.929   4.522  16.752  0.00  0.00    +0.000 A 
ATOM      7  C   UNL     1       7.149   5.202  16.906  0.00  0.00    +0.000 A 
ATOM      8  C   UNL     1       7.550   5.692  18.148  0.00  0.00    +0.000 A 
ATOM      9  C   UNL     1       6.739   5.512  19.263  0.00  0.00    +0.000 A 
ATOM     10  C   UNL     1       5.533   4.829  19.138  0.00  0.00    +0.000 A 
ATOM     11  C   UNL     1       5.127   4.327  17.889  0.00  0.00    +0.000 A 
BRANCH   6  13
ATOM     12  C   UNL     1       6.505   4.038  14.415  0.00  0.00    +0.000 C 
ATOM     13  C   UNL     1       5.599   4.075  15.396  0.00  0.00    +0.000 C 
ENDBRANCH   6  13
ENDBRANCH   3  11
ENDBRANCH   1   3
BRANCH   1  14
ATOM     14  C   UNL     1       1.605   4.219  19.527  0.00  0.00    +0.000 C 
BRANCH  14  15
ATOM     15  C   UNL     1       1.624   5.192  20.710  0.00  0.00    +0.000 C 
BRANCH  15  16
ATOM     16  O   UNL     1       2.517   6.265  20.424  0.00  0.00    +0.000 OA
BRANCH  16  17
ATOM     17  C   UNL     1       2.071   7.421  19.832  0.00  0.00    +0.000 A 
ATOM     18  C   UNL     1       2.508   7.491  18.497  0.00  0.00    +0.000 A 
ATOM     19  C   UNL     1       2.206   8.579  17.689  0.00  0.00    +0.000 A 
ATOM     20  C   UNL     1       1.519   9.654  18.232  0.00  0.00    +0.000 A 
ATOM     21  C   UNL     1       1.107   9.643  19.571  0.00  0.00    +0.000 A 
ATOM     22  C   UNL     1       0.512  10.801  20.100  0.00  0.00    +0.000 A 
ATOM     23  C   UNL     1       0.055  10.844  21.411  0.00  0.00    +0.000 A 
ATOM     24  C   UNL     1       0.100   9.695  22.178  0.00  0.00    +0.000 A 
ATOM     25  C   UNL     1       0.686   8.536  21.664  0.00  0.00    +0.000 A 
ATOM     26  C   UNL     1       1.299   8.489  20.382  0.00  0.00    +0.000 A 
ENDBRANCH  16  17
ENDBRANCH  15  16
ENDBRANCH  14  15
ENDBRANCH   1  14
TORSDOF 7
ENDMDL
MODEL 2
REMARK VINA RESULT:      -7.5      5.609      7.709
REMARK  Name = 
REMARK  7 active torsions:
REMARK  status: ('A' for Active; 'I' for Inactive)
REMARK    1  A    between atoms: C_2  and  C_3
REMARK    2  A    between atoms: C_8  and  S_9
REMARK    3  A    between atoms: S_9  and  N_12
REMARK    4  A    between atoms: N_12  and  C_13
REMARK    5  A    between atoms: C_13  and  C_14
REMARK    6  A    between atoms: C_14  and  O_15
REMARK    7  A    between atoms: O_15  and  C_16
REMARK                            x       y       z     vdW  Elec       q    Type
REMARK                         _______ _______ _______ _____ _____    ______ ____
ROOT
ATOM      1  N   UNL     1       6.698   7.761  17.202  0.00  0.00    +0.000 NA
ATOM      2  H   UNL     1       5.904   8.266  17.597  0.00  0.00    +0.000 HD
ENDROOT
BRANCH   1   3
ATOM      3  S   UNL     1       6.278   6.262  16.582  0.00  0.00    +0.000 S 
ATOM      4  O   UNL     1       7.480   5.454  16.600  0.00  0.00    +0.000 OA
ATOM      5  O   UNL     1       5.544   6.497  15.354  0.00  0.00    +0.000 OA
BRANCH   3  11
ATOM      6  C   UNL     1       3.952   6.235  18.133  0.00  0.00    +0.000 A 
ATOM      7  C   UNL     1       3.125   5.633  19.096  0.00  0.00    +0.000 A 
ATOM      8  C   UNL     1       3.463   4.410  19.673  0.00  0.00    +0.000 A 
ATOM      9  C   UNL     1       4.634   3.762  19.299  0.00  0.00    +0.000 A 
ATOM     10  C   UNL     1       5.476   4.346  18.357  0.00  0.00    +0.000 A 
ATOM     11  C   UNL     1       5.144   5.583  17.777  0.00  0.00    +0.000 A 
BRANCH   6  13
ATOM     12  C   UNL     1       2.351   8.090  17.978  0.00  0.00    +0.000 C 
ATOM     13  C   UNL     1       3.484   7.508  17.577  0.00  0.00    +0.000 C 
ENDBRANCH   6  13
ENDBRANCH   3  11
ENDBRANCH   1   3
BRANCH   1  14
ATOM     14  C   UNL     1       7.993   7.918  17.877  0.00  0.00    +0.000 C 
BRANCH  14  15
ATOM     15  C   UNL     1       8.295   9.405  18.084  0.00  0.00    +0.000 C 
BRANCH  15  16
ATOM     16  O   UNL     1       9.256   9.550  19.126  0.00  0.00    +0.000 OA
BRANCH  16  17
ATOM     17  C   UNL     1       9.621  10.791  19.587  0.00  0.00    +0.000 A 
ATOM     18  C   UNL     1       9.186  10.972  20.912  0.00  0.00    +0.000 A 
ATOM     19  C   UNL     1       9.413  12.159  21.597  0.00  0.00    +0.000 A 
ATOM     20  C   UNL     1      10.019  13.216  20.935  0.00  0.00    +0.000 A 
ATOM     21  C   UNL     1      10.425  13.091  19.599  0.00  0.00    +0.000 A 
ATOM     22  C   UNL     1      10.932  14.226  18.944  0.00  0.00    +0.000 A 
ATOM     23  C   UNL     1      11.379  14.162  17.630  0.00  0.00    +0.000 A 
ATOM     24  C   UNL     1      11.413  12.937  16.989  0.00  0.00    +0.000 A 
ATOM     25  C   UNL     1      10.914  11.800  17.630  0.00  0.00    +0.000 A 
ATOM     26  C   UNL     1      10.312  11.847  18.918  0.00  0.00    +0.000 A 
ENDBRANCH  16  17
ENDBRANCH  15  16
ENDBRANCH  14  15
ENDBRANCH   1  14
TORSDOF 7
ENDMDL
MODEL 3
REMARK VINA RESULT:      -7.4      1.466      2.039
REMARK  Name = 
REMARK  7 active torsions:
REMARK  status: ('A' for Active; 'I' for Inactive)
REMARK    1  A    between atoms: C_2  and  C_3
REMARK    2  A    between atoms: C_8  and  S_9
REMARK    3  A    between atoms: S_9  and  N_12
REMARK    4  A    between atoms: N_12  and  C_13
REMARK    5  A    between atoms: C_13  and  C_14
REMARK    6  A    between atoms: C_14  and  O_15
REMARK    7  A    between atoms: O_15  and  C_16
REMARK                            x       y       z     vdW  Elec       q    Type
REMARK                         _______ _______ _______ _____ _____    ______ ____
ROOT
ATOM      1  N   UNL     1       2.697   2.982  20.509  0.00  0.00    +0.000 NA
ATOM      2  H   UNL     1       2.245   2.261  21.073  0.00  0.00    +0.000 HD
ENDROOT
BRANCH   1   3
ATOM      3  S   UNL     1       3.991   2.401  19.617  0.00  0.00    +0.000 S 
ATOM      4  O   UNL     1       3.452   1.427  18.691  0.00  0.00    +0.000 OA
ATOM      5  O   UNL     1       5.037   2.051  20.558  0.00  0.00    +0.000 OA
BRANCH   3  11
ATOM      6  C   UNL     1       3.864   4.267  17.539  0.00  0.00    +0.000 A 
ATOM      7  C   UNL     1       4.387   5.372  16.846  0.00  0.00    +0.000 A 
ATOM      8  C   UNL     1       5.549   6.010  17.280  0.00  0.00    +0.000 A 
ATOM      9  C   UNL     1       6.211   5.557  18.415  0.00  0.00    +0.000 A 
ATOM     10  C   UNL     1       5.719   4.456  19.109  0.00  0.00    +0.000 A 
ATOM     11  C   UNL     1       4.552   3.804  18.673  0.00  0.00    +0.000 A 
BRANCH   6  13
ATOM     12  C   UNL     1       1.420   4.050  17.458  0.00  0.00    +0.000 C 
ATOM     13  C   UNL     1       2.625   3.692  17.007  0.00  0.00    +0.000 C 
ENDBRANCH   6  13
ENDBRANCH   3  11
ENDBRANCH   1   3
BRANCH   1  14
ATOM     14  C   UNL     1       2.775   4.329  21.088  0.00  0.00    +0.000 C 
BRANCH  14  15
ATOM     15  C   UNL     1       1.640   5.198  20.538  0.00  0.00    +0.000 C 
BRANCH  15  16
ATOM     16  O   UNL     1       1.797   6.534  21.009  0.00  0.00    +0.000 OA
BRANCH  16  17
ATOM     17  C   UNL     1       1.680   7.605  20.158  0.00  0.00    +0.000 A 
ATOM     18  C   UNL     1       2.414   7.380  18.980  0.00  0.00    +0.000 A 
ATOM     19  C   UNL     1       2.474   8.329  17.968  0.00  0.00    +0.000 A 
ATOM     20  C   UNL     1       1.854   9.556  18.154  0.00  0.00    +0.000 A 
ATOM     21  C   UNL     1       1.153   9.836  19.335  0.00  0.00    +0.000 A 
ATOM     22  C   UNL     1       0.639  11.131  19.518  0.00  0.00    +0.000 A 
ATOM     23  C   UNL     1      -0.091  11.465  20.652  0.00  0.00    +0.000 A 
ATOM     24  C   UNL     1      -0.398  10.478  21.570  0.00  0.00    +0.000 A 
ATOM     25  C   UNL     1       0.104   9.186  21.398  0.00  0.00    +0.000 A 
ATOM     26  C   UNL     1       0.977   8.836  20.332  0.00  0.00    +0.000 A 
ENDBRANCH  16  17
ENDBRANCH  15  16
ENDBRANCH  14  15
ENDBRANCH   1  14
TORSDOF 7
ENDMDL
MODEL 4
REMARK VINA RESULT:      -7.2      5.587      6.984
REMARK  Name = 
REMARK  7 active torsions:
REMARK  status: ('A' for Active; 'I' for Inactive)
REMARK    1  A    between atoms: C_2  and  C_3
REMARK    2  A    between atoms: C_8  and  S_9
REMARK    3  A    between atoms: S_9  and  N_12
REMARK    4  A    between atoms: N_12  and  C_13
REMARK    5  A    between atoms: C_13  and  C_14
REMARK    6  A    between atoms: C_14  and  O_15
REMARK    7  A    between atoms: O_15  and  C_16
REMARK                            x       y       z     vdW  Elec       q    Type
REMARK                         _______ _______ _______ _____ _____    ______ ____
ROOT
ATOM      1  N   UNL     1       7.795   6.757  17.173  0.00  0.00    +0.000 NA
ATOM      2  H   UNL     1       7.782   6.614  16.162  0.00  0.00    +0.000 HD
ENDROOT
BRANCH   1   3
ATOM      3  S   UNL     1       7.546   5.344  18.037  0.00  0.00    +0.000 S 
ATOM      4  O   UNL     1       8.051   5.581  19.374  0.00  0.00    +0.000 OA
ATOM      5  O   UNL     1       8.044   4.252  17.225  0.00  0.00    +0.000 OA
BRANCH   3  11
ATOM      6  C   UNL     1       4.953   5.198  17.000  0.00  0.00    +0.000 A 
ATOM      7  C   UNL     1       3.564   5.084  17.178  0.00  0.00    +0.000 A 
ATOM      8  C   UNL     1       3.009   4.941  18.449  0.00  0.00    +0.000 A 
ATOM      9  C   UNL     1       3.832   4.910  19.569  0.00  0.00    +0.000 A 
ATOM     10  C   UNL     1       5.209   5.036  19.419  0.00  0.00    +0.000 A 
ATOM     11  C   UNL     1       5.774   5.187  18.140  0.00  0.00    +0.000 A 
BRANCH   6  13
ATOM     12  C   UNL     1       5.523   4.265  14.803  0.00  0.00    +0.000 C 
ATOM     13  C   UNL     1       5.426   5.318  15.618  0.00  0.00    +0.000 C 
ENDBRANCH   6  13
ENDBRANCH   3  11
ENDBRANCH   1   3
BRANCH   1  14
ATOM     14  C   UNL     1       7.226   8.013  17.677  0.00  0.00    +0.000 C 
BRANCH  14  15
ATOM     15  C   UNL     1       8.353   8.975  18.068  0.00  0.00    +0.000 C 
BRANCH  15  16
ATOM     16  O   UNL     1       7.953  10.312  17.778  0.00  0.00    +0.000 OA
BRANCH  16  17
ATOM     17  C   UNL     1       8.839  11.356  17.883  0.00  0.00    +0.000 A 
ATOM     18  C   UNL     1      10.140  10.876  18.114  0.00  0.00    +0.000 A 
ATOM     19  C   UNL     1      11.215  11.739  18.282  0.00  0.00    +0.000 A 
ATOM     20  C   UNL     1      10.988  13.107  18.292  0.00  0.00    +0.000 A 
ATOM     21  C   UNL     1       9.698  13.624  18.111  0.00  0.00    +0.000 A 
ATOM     22  C   UNL     1       9.508  15.010  18.239  0.00  0.00    +0.000 A 
ATOM     23  C   UNL     1       8.259  15.589  18.043  0.00  0.00    +0.000 A 
ATOM     24  C   UNL     1       7.209  14.797  17.619  0.00  0.00    +0.000 A 
ATOM     25  C   UNL     1       7.386  13.417  17.485  0.00  0.00    +0.000 A 
ATOM     26  C   UNL     1       8.604  12.763  17.817  0.00  0.00    +0.000 A 
ENDBRANCH  16  17
ENDBRANCH  15  16
ENDBRANCH  14  15
ENDBRANCH   1  14
TORSDOF 7
ENDMDL
MODEL 5
REMARK VINA RESULT:      -7.2      5.554      7.056
REMARK  Name = 
REMARK  7 active torsions:
REMARK  status: ('A' for Active; 'I' for Inactive)
REMARK    1  A    between atoms: C_2  and  C_3
REMARK    2  A    between atoms: C_8  and  S_9
REMARK    3  A    between atoms: S_9  and  N_12
REMARK    4  A    between atoms: N_12  and  C_13
REMARK    5  A    between atoms: C_13  and  C_14
REMARK    6  A    between atoms: C_14  and  O_15
REMARK    7  A    between atoms: O_15  and  C_16
REMARK                            x       y       z     vdW  Elec       q    Type
REMARK                         _______ _______ _______ _____ _____    ______ ____
ROOT
ATOM      1  N   UNL     1       7.448   6.918  17.065  0.00  0.00    +0.000 NA
ATOM      2  H   UNL     1       6.898   7.548  16.480  0.00  0.00    +0.000 HD
ENDROOT
BRANCH   1   3
ATOM      3  S   UNL     1       6.755   5.401  17.226  0.00  0.00    +0.000 S 
ATOM      4  O   UNL     1       7.313   4.815  18.427  0.00  0.00    +0.000 OA
ATOM      5  O   UNL     1       6.868   4.741  15.940  0.00  0.00    +0.000 OA
BRANCH   3  11
ATOM      6  C   UNL     1       4.094   4.693  17.716  0.00  0.00    +0.000 A 
ATOM      7  C   UNL     1       2.750   5.042  17.930  0.00  0.00    +0.000 A 
ATOM      8  C   UNL     1       2.350   6.377  17.974  0.00  0.00    +0.000 A 
ATOM      9  C   UNL     1       3.285   7.391  17.804  0.00  0.00    +0.000 A 
ATOM     10  C   UNL     1       4.620   7.070  17.576  0.00  0.00    +0.000 A 
ATOM     11  C   UNL     1       5.029   5.725  17.524  0.00  0.00    +0.000 A 
BRANCH   6  13
ATOM     12  C   UNL     1       3.462   2.326  17.868  0.00  0.00    +0.000 C 
ATOM     13  C   UNL     1       4.404   3.261  17.715  0.00  0.00    +0.000 C 
ENDBRANCH   6  13
ENDBRANCH   3  11
ENDBRANCH   1   3
BRANCH   1  14
ATOM     14  C   UNL     1       8.144   7.511  18.214  0.00  0.00    +0.000 C 
BRANCH  14  15
ATOM     15  C   UNL     1       8.271   9.026  18.021  0.00  0.00    +0.000 C 
BRANCH  15  16
ATOM     16  O   UNL     1       8.932   9.591  19.150  0.00  0.00    +0.000 OA
BRANCH  16  17
ATOM     17  C   UNL     1       9.416  10.876  19.118  0.00  0.00    +0.000 A 
ATOM     18  C   UNL     1      10.016  11.145  17.875  0.00  0.00    +0.000 A 
ATOM     19  C   UNL     1      10.604  12.373  17.602  0.00  0.00    +0.000 A 
ATOM     20  C   UNL     1      10.663  13.332  18.603  0.00  0.00    +0.000 A 
ATOM     21  C   UNL     1      10.118  13.084  19.870  0.00  0.00    +0.000 A 
ATOM     22  C   UNL     1      10.303  14.044  20.878  0.00  0.00    +0.000 A 
ATOM     23  C   UNL     1       9.762  13.873  22.147  0.00  0.00    +0.000 A 
ATOM     24  C   UNL     1       8.947  12.783  22.390  0.00  0.00    +0.000 A 
ATOM     25  C   UNL     1       8.753  11.822  21.395  0.00  0.00    +0.000 A 
ATOM     26  C   UNL     1       9.405  11.880  20.133  0.00  0.00    +0.000 A 
ENDBRANCH  16  17
ENDBRANCH  15  16
ENDBRANCH  14  15
ENDBRANCH   1  14
TORSDOF 7
ENDMDL
MODEL 6
REMARK VINA RESULT:      -7.2      3.326      8.120
REMARK  Name = 
REMARK  7 active torsions:
REMARK  status: ('A' for Active; 'I' for Inactive)
REMARK    1  A    between atoms: C_2  and  C_3
REMARK    2  A    between atoms: C_8  and  S_9
REMARK    3  A    between atoms: S_9  and  N_12
REMARK    4  A    between atoms: N_12  and  C_13
REMARK    5  A    between atoms: C_13  and  C_14
REMARK    6  A    between atoms: C_14  and  O_15
REMARK    7  A    between atoms: O_15  and  C_16
REMARK                            x       y       z     vdW  Elec       q    Type
REMARK                         _______ _______ _______ _____ _____    ______ ____
ROOT
ATOM      1  N   UNL     1       0.831  10.392  18.030  0.00  0.00    +0.000 NA
ATOM      2  H   UNL     1       0.419  10.549  17.110  0.00  0.00    +0.000 HD
ENDROOT
BRANCH   1   3
ATOM      3  S   UNL     1       0.464  11.603  19.128  0.00  0.00    +0.000 S 
ATOM      4  O   UNL     1      -0.731  12.259  18.637  0.00  0.00    +0.000 OA
ATOM      5  O   UNL     1       1.685  12.344  19.372  0.00  0.00    +0.000 OA
BRANCH   3  11
ATOM      6  C   UNL     1      -0.290  11.413  21.814  0.00  0.00    +0.000 A 
ATOM      7  C   UNL     1      -0.598  10.649  22.952  0.00  0.00    +0.000 A 
ATOM      8  C   UNL     1      -0.600   9.255  22.905  0.00  0.00    +0.000 A 
ATOM      9  C   UNL     1      -0.295   8.597  21.720  0.00  0.00    +0.000 A 
ATOM     10  C   UNL     1       0.028   9.333  20.583  0.00  0.00    +0.000 A 
ATOM     11  C   UNL     1       0.038  10.738  20.626  0.00  0.00    +0.000 A 
BRANCH   6  13
ATOM     12  C   UNL     1      -1.080  13.458  22.918  0.00  0.00    +0.000 C 
ATOM     13  C   UNL     1      -0.343  12.869  21.973  0.00  0.00    +0.000 C 
ENDBRANCH   6  13
ENDBRANCH   3  11
ENDBRANCH   1   3
BRANCH   1  14
ATOM     14  C   UNL     1       2.162   9.772  18.069  0.00  0.00    +0.000 C 
BRANCH  14  15
ATOM     15  C   UNL     1       2.076   8.323  17.579  0.00  0.00    +0.000 C 
BRANCH  15  16
ATOM     16  O   UNL     1       2.873   7.493  18.420  0.00  0.00    +0.000 OA
BRANCH  16  17
ATOM     17  C   UNL     1       3.237   6.228  18.029  0.00  0.00    +0.000 A 
ATOM     18  C   UNL     1       4.316   6.282  17.129  0.00  0.00    +0.000 A 
ATOM     19  C   UNL     1       4.853   5.131  16.568  0.00  0.00    +0.000 A 
ATOM     20  C   UNL     1       4.267   3.906  16.848  0.00  0.00    +0.000 A 
ATOM     21  C   UNL     1       3.161   3.815  17.704  0.00  0.00    +0.000 A 
ATOM     22  C   UNL     1       2.540   2.566  17.865  0.00  0.00    +0.000 A 
ATOM     23  C   UNL     1       1.457   2.403  18.722  0.00  0.00    +0.000 A 
ATOM     24  C   UNL     1       1.049   3.470  19.501  0.00  0.00    +0.000 A 
ATOM     25  C   UNL     1       1.661   4.717  19.352  0.00  0.00    +0.000 A 
ATOM     26  C   UNL     1       2.671   4.966  18.383  0.00  0.00    +0.000 A 
ENDBRANCH  16  17
ENDBRANCH  15  16
ENDBRANCH  14  15
ENDBRANCH   1  14
TORSDOF 7
ENDMDL
MODEL 7
REMARK VINA RESULT:      -7.2      3.603      8.354
REMARK  Name = 
REMARK  7 active torsions:
REMARK  status: ('A' for Active; 'I' for Inactive)
REMARK    1  A    between atoms: C_2  and  C_3
REMARK    2  A    between atoms: C_8  and  S_9
REMARK    3  A    between atoms: S_9  and  N_12
REMARK    4  A    between atoms: N_12  and  C_13
REMARK    5  A    between atoms: C_13  and  C_14
REMARK    6  A    between atoms: C_14  and  O_15
REMARK    7  A    between atoms: O_15  and  C_16
REMARK                            x       y       z     vdW  Elec       q    Type
REMARK                         _______ _______ _______ _____ _____    ______ ____
ROOT
ATOM      1  N   UNL     1       1.187   9.917  17.829  0.00  0.00    +0.000 NA
ATOM      2  H   UNL     1       1.949  10.495  17.473  0.00  0.00    +0.000 HD
ENDROOT
BRANCH   1   3
ATOM      3  S   UNL     1       0.270  10.690  19.000  0.00  0.00    +0.000 S 
ATOM      4  O   UNL     1       0.771  12.046  19.089  0.00  0.00    +0.000 OA
ATOM      5  O   UNL     1       0.235   9.820  20.159  0.00  0.00    +0.000 OA
BRANCH   3  11
ATOM      6  C   UNL     1      -2.375  11.581  18.847  0.00  0.00    +0.000 A 
ATOM      7  C   UNL     1      -3.647  11.557  18.250  0.00  0.00    +0.000 A 
ATOM      8  C   UNL     1      -3.908  10.752  17.142  0.00  0.00    +0.000 A 
ATOM      9  C   UNL     1      -2.903   9.955  16.608  0.00  0.00    +0.000 A 
ATOM     10  C   UNL     1      -1.639   9.951  17.191  0.00  0.00    +0.000 A 
ATOM     11  C   UNL     1      -1.372  10.756  18.313  0.00  0.00    +0.000 A 
BRANCH   6  13
ATOM     12  C   UNL     1      -3.243  12.910  20.720  0.00  0.00    +0.000 C 
ATOM     13  C   UNL     1      -2.209  12.484  19.990  0.00  0.00    +0.000 C 
ENDBRANCH   6  13
ENDBRANCH   3  11
ENDBRANCH   1   3
BRANCH   1  14
ATOM     14  C   UNL     1       1.445   8.477  17.959  0.00  0.00    +0.000 C 
BRANCH  14  15
ATOM     15  C   UNL     1       2.938   8.196  17.761  0.00  0.00    +0.000 C 
BRANCH  15  16
ATOM     16  O   UNL     1       3.349   7.173  18.664  0.00  0.00    +0.000 OA
BRANCH  16  17
ATOM     17  C   UNL     1       3.345   5.852  18.288  0.00  0.00    +0.000 A 
ATOM     18  C   UNL     1       4.252   5.636  17.235  0.00  0.00    +0.000 A 
ATOM     19  C   UNL     1       4.414   4.382  16.661  0.00  0.00    +0.000 A 
ATOM     20  C   UNL     1       3.613   3.334  17.088  0.00  0.00    +0.000 A 
ATOM     21  C   UNL     1       2.665   3.520  18.103  0.00  0.00    +0.000 A 
ATOM     22  C   UNL     1       1.805   2.455  18.420  0.00  0.00    +0.000 A 
ATOM     23  C   UNL     1       0.863   2.565  19.437  0.00  0.00    +0.000 A 
ATOM     24  C   UNL     1       0.839   3.709  20.212  0.00  0.00    +0.000 A 
ATOM     25  C   UNL     1       1.691   4.775  19.908  0.00  0.00    +0.000 A 
ATOM     26  C   UNL     1       2.566   4.764  18.788  0.00  0.00    +0.000 A 
ENDBRANCH  16  17
ENDBRANCH  15  16
ENDBRANCH  14  15
ENDBRANCH   1  14
TORSDOF 7
ENDMDL
MODEL 8
REMARK VINA RESULT:      -7.0      5.532      7.412
REMARK  Name = 
REMARK  7 active torsions:
REMARK  status: ('A' for Active; 'I' for Inactive)
REMARK    1  A    between atoms: C_2  and  C_3
REMARK    2  A    between atoms: C_8  and  S_9
REMARK    3  A    between atoms: S_9  and  N_12
REMARK    4  A    between atoms: N_12  and  C_13
REMARK    5  A    between atoms: C_13  and  C_14
REMARK    6  A    between atoms: C_14  and  O_15
REMARK    7  A    between atoms: O_15  and  C_16
REMARK                            x       y       z     vdW  Elec       q    Type
REMARK                         _______ _______ _______ _____ _____    ______ ____
ROOT
ATOM      1  N   UNL     1       7.534   7.019  17.163  0.00  0.00    +0.000 NA
ATOM      2  H   UNL     1       7.182   7.032  16.205  0.00  0.00    +0.000 HD
ENDROOT
BRANCH   1   3
ATOM      3  S   UNL     1       7.483   5.495  17.858  0.00  0.00    +0.000 S 
ATOM      4  O   UNL     1       8.016   5.633  19.198  0.00  0.00    +0.000 OA
ATOM      5  O   UNL     1       8.065   4.570  16.905  0.00  0.00    +0.000 OA
BRANCH   3  11
ATOM      6  C   UNL     1       4.891   5.118  16.880  0.00  0.00    +0.000 A 
ATOM      7  C   UNL     1       3.532   4.827  17.084  0.00  0.00    +0.000 A 
ATOM      8  C   UNL     1       3.041   4.528  18.355  0.00  0.00    +0.000 A 
ATOM      9  C   UNL     1       3.900   4.513  19.448  0.00  0.00    +0.000 A 
ATOM     10  C   UNL     1       5.248   4.812  19.272  0.00  0.00    +0.000 A 
ATOM     11  C   UNL     1       5.747   5.121  17.994  0.00  0.00    +0.000 A 
BRANCH   6  13
ATOM     12  C   UNL     1       5.488   4.422  14.603  0.00  0.00    +0.000 C 
ATOM     13  C   UNL     1       5.298   5.394  15.499  0.00  0.00    +0.000 C 
ENDBRANCH   6  13
ENDBRANCH   3  11
ENDBRANCH   1   3
BRANCH   1  14
ATOM     14  C   UNL     1       7.250   8.194  17.995  0.00  0.00    +0.000 C 
BRANCH  14  15
ATOM     15  C   UNL     1       8.344   9.248  17.799  0.00  0.00    +0.000 C 
BRANCH  15  16
ATOM     16  O   UNL     1       9.132   9.337  18.984  0.00  0.00    +0.000 OA
BRANCH  16  17
ATOM     17  C   UNL     1       9.480  10.554  19.515  0.00  0.00    +0.000 A 
ATOM     18  C   UNL     1       8.980  10.682  20.823  0.00  0.00    +0.000 A 
ATOM     19  C   UNL     1       9.178  11.837  21.568  0.00  0.00    +0.000 A 
ATOM     20  C   UNL     1       9.823  12.916  20.983  0.00  0.00    +0.000 A 
ATOM     21  C   UNL     1      10.296  12.844  19.666  0.00  0.00    +0.000 A 
ATOM     22  C   UNL     1      10.842  14.002  19.086  0.00  0.00    +0.000 A 
ATOM     23  C   UNL     1      11.355  13.990  17.794  0.00  0.00    +0.000 A 
ATOM     24  C   UNL     1      11.415  12.793  17.105  0.00  0.00    +0.000 A 
ATOM     25  C   UNL     1      10.877  11.634  17.671  0.00  0.00    +0.000 A 
ATOM     26  C   UNL     1      10.210  11.631  18.927  0.00  0.00    +0.000 A 
ENDBRANCH  16  17
ENDBRANCH  15  16
ENDBRANCH  14  15
ENDBRANCH   1  14
TORSDOF 7
ENDMDL
MODEL 9
REMARK VINA RESULT:      -7.0      3.933      9.042
REMARK  Name = 
REMARK  7 active torsions:
REMARK  status: ('A' for Active; 'I' for Inactive)
REMARK    1  A    between atoms: C_2  and  C_3
REMARK    2  A    between atoms: C_8  and  S_9
REMARK    3  A    between atoms: S_9  and  N_12
REMARK    4  A    between atoms: N_12  and  C_13
REMARK    5  A    between atoms: C_13  and  C_14
REMARK    6  A    between atoms: C_14  and  O_15
REMARK    7  A    between atoms: O_15  and  C_16
REMARK                            x       y       z     vdW  Elec       q    Type
REMARK                         _______ _______ _______ _____ _____    ______ ____
ROOT
ATOM      1  N   UNL     1       0.687  10.158  18.055  0.00  0.00    +0.000 NA
ATOM      2  H   UNL     1       1.093  10.508  17.186  0.00  0.00    +0.000 HD
ENDROOT
BRANCH   1   3
ATOM      3  S   UNL     1      -0.144  11.335  18.911  0.00  0.00    +0.000 S 
ATOM      4  O   UNL     1       0.366  12.613  18.460  0.00  0.00    +0.000 OA
ATOM      5  O   UNL     1      -0.104  10.956  20.309  0.00  0.00    +0.000 OA
BRANCH   3  11
ATOM      6  C   UNL     1      -2.882  11.900  18.953  0.00  0.00    +0.000 A 
ATOM      7  C   UNL     1      -4.183  11.712  18.456  0.00  0.00    +0.000 A 
ATOM      8  C   UNL     1      -4.427  10.860  17.380  0.00  0.00    +0.000 A 
ATOM      9  C   UNL     1      -3.376  10.177  16.779  0.00  0.00    +0.000 A 
ATOM     10  C   UNL     1      -2.081  10.337  17.263  0.00  0.00    +0.000 A 
ATOM     11  C   UNL     1      -1.830  11.190  18.352  0.00  0.00    +0.000 A 
BRANCH   6  13
ATOM     12  C   UNL     1      -3.473  12.740  21.183  0.00  0.00    +0.000 C 
ATOM     13  C   UNL     1      -2.741  12.839  20.070  0.00  0.00    +0.000 C 
ENDBRANCH   6  13
ENDBRANCH   3  11
ENDBRANCH   1   3
BRANCH   1  14
ATOM     14  C   UNL     1       1.457   9.149  18.793  0.00  0.00    +0.000 C 
BRANCH  14  15
ATOM     15  C   UNL     1       2.422   8.433  17.842  0.00  0.00    +0.000 C 
BRANCH  15  16
ATOM     16  O   UNL     1       3.059   7.362  18.534  0.00  0.00    +0.000 OA
BRANCH  16  17
ATOM     17  C   UNL     1       3.244   6.141  17.935  0.00  0.00    +0.000 A 
ATOM     18  C   UNL     1       2.144   5.300  18.180  0.00  0.00    +0.000 A 
ATOM     19  C   UNL     1       2.101   3.998  17.698  0.00  0.00    +0.000 A 
ATOM     20  C   UNL     1       3.200   3.492  17.020  0.00  0.00    +0.000 A 
ATOM     21  C   UNL     1       4.335   4.284  16.796  0.00  0.00    +0.000 A 
ATOM     22  C   UNL     1       5.461   3.689  16.203  0.00  0.00    +0.000 A 
ATOM     23  C   UNL     1       6.607   4.425  15.927  0.00  0.00    +0.000 A 
ATOM     24  C   UNL     1       6.601   5.789  16.153  0.00  0.00    +0.000 A 
ATOM     25  C   UNL     1       5.487   6.394  16.741  0.00  0.00    +0.000 A 
ATOM     26  C   UNL     1       4.352   5.656  17.175  0.00  0.00    +0.000 A 
ENDBRANCH  16  17
ENDBRANCH  15  16
ENDBRANCH  14  15
ENDBRANCH   1  14
TORSDOF 7
ENDMDL
