MODEL 1
REMARK VINA RESULT:      -8.0      0.000      0.000
REMARK  Name = 
REMARK  8 active torsions:
REMARK  status: ('A' for Active; 'I' for Inactive)
REMARK    1  A    between atoms: C_1  and  C_2
REMARK    2  A    between atoms: C_8  and  C_10
REMARK    3  A    between atoms: C_11  and  C_12
REMARK    4  A    between atoms: C_15  and  S_16
REMARK    5  A    between atoms: S_16  and  C_17
REMARK    6  A    between atoms: N_24  and  C_25
REMARK    7  A    between atoms: C_25  and  C_26
REMARK    8  A    between atoms: C_26  and  O_28
REMARK                            x       y       z     vdW  Elec       q    Type
REMARK                         _______ _______ _______ _____ _____    ______ ____
ROOT
ATOM      1  C   UNL     1       8.677   9.846  18.493  0.00  0.00    +0.000 A 
ATOM      2  C   UNL     1       8.208  10.701  17.495  0.00  0.00    +0.000 A 
ATOM      3  C   UNL     1       8.374  12.087  17.614  0.00  0.00    +0.000 A 
ATOM      4  C   UNL     1       9.011  12.648  18.733  0.00  0.00    +0.000 A 
ATOM      5  C   UNL     1       9.442  11.783  19.754  0.00  0.00    +0.000 A 
ATOM      6 CL   UNL     1      10.134  12.359  21.232  0.00  0.00    +0.000 Cl
ATOM      7  C   UNL     1       9.288  10.394  19.626  0.00  0.00    +0.000 A 
ENDROOT
BRANCH   1   9
ATOM      8  C   UNL     1       7.435   7.851  17.795  0.00  0.00    +0.000 C 
ATOM      9  C   UNL     1       8.515   8.396  18.377  0.00  0.00    +0.000 C 
BRANCH   8  17
ATOM     10  C   UNL     1       1.985   2.758  18.052  0.00  0.00    +0.000 C 
ATOM     11  C   UNL     1       2.186   4.231  17.809  0.00  0.00    +0.000 C 
ATOM     12  O   UNL     1       1.217   4.954  17.574  0.00  0.00    +0.000 OA
ATOM     13  N   UNL     1       3.477   4.721  17.887  0.00  0.00    +0.000 N 
ATOM     14  C   UNL     1       4.689   3.923  18.128  0.00  0.00    +0.000 C 
ATOM     15  C   UNL     1       5.869   4.413  17.266  0.00  0.00    +0.000 C 
ATOM     16  N   UNL     1       6.054   5.869  17.361  0.00  0.00    +0.000 N 
ATOM     17  C   UNL     1       7.287   6.370  17.741  0.00  0.00    +0.000 C 
ATOM     18  O   UNL     1       8.235   5.651  18.045  0.00  0.00    +0.000 OA
ATOM     19  C   UNL     1       4.833   6.641  17.082  0.00  0.00    +0.000 C 
ATOM     20  C   UNL     1       3.670   6.170  17.965  0.00  0.00    +0.000 C 
ENDBRANCH   8  17
ENDBRANCH   1   9
BRANCH   4  21
ATOM     21  S   UNL     1       9.080  14.434  18.837  0.00  0.00    +0.000 S 
BRANCH  21  22
ATOM     22  C   UNL     1       7.393  14.919  19.191  0.00  0.00    +0.000 A 
ATOM     23  C   UNL     1       6.937  15.044  20.504  0.00  0.00    +0.000 A 
ATOM     24  C   UNL     1       5.577  15.240  20.798  0.00  0.00    +0.000 A 
ATOM     25  C   UNL     1       4.669  15.293  19.730  0.00  0.00    +0.000 A 
ATOM     26  C   UNL     1       5.098  15.204  18.403  0.00  0.00    +0.000 A 
ATOM     27  C   UNL     1       3.944  15.309  17.579  0.00  0.00    +0.000 A 
ATOM     28  C   UNL     1       2.847  15.424  18.402  0.00  0.00    +0.000 A 
ATOM     29  N   UNL     1       3.289  15.388  19.702  0.00  0.00    +0.000 N 
ATOM     30  C   UNL     1       6.474  15.013  18.134  0.00  0.00    +0.000 A 
BRANCH  29  31
ATOM     31  C   UNL     1       2.401  15.369  20.861  0.00  0.00    +0.000 C 
BRANCH  31  32
ATOM     32  C   UNL     1       1.784  14.036  21.197  0.00  0.00    +0.000 C 
ATOM     33  O   UNL     1       2.426  12.994  21.110  0.00  0.00    +0.000 OA
BRANCH  32  34
ATOM     34  O   UNL     1       0.495  14.022  21.596  0.00  0.00    +0.000 OA
ATOM     35  H   UNL     1      -0.048  14.795  21.345  0.00  0.00    +0.000 HD
ENDBRANCH  32  34
ENDBRANCH  31  32
ENDBRANCH  29  31
ENDBRANCH  21  22
ENDBRANCH   4  21
TORSDOF 7
ENDMDL
MODEL 2
REMARK VINA RESULT:      -7.9      3.794      4.366
REMARK  Name = 
REMARK  8 active torsions:
REMARK  status: ('A' for Active; 'I' for Inactive)
REMARK    1  A    between atoms: C_1  and  C_2
REMARK    2  A    between atoms: C_8  and  C_10
REMARK    3  A    between atoms: C_11  and  C_12
REMARK    4  A    between atoms: C_15  and  S_16
REMARK    5  A    between atoms: S_16  and  C_17
REMARK    6  A    between atoms: N_24  and  C_25
REMARK    7  A    between atoms: C_25  and  C_26
REMARK    8  A    between atoms: C_26  and  O_28
REMARK                            x       y       z     vdW  Elec       q    Type
REMARK                         _______ _______ _______ _____ _____    ______ ____
ROOT
ATOM      1  C   UNL     1       8.202   9.177  17.984  0.00  0.00    +0.000 A 
ATOM      2  C   UNL     1       9.038   9.056  19.095  0.00  0.00    +0.000 A 
ATOM      3  C   UNL     1       9.596  10.196  19.689  0.00  0.00    +0.000 A 
ATOM      4  C   UNL     1       9.333  11.479  19.183  0.00  0.00    +0.000 A 
ATOM      5  C   UNL     1       8.526  11.589  18.038  0.00  0.00    +0.000 A 
ATOM      6 CL   UNL     1       8.223  13.102  17.252  0.00  0.00    +0.000 Cl
ATOM      7  C   UNL     1       7.954  10.448  17.453  0.00  0.00    +0.000 A 
ENDROOT
BRANCH   1   9
ATOM      8  C   UNL     1       7.538   6.816  18.000  0.00  0.00    +0.000 C 
ATOM      9  C   UNL     1       7.608   7.994  17.359  0.00  0.00    +0.000 C 
BRANCH   8  17
ATOM     10  C   UNL     1       1.585   2.349  18.540  0.00  0.00    +0.000 C 
ATOM     11  C   UNL     1       2.064   3.703  18.993  0.00  0.00    +0.000 C 
ATOM     12  O   UNL     1       1.341   4.407  19.700  0.00  0.00    +0.000 OA
ATOM     13  N   UNL     1       3.334   4.093  18.608  0.00  0.00    +0.000 N 
ATOM     14  C   UNL     1       4.244   3.330  17.740  0.00  0.00    +0.000 C 
ATOM     15  C   UNL     1       5.000   4.252  16.763  0.00  0.00    +0.000 C 
ATOM     16  N   UNL     1       5.611   5.400  17.450  0.00  0.00    +0.000 N 
ATOM     17  C   UNL     1       6.970   5.626  17.310  0.00  0.00    +0.000 C 
ATOM     18  O   UNL     1       7.707   4.885  16.664  0.00  0.00    +0.000 OA
ATOM     19  C   UNL     1       4.669   6.163  18.283  0.00  0.00    +0.000 C 
ATOM     20  C   UNL     1       3.943   5.245  19.275  0.00  0.00    +0.000 C 
ENDBRANCH   8  17
ENDBRANCH   1   9
BRANCH   4  21
ATOM     21  S   UNL     1      10.178  12.860  19.950  0.00  0.00    +0.000 S 
BRANCH  21  22
ATOM     22  C   UNL     1       9.429  12.987  21.571  0.00  0.00    +0.000 A 
ATOM     23  C   UNL     1       8.677  11.940  22.106  0.00  0.00    +0.000 A 
ATOM     24  C   UNL     1       7.933  12.093  23.287  0.00  0.00    +0.000 A 
ATOM     25  C   UNL     1       7.948  13.344  23.922  0.00  0.00    +0.000 A 
ATOM     26  C   UNL     1       8.717  14.402  23.432  0.00  0.00    +0.000 A 
ATOM     27  C   UNL     1       8.523  15.505  24.307  0.00  0.00    +0.000 A 
ATOM     28  C   UNL     1       7.630  15.120  25.280  0.00  0.00    +0.000 A 
ATOM     29  N   UNL     1       7.266  13.820  25.029  0.00  0.00    +0.000 N 
ATOM     30  C   UNL     1       9.462  14.220  22.243  0.00  0.00    +0.000 A 
BRANCH  29  31
ATOM     31  C   UNL     1       6.243  13.102  25.784  0.00  0.00    +0.000 C 
BRANCH  31  32
ATOM     32  C   UNL     1       6.731  11.962  26.637  0.00  0.00    +0.000 C 
ATOM     33  O   UNL     1       6.155  10.878  26.647  0.00  0.00    +0.000 OA
BRANCH  32  34
ATOM     34  O   UNL     1       7.827  12.168  27.398  0.00  0.00    +0.000 OA
ATOM     35  H   UNL     1       8.692  12.088  26.947  0.00  0.00    +0.000 HD
ENDBRANCH  32  34
ENDBRANCH  31  32
ENDBRANCH  29  31
ENDBRANCH  21  22
ENDBRANCH   4  21
TORSDOF 7
ENDMDL
MODEL 3
REMARK VINA RESULT:      -7.9      6.006      7.972
REMARK  Name = 
REMARK  8 active torsions:
REMARK  status: ('A' for Active; 'I' for Inactive)
REMARK    1  A    between atoms: C_1  and  C_2
REMARK    2  A    between atoms: C_8  and  C_10
REMARK    3  A    between atoms: C_11  and  C_12
REMARK    4  A    between atoms: C_15  and  S_16
REMARK    5  A    between atoms: S_16  and  C_17
REMARK    6  A    between atoms: N_24  and  C_25
REMARK    7  A    between atoms: C_25  and  C_26
REMARK    8  A    between atoms: C_26  and  O_28
REMARK                            x       y       z     vdW  Elec       q    Type
REMARK                         _______ _______ _______ _____ _____    ______ ____
ROOT
ATOM      1  C   UNL     1       1.384   8.312  20.080  0.00  0.00    +0.000 A 
ATOM      2  C   UNL     1       1.382   9.443  19.263  0.00  0.00    +0.000 A 
ATOM      3  C   UNL     1       0.960  10.680  19.768  0.00  0.00    +0.000 A 
ATOM      4  C   UNL     1       0.528  10.811  21.098  0.00  0.00    +0.000 A 
ATOM      5  C   UNL     1       0.492   9.658  21.900  0.00  0.00    +0.000 A 
ATOM      6 CL   UNL     1      -0.128   9.667  23.517  0.00  0.00    +0.000 Cl
ATOM      7  C   UNL     1       0.931   8.423  21.398  0.00  0.00    +0.000 A 
ENDROOT
BRANCH   1   9
ATOM      8  C   UNL     1       2.162   6.006  20.385  0.00  0.00    +0.000 C 
ATOM      9  C   UNL     1       1.830   7.015  19.565  0.00  0.00    +0.000 C 
BRANCH   8  17
ATOM     10  C   UNL     1       6.206   3.634  14.578  0.00  0.00    +0.000 C 
ATOM     11  C   UNL     1       5.923   4.890  15.359  0.00  0.00    +0.000 C 
ATOM     12  O   UNL     1       6.460   5.951  15.034  0.00  0.00    +0.000 OA
ATOM     13  N   UNL     1       5.032   4.801  16.413  0.00  0.00    +0.000 N 
ATOM     14  C   UNL     1       4.376   3.572  16.886  0.00  0.00    +0.000 C 
ATOM     15  C   UNL     1       4.299   3.528  18.425  0.00  0.00    +0.000 C 
ATOM     16  N   UNL     1       3.758   4.776  18.984  0.00  0.00    +0.000 N 
ATOM     17  C   UNL     1       2.655   4.720  19.819  0.00  0.00    +0.000 C 
ATOM     18  O   UNL     1       2.074   3.672  20.088  0.00  0.00    +0.000 OA
ATOM     19  C   UNL     1       4.456   5.985  18.520  0.00  0.00    +0.000 C 
ATOM     20  C   UNL     1       4.503   6.039  16.987  0.00  0.00    +0.000 C 
ENDBRANCH   8  17
ENDBRANCH   1   9
BRANCH   4  21
ATOM     21  S   UNL     1      -0.089  12.412  21.613  0.00  0.00    +0.000 S 
BRANCH  21  22
ATOM     22  C   UNL     1      -1.834  12.358  21.215  0.00  0.00    +0.000 A 
ATOM     23  C   UNL     1      -2.272  12.284  19.892  0.00  0.00    +0.000 A 
ATOM     24  C   UNL     1      -3.628  12.428  19.553  0.00  0.00    +0.000 A 
ATOM     25  C   UNL     1      -4.547  12.669  20.587  0.00  0.00    +0.000 A 
ATOM     26  C   UNL     1      -4.145  12.716  21.924  0.00  0.00    +0.000 A 
ATOM     27  C   UNL     1      -5.308  12.957  22.705  0.00  0.00    +0.000 A 
ATOM     28  C   UNL     1      -6.375  13.083  21.845  0.00  0.00    +0.000 A 
ATOM     29  N   UNL     1      -5.905  12.933  20.564  0.00  0.00    +0.000 N 
ATOM     30  C   UNL     1      -2.774  12.562  22.238  0.00  0.00    +0.000 A 
BRANCH  29  31
ATOM     31  C   UNL     1      -6.726  13.118  19.372  0.00  0.00    +0.000 C 
BRANCH  31  32
ATOM     32  C   UNL     1      -6.980  11.883  18.548  0.00  0.00    +0.000 C 
ATOM     33  O   UNL     1      -7.174  10.792  19.074  0.00  0.00    +0.000 OA
BRANCH  32  34
ATOM     34  O   UNL     1      -6.986  12.012  17.204  0.00  0.00    +0.000 OA
ATOM     35  H   UNL     1      -6.113  12.087  16.769  0.00  0.00    +0.000 HD
ENDBRANCH  32  34
ENDBRANCH  31  32
ENDBRANCH  29  31
ENDBRANCH  21  22
ENDBRANCH   4  21
TORSDOF 7
ENDMDL
MODEL 4
REMARK VINA RESULT:      -7.8      5.961      7.888
REMARK  Name = 
REMARK  8 active torsions:
REMARK  status: ('A' for Active; 'I' for Inactive)
REMARK    1  A    between atoms: C_1  and  C_2
REMARK    2  A    between atoms: C_8  and  C_10
REMARK    3  A    between atoms: C_11  and  C_12
REMARK    4  A    between atoms: C_15  and  S_16
REMARK    5  A    between atoms: S_16  and  C_17
REMARK    6  A    between atoms: N_24  and  C_25
REMARK    7  A    between atoms: C_25  and  C_26
REMARK    8  A    between atoms: C_26  and  O_28
REMARK                            x       y       z     vdW  Elec       q    Type
REMARK                         _______ _______ _______ _____ _____    ______ ____
ROOT
ATOM      1  C   UNL     1       1.374   8.397  20.105  0.00  0.00    +0.000 A 
ATOM      2  C   UNL     1       0.797   8.523  21.369  0.00  0.00    +0.000 A 
ATOM      3  C   UNL     1       0.271   9.752  21.788  0.00  0.00    +0.000 A 
ATOM      4  C   UNL     1       0.313  10.881  20.954  0.00  0.00    +0.000 A 
ATOM      5  C   UNL     1       0.935  10.757  19.700  0.00  0.00    +0.000 A 
ATOM      6 CL   UNL     1       1.153  12.101  18.631  0.00  0.00    +0.000 Cl
ATOM      7  C   UNL     1       1.447   9.521  19.275  0.00  0.00    +0.000 A 
ENDROOT
BRANCH   1   9
ATOM      8  C   UNL     1       2.026   6.063  20.479  0.00  0.00    +0.000 C 
ATOM      9  C   UNL     1       1.921   7.116  19.654  0.00  0.00    +0.000 C 
BRANCH   8  17
ATOM     10  C   UNL     1       6.211   3.690  14.773  0.00  0.00    +0.000 C 
ATOM     11  C   UNL     1       5.819   4.965  15.473  0.00  0.00    +0.000 C 
ATOM     12  O   UNL     1       6.250   6.047  15.070  0.00  0.00    +0.000 OA
ATOM     13  N   UNL     1       4.953   4.864  16.547  0.00  0.00    +0.000 N 
ATOM     14  C   UNL     1       4.421   3.614  17.112  0.00  0.00    +0.000 C 
ATOM     15  C   UNL     1       4.365   3.668  18.651  0.00  0.00    +0.000 C 
ATOM     16  N   UNL     1       3.716   4.895  19.136  0.00  0.00    +0.000 N 
ATOM     17  C   UNL     1       2.632   4.793  19.992  0.00  0.00    +0.000 C 
ATOM     18  O   UNL     1       2.155   3.716  20.340  0.00  0.00    +0.000 OA
ATOM     19  C   UNL     1       4.290   6.130  18.580  0.00  0.00    +0.000 C 
ATOM     20  C   UNL     1       4.315   6.084  17.047  0.00  0.00    +0.000 C 
ENDBRANCH   8  17
ENDBRANCH   1   9
BRANCH   4  21
ATOM     21  S   UNL     1      -0.291  12.428  21.624  0.00  0.00    +0.000 S 
BRANCH  21  22
ATOM     22  C   UNL     1      -1.976  12.537  21.027  0.00  0.00    +0.000 A 
ATOM     23  C   UNL     1      -3.029  12.857  21.886  0.00  0.00    +0.000 A 
ATOM     24  C   UNL     1      -4.369  12.764  21.477  0.00  0.00    +0.000 A 
ATOM     25  C   UNL     1      -4.635  12.321  20.173  0.00  0.00    +0.000 A 
ATOM     26  C   UNL     1      -3.604  12.024  19.278  0.00  0.00    +0.000 A 
ATOM     27  C   UNL     1      -4.208  11.626  18.055  0.00  0.00    +0.000 A 
ATOM     28  C   UNL     1      -5.572  11.654  18.230  0.00  0.00    +0.000 A 
ATOM     29  N   UNL     1      -5.825  12.051  19.520  0.00  0.00    +0.000 N 
ATOM     30  C   UNL     1      -2.261  12.131  19.714  0.00  0.00    +0.000 A 
BRANCH  29  31
ATOM     31  C   UNL     1      -7.159  12.088  20.111  0.00  0.00    +0.000 C 
BRANCH  31  32
ATOM     32  C   UNL     1      -7.494  10.963  21.055  0.00  0.00    +0.000 C 
ATOM     33  O   UNL     1      -7.390   9.789  20.714  0.00  0.00    +0.000 OA
BRANCH  32  34
ATOM     34  O   UNL     1      -7.916  11.287  22.296  0.00  0.00    +0.000 OA
ATOM     35  H   UNL     1      -7.317  11.057  23.034  0.00  0.00    +0.000 HD
ENDBRANCH  32  34
ENDBRANCH  31  32
ENDBRANCH  29  31
ENDBRANCH  21  22
ENDBRANCH   4  21
TORSDOF 7
ENDMDL
MODEL 5
REMARK VINA RESULT:      -7.8      5.801      7.592
REMARK  Name = 
REMARK  8 active torsions:
REMARK  status: ('A' for Active; 'I' for Inactive)
REMARK    1  A    between atoms: C_1  and  C_2
REMARK    2  A    between atoms: C_8  and  C_10
REMARK    3  A    between atoms: C_11  and  C_12
REMARK    4  A    between atoms: C_15  and  S_16
REMARK    5  A    between atoms: S_16  and  C_17
REMARK    6  A    between atoms: N_24  and  C_25
REMARK    7  A    between atoms: C_25  and  C_26
REMARK    8  A    between atoms: C_26  and  O_28
REMARK                            x       y       z     vdW  Elec       q    Type
REMARK                         _______ _______ _______ _____ _____    ______ ____
ROOT
ATOM      1  C   UNL     1       1.826   8.013  18.783  0.00  0.00    +0.000 A 
ATOM      2  C   UNL     1       1.817   9.127  17.943  0.00  0.00    +0.000 A 
ATOM      3  C   UNL     1       1.430  10.381  18.435  0.00  0.00    +0.000 A 
ATOM      4  C   UNL     1       1.041  10.546  19.774  0.00  0.00    +0.000 A 
ATOM      5  C   UNL     1       1.011   9.411  20.601  0.00  0.00    +0.000 A 
ATOM      6 CL   UNL     1       0.441   9.462  22.235  0.00  0.00    +0.000 Cl
ATOM      7  C   UNL     1       1.415   8.158  20.112  0.00  0.00    +0.000 A 
ENDROOT
BRANCH   1   9
ATOM      8  C   UNL     1       3.446   6.186  18.553  0.00  0.00    +0.000 C 
ATOM      9  C   UNL     1       2.236   6.699  18.282  0.00  0.00    +0.000 C 
BRANCH   8  17
ATOM     10  C   UNL     1       7.120   3.521  12.629  0.00  0.00    +0.000 C 
ATOM     11  C   UNL     1       6.944   4.799  13.406  0.00  0.00    +0.000 C 
ATOM     12  O   UNL     1       7.533   5.821  13.051  0.00  0.00    +0.000 OA
ATOM     13  N   UNL     1       6.089   4.773  14.493  0.00  0.00    +0.000 N 
ATOM     14  C   UNL     1       5.377   3.591  15.002  0.00  0.00    +0.000 C 
ATOM     15  C   UNL     1       5.353   3.564  16.543  0.00  0.00    +0.000 C 
ATOM     16  N   UNL     1       4.911   4.848  17.109  0.00  0.00    +0.000 N 
ATOM     17  C   UNL     1       3.838   4.867  17.983  0.00  0.00    +0.000 C 
ATOM     18  O   UNL     1       3.204   3.859  18.284  0.00  0.00    +0.000 OA
ATOM     19  C   UNL     1       5.664   6.008  16.606  0.00  0.00    +0.000 C 
ATOM     20  C   UNL     1       5.658   6.046  15.073  0.00  0.00    +0.000 C 
ENDBRANCH   8  17
ENDBRANCH   1   9
BRANCH   4  21
ATOM     21  S   UNL     1       0.465  12.167  20.274  0.00  0.00    +0.000 S 
BRANCH  21  22
ATOM     22  C   UNL     1      -1.216  12.244  19.661  0.00  0.00    +0.000 A 
ATOM     23  C   UNL     1      -2.266  12.666  20.477  0.00  0.00    +0.000 A 
ATOM     24  C   UNL     1      -3.606  12.555  20.073  0.00  0.00    +0.000 A 
ATOM     25  C   UNL     1      -3.875  11.989  18.817  0.00  0.00    +0.000 A 
ATOM     26  C   UNL     1      -2.846  11.588  17.962  0.00  0.00    +0.000 A 
ATOM     27  C   UNL     1      -3.452  11.081  16.781  0.00  0.00    +0.000 A 
ATOM     28  C   UNL     1      -4.817  11.149  16.945  0.00  0.00    +0.000 A 
ATOM     29  N   UNL     1      -5.067  11.676  18.188  0.00  0.00    +0.000 N 
ATOM     30  C   UNL     1      -1.504  11.715  18.392  0.00  0.00    +0.000 A 
BRANCH  29  31
ATOM     31  C   UNL     1      -6.403  11.794  18.766  0.00  0.00    +0.000 C 
BRANCH  31  32
ATOM     32  C   UNL     1      -6.905  10.590  19.518  0.00  0.00    +0.000 C 
ATOM     33  O   UNL     1      -6.832  10.523  20.741  0.00  0.00    +0.000 OA
BRANCH  32  34
ATOM     34  O   UNL     1      -7.439   9.577  18.803  0.00  0.00    +0.000 OA
ATOM     35  H   UNL     1      -6.920   8.749  18.764  0.00  0.00    +0.000 HD
ENDBRANCH  32  34
ENDBRANCH  31  32
ENDBRANCH  29  31
ENDBRANCH  21  22
ENDBRANCH   4  21
TORSDOF 7
ENDMDL
MODEL 6
REMARK VINA RESULT:      -7.7      5.769      7.961
REMARK  Name = 
REMARK  8 active torsions:
REMARK  status: ('A' for Active; 'I' for Inactive)
REMARK    1  A    between atoms: C_1  and  C_2
REMARK    2  A    between atoms: C_8  and  C_10
REMARK    3  A    between atoms: C_11  and  C_12
REMARK    4  A    between atoms: C_15  and  S_16
REMARK    5  A    between atoms: S_16  and  C_17
REMARK    6  A    between atoms: N_24  and  C_25
REMARK    7  A    between atoms: C_25  and  C_26
REMARK    8  A    between atoms: C_26  and  O_28
REMARK                            x       y       z     vdW  Elec       q    Type
REMARK                         _______ _______ _______ _____ _____    ______ ____
ROOT
ATOM      1  C   UNL     1       1.326   8.355  20.091  0.00  0.00    +0.000 A 
ATOM      2  C   UNL     1       0.873   8.573  21.393  0.00  0.00    +0.000 A 
ATOM      3  C   UNL     1       0.488   9.857  21.802  0.00  0.00    +0.000 A 
ATOM      4  C   UNL     1       0.549  10.948  20.920  0.00  0.00    +0.000 A 
ATOM      5  C   UNL     1       1.047  10.727  19.624  0.00  0.00    +0.000 A 
ATOM      6 CL   UNL     1       1.279  12.009  18.483  0.00  0.00    +0.000 Cl
ATOM      7  C   UNL     1       1.417   9.438  19.210  0.00  0.00    +0.000 A 
ENDROOT
BRANCH   1   9
ATOM      8  C   UNL     1       2.880   6.459  20.045  0.00  0.00    +0.000 C 
ATOM      9  C   UNL     1       1.725   7.016  19.650  0.00  0.00    +0.000 C 
BRANCH   8  17
ATOM     10  C   UNL     1       6.262   3.501  14.085  0.00  0.00    +0.000 C 
ATOM     11  C   UNL     1       6.101   4.821  14.792  0.00  0.00    +0.000 C 
ATOM     12  O   UNL     1       6.644   5.831  14.340  0.00  0.00    +0.000 OA
ATOM     13  N   UNL     1       5.312   4.847  15.928  0.00  0.00    +0.000 N 
ATOM     14  C   UNL     1       4.659   3.685  16.550  0.00  0.00    +0.000 C 
ATOM     15  C   UNL     1       4.727   3.755  18.088  0.00  0.00    +0.000 C 
ATOM     16  N   UNL     1       4.289   5.062  18.600  0.00  0.00    +0.000 N 
ATOM     17  C   UNL     1       3.270   5.115  19.535  0.00  0.00    +0.000 C 
ATOM     18  O   UNL     1       2.678   4.115  19.934  0.00  0.00    +0.000 OA
ATOM     19  C   UNL     1       4.983   6.203  17.983  0.00  0.00    +0.000 C 
ATOM     20  C   UNL     1       4.887   6.145  16.453  0.00  0.00    +0.000 C 
ENDBRANCH   8  17
ENDBRANCH   1   9
BRANCH   4  21
ATOM     21  S   UNL     1       0.133  12.564  21.571  0.00  0.00    +0.000 S 
BRANCH  21  22
ATOM     22  C   UNL     1      -1.635  12.485  21.846  0.00  0.00    +0.000 A 
ATOM     23  C   UNL     1      -2.539  12.688  20.803  0.00  0.00    +0.000 A 
ATOM     24  C   UNL     1      -3.919  12.814  21.035  0.00  0.00    +0.000 A 
ATOM     25  C   UNL     1      -4.376  12.746  22.360  0.00  0.00    +0.000 A 
ATOM     26  C   UNL     1      -3.501  12.510  23.423  0.00  0.00    +0.000 A 
ATOM     27  C   UNL     1      -4.280  12.483  24.612  0.00  0.00    +0.000 A 
ATOM     28  C   UNL     1      -5.588  12.731  24.265  0.00  0.00    +0.000 A 
ATOM     29  N   UNL     1      -5.637  12.914  22.905  0.00  0.00    +0.000 N 
ATOM     30  C   UNL     1      -2.117  12.381  23.161  0.00  0.00    +0.000 A 
BRANCH  29  31
ATOM     31  C   UNL     1      -6.841  13.313  22.183  0.00  0.00    +0.000 C 
BRANCH  31  32
ATOM     32  C   UNL     1      -7.498  12.241  21.353  0.00  0.00    +0.000 C 
ATOM     33  O   UNL     1      -7.832  11.167  21.844  0.00  0.00    +0.000 OA
BRANCH  32  34
ATOM     34  O   UNL     1      -7.709  12.498  20.045  0.00  0.00    +0.000 OA
ATOM     35  H   UNL     1      -6.914  12.664  19.499  0.00  0.00    +0.000 HD
ENDBRANCH  32  34
ENDBRANCH  31  32
ENDBRANCH  29  31
ENDBRANCH  21  22
ENDBRANCH   4  21
TORSDOF 7
ENDMDL
MODEL 7
REMARK VINA RESULT:      -7.7      0.960      1.152
REMARK  Name = 
REMARK  8 active torsions:
REMARK  status: ('A' for Active; 'I' for Inactive)
REMARK    1  A    between atoms: C_1  and  C_2
REMARK    2  A    between atoms: C_8  and  C_10
REMARK    3  A    between atoms: C_11  and  C_12
REMARK    4  A    between atoms: C_15  and  S_16
REMARK    5  A    between atoms: S_16  and  C_17
REMARK    6  A    between atoms: N_24  and  C_25
REMARK    7  A    between atoms: C_25  and  C_26
REMARK    8  A    between atoms: C_26  and  O_28
REMARK                            x       y       z     vdW  Elec       q    Type
REMARK                         _______ _______ _______ _____ _____    ______ ____
ROOT
ATOM      1  C   UNL     1       8.669   9.672  18.516  0.00  0.00    +0.000 A 
ATOM      2  C   UNL     1       8.180  10.514  17.517  0.00  0.00    +0.000 A 
ATOM      3  C   UNL     1       8.380  11.899  17.598  0.00  0.00    +0.000 A 
ATOM      4  C   UNL     1       9.070  12.470  18.680  0.00  0.00    +0.000 A 
ATOM      5  C   UNL     1       9.521  11.618  19.703  0.00  0.00    +0.000 A 
ATOM      6 CL   UNL     1      10.281  12.211  21.142  0.00  0.00    +0.000 Cl
ATOM      7  C   UNL     1       9.334  10.230  19.613  0.00  0.00    +0.000 A 
ENDROOT
BRANCH   1   9
ATOM      8  C   UNL     1       7.492   7.682  17.697  0.00  0.00    +0.000 C 
ATOM      9  C   UNL     1       8.472   8.223  18.438  0.00  0.00    +0.000 C 
BRANCH   8  17
ATOM     10  C   UNL     1       1.881   2.776  18.079  0.00  0.00    +0.000 C 
ATOM     11  C   UNL     1       2.130   4.234  17.794  0.00  0.00    +0.000 C 
ATOM     12  O   UNL     1       1.185   4.981  17.535  0.00  0.00    +0.000 OA
ATOM     13  N   UNL     1       3.436   4.685  17.864  0.00  0.00    +0.000 N 
ATOM     14  C   UNL     1       4.621   3.856  18.131  0.00  0.00    +0.000 C 
ATOM     15  C   UNL     1       5.819   4.283  17.260  0.00  0.00    +0.000 C 
ATOM     16  N   UNL     1       6.050   5.734  17.314  0.00  0.00    +0.000 N 
ATOM     17  C   UNL     1       7.297   6.206  17.684  0.00  0.00    +0.000 C 
ATOM     18  O   UNL     1       8.221   5.466  18.012  0.00  0.00    +0.000 OA
ATOM     19  C   UNL     1       4.855   6.536  17.009  0.00  0.00    +0.000 C 
ATOM     20  C   UNL     1       3.675   6.129  17.900  0.00  0.00    +0.000 C 
ENDBRANCH   8  17
ENDBRANCH   1   9
BRANCH   4  21
ATOM     21  S   UNL     1       9.181  14.256  18.741  0.00  0.00    +0.000 S 
BRANCH  21  22
ATOM     22  C   UNL     1       7.516  14.786  19.133  0.00  0.00    +0.000 A 
ATOM     23  C   UNL     1       7.071  14.859  20.453  0.00  0.00    +0.000 A 
ATOM     24  C   UNL     1       5.722  15.091  20.767  0.00  0.00    +0.000 A 
ATOM     25  C   UNL     1       4.811  15.235  19.709  0.00  0.00    +0.000 A 
ATOM     26  C   UNL     1       5.229  15.200  18.376  0.00  0.00    +0.000 A 
ATOM     27  C   UNL     1       4.076  15.392  17.568  0.00  0.00    +0.000 A 
ATOM     28  C   UNL     1       2.989  15.506  18.404  0.00  0.00    +0.000 A 
ATOM     29  N   UNL     1       3.435  15.385  19.696  0.00  0.00    +0.000 N 
ATOM     30  C   UNL     1       6.595  14.971  18.088  0.00  0.00    +0.000 A 
BRANCH  29  31
ATOM     31  C   UNL     1       2.554  15.338  20.859  0.00  0.00    +0.000 C 
BRANCH  31  32
ATOM     32  C   UNL     1       2.138  16.669  21.426  0.00  0.00    +0.000 C 
ATOM     33  O   UNL     1       0.973  17.051  21.375  0.00  0.00    +0.000 OA
BRANCH  32  34
ATOM     34  O   UNL     1       3.092  17.438  21.994  0.00  0.00    +0.000 OA
ATOM     35  H   UNL     1       3.864  17.659  21.436  0.00  0.00    +0.000 HD
ENDBRANCH  32  34
ENDBRANCH  31  32
ENDBRANCH  29  31
ENDBRANCH  21  22
ENDBRANCH   4  21
TORSDOF 7
ENDMDL
MODEL 8
REMARK VINA RESULT:      -7.6      1.770      2.139
REMARK  Name = 
REMARK  8 active torsions:
REMARK  status: ('A' for Active; 'I' for Inactive)
REMARK    1  A    between atoms: C_1  and  C_2
REMARK    2  A    between atoms: C_8  and  C_10
REMARK    3  A    between atoms: C_11  and  C_12
REMARK    4  A    between atoms: C_15  and  S_16
REMARK    5  A    between atoms: S_16  and  C_17
REMARK    6  A    between atoms: N_24  and  C_25
REMARK    7  A    between atoms: C_25  and  C_26
REMARK    8  A    between atoms: C_26  and  O_28
REMARK                            x       y       z     vdW  Elec       q    Type
REMARK                         _______ _______ _______ _____ _____    ______ ____
ROOT
ATOM      1  C   UNL     1       8.208   9.116  18.002  0.00  0.00    +0.000 A 
ATOM      2  C   UNL     1       9.024   9.070  19.134  0.00  0.00    +0.000 A 
ATOM      3  C   UNL     1       9.554  10.250  19.672  0.00  0.00    +0.000 A 
ATOM      4  C   UNL     1       9.284  11.499  19.089  0.00  0.00    +0.000 A 
ATOM      5  C   UNL     1       8.498  11.532  17.925  0.00  0.00    +0.000 A 
ATOM      6 CL   UNL     1       8.190  12.993  17.049  0.00  0.00    +0.000 Cl
ATOM      7  C   UNL     1       7.954  10.351  17.396  0.00  0.00    +0.000 A 
ENDROOT
BRANCH   1   9
ATOM      8  C   UNL     1       7.622   6.738  18.122  0.00  0.00    +0.000 C 
ATOM      9  C   UNL     1       7.643   7.890  17.434  0.00  0.00    +0.000 C 
BRANCH   8  17
ATOM     10  C   UNL     1       1.596   2.366  18.635  0.00  0.00    +0.000 C 
ATOM     11  C   UNL     1       2.063   3.746  19.015  0.00  0.00    +0.000 C 
ATOM     12  O   UNL     1       1.308   4.506  19.623  0.00  0.00    +0.000 OA
ATOM     13  N   UNL     1       3.358   4.098  18.678  0.00  0.00    +0.000 N 
ATOM     14  C   UNL     1       4.309   3.266  17.925  0.00  0.00    +0.000 C 
ATOM     15  C   UNL     1       5.132   4.107  16.929  0.00  0.00    +0.000 C 
ATOM     16  N   UNL     1       5.715   5.298  17.565  0.00  0.00    +0.000 N 
ATOM     17  C   UNL     1       7.082   5.504  17.489  0.00  0.00    +0.000 C 
ATOM     18  O   UNL     1       7.847   4.711  16.945  0.00  0.00    +0.000 OA
ATOM     19  C   UNL     1       4.734   6.128  18.281  0.00  0.00    +0.000 C 
ATOM     20  C   UNL     1       3.940   5.292  19.293  0.00  0.00    +0.000 C 
ENDBRANCH   8  17
ENDBRANCH   1   9
BRANCH   4  21
ATOM     21  S   UNL     1      10.094  12.933  19.792  0.00  0.00    +0.000 S 
BRANCH  21  22
ATOM     22  C   UNL     1       8.756  13.893  20.495  0.00  0.00    +0.000 A 
ATOM     23  C   UNL     1       8.080  13.464  21.638  0.00  0.00    +0.000 A 
ATOM     24  C   UNL     1       6.915  14.105  22.091  0.00  0.00    +0.000 A 
ATOM     25  C   UNL     1       6.427  15.193  21.352  0.00  0.00    +0.000 A 
ATOM     26  C   UNL     1       7.099  15.668  20.223  0.00  0.00    +0.000 A 
ATOM     27  C   UNL     1       6.358  16.775  19.726  0.00  0.00    +0.000 A 
ATOM     28  C   UNL     1       5.250  16.934  20.526  0.00  0.00    +0.000 A 
ATOM     29  N   UNL     1       5.283  15.959  21.493  0.00  0.00    +0.000 N 
ATOM     30  C   UNL     1       8.273  15.008  19.791  0.00  0.00    +0.000 A 
BRANCH  29  31
ATOM     31  C   UNL     1       4.211  15.736  22.458  0.00  0.00    +0.000 C 
BRANCH  31  32
ATOM     32  C   UNL     1       3.150  14.748  22.049  0.00  0.00    +0.000 C 
ATOM     33  O   UNL     1       3.411  13.793  21.324  0.00  0.00    +0.000 OA
BRANCH  32  34
ATOM     34  O   UNL     1       1.895  14.946  22.505  0.00  0.00    +0.000 OA
ATOM     35  H   UNL     1       1.732  14.721  23.443  0.00  0.00    +0.000 HD
ENDBRANCH  32  34
ENDBRANCH  31  32
ENDBRANCH  29  31
ENDBRANCH  21  22
ENDBRANCH   4  21
TORSDOF 7
ENDMDL
MODEL 9
REMARK VINA RESULT:      -7.5      1.453      1.974
REMARK  Name = 
REMARK  8 active torsions:
REMARK  status: ('A' for Active; 'I' for Inactive)
REMARK    1  A    between atoms: C_1  and  C_2
REMARK    2  A    between atoms: C_8  and  C_10
REMARK    3  A    between atoms: C_11  and  C_12
REMARK    4  A    between atoms: C_15  and  S_16
REMARK    5  A    between atoms: S_16  and  C_17
REMARK    6  A    between atoms: N_24  and  C_25
REMARK    7  A    between atoms: C_25  and  C_26
REMARK    8  A    between atoms: C_26  and  O_28
REMARK                            x       y       z     vdW  Elec       q    Type
REMARK                         _______ _______ _______ _____ _____    ______ ____
ROOT
ATOM      1  C   UNL     1       8.468   9.305  18.291  0.00  0.00    +0.000 A 
ATOM      2  C   UNL     1       7.852  10.197  17.412  0.00  0.00    +0.000 A 
ATOM      3  C   UNL     1       8.113  11.571  17.501  0.00  0.00    +0.000 A 
ATOM      4  C   UNL     1       8.992  12.081  18.470  0.00  0.00    +0.000 A 
ATOM      5  C   UNL     1       9.573  11.180  19.379  0.00  0.00    +0.000 A 
ATOM      6 CL   UNL     1      10.581  11.697  20.689  0.00  0.00    +0.000 Cl
ATOM      7  C   UNL     1       9.324   9.803  19.279  0.00  0.00    +0.000 A 
ENDROOT
BRANCH   1   9
ATOM      8  C   UNL     1       7.167   7.377  17.511  0.00  0.00    +0.000 C 
ATOM      9  C   UNL     1       8.208   7.866  18.204  0.00  0.00    +0.000 C 
BRANCH   8  17
ATOM     10  C   UNL     1       2.112   2.537  20.102  0.00  0.00    +0.000 C 
ATOM     11  C   UNL     1       2.278   4.010  19.836  0.00  0.00    +0.000 C 
ATOM     12  O   UNL     1       1.360   4.790  20.095  0.00  0.00    +0.000 OA
ATOM     13  N   UNL     1       3.491   4.435  19.325  0.00  0.00    +0.000 N 
ATOM     14  C   UNL     1       4.622   3.569  18.957  0.00  0.00    +0.000 C 
ATOM     15  C   UNL     1       5.306   4.051  17.663  0.00  0.00    +0.000 C 
ATOM     16  N   UNL     1       5.611   5.489  17.704  0.00  0.00    +0.000 N 
ATOM     17  C   UNL     1       6.912   5.911  17.488  0.00  0.00    +0.000 C 
ATOM     18  O   UNL     1       7.844   5.132  17.300  0.00  0.00    +0.000 OA
ATOM     19  C   UNL     1       4.453   6.332  18.041  0.00  0.00    +0.000 C 
ATOM     20  C   UNL     1       3.795   5.866  19.346  0.00  0.00    +0.000 C 
ENDBRANCH   8  17
ENDBRANCH   1   9
BRANCH   4  21
ATOM     21  S   UNL     1       9.176  13.860  18.566  0.00  0.00    +0.000 S 
BRANCH  21  22
ATOM     22  C   UNL     1       7.506  14.462  18.802  0.00  0.00    +0.000 A 
ATOM     23  C   UNL     1       6.582  14.461  17.756  0.00  0.00    +0.000 A 
ATOM     24  C   UNL     1       5.335  15.097  17.872  0.00  0.00    +0.000 A 
ATOM     25  C   UNL     1       5.038  15.759  19.073  0.00  0.00    +0.000 A 
ATOM     26  C   UNL     1       5.927  15.751  20.150  0.00  0.00    +0.000 A 
ATOM     27  C   UNL     1       5.321  16.488  21.203  0.00  0.00    +0.000 A 
ATOM     28  C   UNL     1       4.108  16.953  20.749  0.00  0.00    +0.000 A 
ATOM     29  N   UNL     1       3.953  16.530  19.451  0.00  0.00    +0.000 N 
ATOM     30  C   UNL     1       7.175  15.097  20.009  0.00  0.00    +0.000 A 
BRANCH  29  31
ATOM     31  C   UNL     1       2.838  16.927  18.597  0.00  0.00    +0.000 C 
BRANCH  31  32
ATOM     32  C   UNL     1       1.600  16.074  18.689  0.00  0.00    +0.000 C 
ATOM     33  O   UNL     1       0.486  16.574  18.804  0.00  0.00    +0.000 OA
BRANCH  32  34
ATOM     34  O   UNL     1       1.753  14.733  18.644  0.00  0.00    +0.000 OA
ATOM     35  H   UNL     1       1.261  14.216  19.312  0.00  0.00    +0.000 HD
ENDBRANCH  32  34
ENDBRANCH  31  32
ENDBRANCH  29  31
ENDBRANCH  21  22
ENDBRANCH   4  21
TORSDOF 7
ENDMDL
