MODEL 1
REMARK VINA RESULT:      -6.1      0.000      0.000
REMARK  Name = 
REMARK  18 active torsions:
REMARK  status: ('A' for Active; 'I' for Inactive)
REMARK    1  A    between atoms: C_1  and  C_2
REMARK    2  A    between atoms: C_2  and  C_3
REMARK    3  A    between atoms: C_3  and  C_4
REMARK    4  A    between atoms: C_4  and  C_5
REMARK    5  A    between atoms: C_5  and  C_6
REMARK    6  A    between atoms: C_6  and  C_7
REMARK    7  A    between atoms: C_7  and  C_8
REMARK    8  A    between atoms: C_8  and  C_9
REMARK    9  A    between atoms: C_9  and  C_10
REMARK   10  A    between atoms: C_10  and  C_11
REMARK   11  A    between atoms: C_11  and  C_12
REMARK   12  A    between atoms: C_12  and  S_13
REMARK   13  A    between atoms: C_12  and  C_14
REMARK   14  A    between atoms: C_14  and  C_15
REMARK   15  A    between atoms: C_15  and  O_16
REMARK   16  A    between atoms: O_16  and  C_17
REMARK   17  A    between atoms: C_20  and  C_21
REMARK   18  A    between atoms: C_21  and  O_23
REMARK                            x       y       z     vdW  Elec       q    Type
REMARK                         _______ _______ _______ _____ _____    ______ ____
ROOT
ATOM      1  C   UNL     1       1.364   2.805  20.209  0.00  0.00    +0.000 C 
ENDROOT
BRANCH   1   2
ATOM      2  S   UNL     1       2.544   2.641  21.600  0.00  0.00    +0.000 S 
ATOM      3  H   UNL     1       1.630   2.425  22.559  0.00  0.00    +0.000 HD
ENDBRANCH   1   2
BRANCH   1   4
ATOM      4  C   UNL     1       1.915   2.154  18.927  0.00  0.00    +0.000 C 
BRANCH   4   5
ATOM      5  C   UNL     1       2.297   3.151  17.835  0.00  0.00    +0.000 C 
BRANCH   5   6
ATOM      6  C   UNL     1       3.800   3.427  17.862  0.00  0.00    +0.000 C 
BRANCH   6   7
ATOM      7  C   UNL     1       4.369   3.363  16.452  0.00  0.00    +0.000 C 
BRANCH   7   8
ATOM      8  C   UNL     1       5.664   4.155  16.340  0.00  0.00    +0.000 C 
BRANCH   8   9
ATOM      9  C   UNL     1       5.509   5.278  15.319  0.00  0.00    +0.000 C 
BRANCH   9  10
ATOM     10  C   UNL     1       5.175   6.597  16.007  0.00  0.00    +0.000 C 
BRANCH  10  11
ATOM     11  C   UNL     1       5.790   6.651  17.402  0.00  0.00    +0.000 C 
BRANCH  11  12
ATOM     12  C   UNL     1       7.058   7.500  17.399  0.00  0.00    +0.000 C 
BRANCH  12  14
ATOM     13  C   UNL     1       7.550   5.752  19.131  0.00  0.00    +0.000 C 
ATOM     14  C   UNL     1       8.051   7.015  18.451  0.00  0.00    +0.000 C 
ENDBRANCH  12  14
ENDBRANCH  11  12
ENDBRANCH  10  11
ENDBRANCH   9  10
ENDBRANCH   8   9
ENDBRANCH   7   8
ENDBRANCH   6   7
ENDBRANCH   5   6
ENDBRANCH   4   5
ENDBRANCH   1   4
BRANCH   1  15
ATOM     15  C   UNL     1       1.050   4.297  20.019  0.00  0.00    +0.000 C 
BRANCH  15  16
ATOM     16  C   UNL     1       1.986   5.183  20.838  0.00  0.00    +0.000 C 
BRANCH  16  17
ATOM     17  O   UNL     1       2.735   6.021  19.962  0.00  0.00    +0.000 OA
BRANCH  17  18
ATOM     18  C   UNL     1       2.183   7.255  19.730  0.00  0.00    +0.000 A 
ATOM     19  C   UNL     1       2.331   7.732  18.429  0.00  0.00    +0.000 A 
ATOM     20  C   UNL     1       1.813   8.979  18.072  0.00  0.00    +0.000 A 
ATOM     21  C   UNL     1       1.126   9.753  19.015  0.00  0.00    +0.000 A 
ATOM     22  C   UNL     1       0.938   9.256  20.309  0.00  0.00    +0.000 A 
ATOM     23  C   UNL     1       1.473   8.016  20.665  0.00  0.00    +0.000 A 
BRANCH  21  24
ATOM     24  C   UNL     1       0.570  11.059  18.579  0.00  0.00    +0.000 C 
ATOM     25  O   UNL     1      -0.623  11.309  18.606  0.00  0.00    +0.000 OA
BRANCH  24  26
ATOM     26  O   UNL     1       1.492  11.929  18.117  0.00  0.00    +0.000 OA
ATOM     27  H   UNL     1       1.440  12.131  17.165  0.00  0.00    +0.000 HD
ENDBRANCH  24  26
ENDBRANCH  21  24
ENDBRANCH  17  18
ENDBRANCH  16  17
ENDBRANCH  15  16
ENDBRANCH   1  15
TORSDOF 17
ENDMDL
MODEL 2
REMARK VINA RESULT:      -5.8      2.228      3.821
REMARK  Name = 
REMARK  18 active torsions:
REMARK  status: ('A' for Active; 'I' for Inactive)
REMARK    1  A    between atoms: C_1  and  C_2
REMARK    2  A    between atoms: C_2  and  C_3
REMARK    3  A    between atoms: C_3  and  C_4
REMARK    4  A    between atoms: C_4  and  C_5
REMARK    5  A    between atoms: C_5  and  C_6
REMARK    6  A    between atoms: C_6  and  C_7
REMARK    7  A    between atoms: C_7  and  C_8
REMARK    8  A    between atoms: C_8  and  C_9
REMARK    9  A    between atoms: C_9  and  C_10
REMARK   10  A    between atoms: C_10  and  C_11
REMARK   11  A    between atoms: C_11  and  C_12
REMARK   12  A    between atoms: C_12  and  S_13
REMARK   13  A    between atoms: C_12  and  C_14
REMARK   14  A    between atoms: C_14  and  C_15
REMARK   15  A    between atoms: C_15  and  O_16
REMARK   16  A    between atoms: O_16  and  C_17
REMARK   17  A    between atoms: C_20  and  C_21
REMARK   18  A    between atoms: C_21  and  O_23
REMARK                            x       y       z     vdW  Elec       q    Type
REMARK                         _______ _______ _______ _____ _____    ______ ____
ROOT
ATOM      1  C   UNL     1       2.179   3.790  19.025  0.00  0.00    +0.000 C 
ENDROOT
BRANCH   1   2
ATOM      2  S   UNL     1       1.170   2.276  18.823  0.00  0.00    +0.000 S 
ATOM      3  H   UNL     1       0.191   2.622  19.673  0.00  0.00    +0.000 HD
ENDBRANCH   1   2
BRANCH   1   4
ATOM      4  C   UNL     1       3.621   3.573  18.531  0.00  0.00    +0.000 C 
BRANCH   4   5
ATOM      5  C   UNL     1       3.795   3.739  17.023  0.00  0.00    +0.000 C 
BRANCH   5   6
ATOM      6  C   UNL     1       4.906   4.743  16.717  0.00  0.00    +0.000 C 
BRANCH   6   7
ATOM      7  C   UNL     1       6.107   4.026  16.114  0.00  0.00    +0.000 C 
BRANCH   7   8
ATOM      8  C   UNL     1       7.041   5.004  15.414  0.00  0.00    +0.000 C 
BRANCH   8   9
ATOM      9  C   UNL     1       6.841   4.935  13.904  0.00  0.00    +0.000 C 
BRANCH   9  10
ATOM     10  C   UNL     1       6.087   3.670  13.512  0.00  0.00    +0.000 C 
BRANCH  10  11
ATOM     11  C   UNL     1       6.364   3.302  12.057  0.00  0.00    +0.000 C 
BRANCH  11  12
ATOM     12  C   UNL     1       5.161   2.592  11.442  0.00  0.00    +0.000 C 
BRANCH  12  14
ATOM     13  C   UNL     1       3.386   3.743  10.092  0.00  0.00    +0.000 C 
ATOM     14  C   UNL     1       3.917   3.473  11.490  0.00  0.00    +0.000 C 
ENDBRANCH  12  14
ENDBRANCH  11  12
ENDBRANCH  10  11
ENDBRANCH   9  10
ENDBRANCH   8   9
ENDBRANCH   7   8
ENDBRANCH   6   7
ENDBRANCH   5   6
ENDBRANCH   4   5
ENDBRANCH   1   4
BRANCH   1  15
ATOM     15  C   UNL     1       2.125   4.210  20.502  0.00  0.00    +0.000 C 
BRANCH  15  16
ATOM     16  C   UNL     1       1.728   5.677  20.660  0.00  0.00    +0.000 C 
BRANCH  16  17
ATOM     17  O   UNL     1       2.566   6.486  19.839  0.00  0.00    +0.000 OA
BRANCH  17  18
ATOM     18  C   UNL     1       2.038   7.704  19.495  0.00  0.00    +0.000 A 
ATOM     19  C   UNL     1       1.426   8.396  20.538  0.00  0.00    +0.000 A 
ATOM     20  C   UNL     1       0.848   9.648  20.310  0.00  0.00    +0.000 A 
ATOM     21  C   UNL     1       0.893  10.223  19.034  0.00  0.00    +0.000 A 
ATOM     22  C   UNL     1       1.546   9.549  17.997  0.00  0.00    +0.000 A 
ATOM     23  C   UNL     1       2.108   8.291  18.227  0.00  0.00    +0.000 A 
BRANCH  21  24
ATOM     24  C   UNL     1       0.290  11.568  18.850  0.00  0.00    +0.000 C 
ATOM     25  O   UNL     1      -0.785  11.879  19.333  0.00  0.00    +0.000 OA
BRANCH  24  26
ATOM     26  O   UNL     1       1.015  12.400  18.073  0.00  0.00    +0.000 OA
ATOM     27  H   UNL     1       1.970  12.212  18.034  0.00  0.00    +0.000 HD
ENDBRANCH  24  26
ENDBRANCH  21  24
ENDBRANCH  17  18
ENDBRANCH  16  17
ENDBRANCH  15  16
ENDBRANCH   1  15
TORSDOF 17
ENDMDL
MODEL 3
REMARK VINA RESULT:      -5.8      3.240      7.370
REMARK  Name = 
REMARK  18 active torsions:
REMARK  status: ('A' for Active; 'I' for Inactive)
REMARK    1  A    between atoms: C_1  and  C_2
REMARK    2  A    between atoms: C_2  and  C_3
REMARK    3  A    between atoms: C_3  and  C_4
REMARK    4  A    between atoms: C_4  and  C_5
REMARK    5  A    between atoms: C_5  and  C_6
REMARK    6  A    between atoms: C_6  and  C_7
REMARK    7  A    between atoms: C_7  and  C_8
REMARK    8  A    between atoms: C_8  and  C_9
REMARK    9  A    between atoms: C_9  and  C_10
REMARK   10  A    between atoms: C_10  and  C_11
REMARK   11  A    between atoms: C_11  and  C_12
REMARK   12  A    between atoms: C_12  and  S_13
REMARK   13  A    between atoms: C_12  and  C_14
REMARK   14  A    between atoms: C_14  and  C_15
REMARK   15  A    between atoms: C_15  and  O_16
REMARK   16  A    between atoms: O_16  and  C_17
REMARK   17  A    between atoms: C_20  and  C_21
REMARK   18  A    between atoms: C_21  and  O_23
REMARK                            x       y       z     vdW  Elec       q    Type
REMARK                         _______ _______ _______ _____ _____    ______ ____
ROOT
ATOM      1  C   UNL     1       6.003   6.539  16.343  0.00  0.00    +0.000 C 
ENDROOT
BRANCH   1   2
ATOM      2  S   UNL     1       6.910   6.329  17.919  0.00  0.00    +0.000 S 
ATOM      3  H   UNL     1       6.583   7.518  18.450  0.00  0.00    +0.000 HD
ENDBRANCH   1   2
BRANCH   1   4
ATOM      4  C   UNL     1       4.517   6.858  16.588  0.00  0.00    +0.000 C 
BRANCH   4   5
ATOM      5  C   UNL     1       4.070   6.673  18.036  0.00  0.00    +0.000 C 
BRANCH   5   6
ATOM      6  C   UNL     1       2.599   7.052  18.197  0.00  0.00    +0.000 C 
BRANCH   6   7
ATOM      7  C   UNL     1       2.393   8.517  17.837  0.00  0.00    +0.000 C 
BRANCH   7   8
ATOM      8  C   UNL     1       1.358   9.170  18.743  0.00  0.00    +0.000 C 
BRANCH   8   9
ATOM      9  C   UNL     1       1.256  10.661  18.437  0.00  0.00    +0.000 C 
BRANCH   9  10
ATOM     10  C   UNL     1      -0.064  11.231  18.943  0.00  0.00    +0.000 C 
BRANCH  10  11
ATOM     11  C   UNL     1      -1.235  10.356  18.506  0.00  0.00    +0.000 C 
BRANCH  11  12
ATOM     12  C   UNL     1      -1.935  10.960  17.292  0.00  0.00    +0.000 C 
BRANCH  12  14
ATOM     13  C   UNL     1      -2.907  10.285  15.078  0.00  0.00    +0.000 C 
ATOM     14  C   UNL     1      -2.745   9.907  16.541  0.00  0.00    +0.000 C 
ENDBRANCH  12  14
ENDBRANCH  11  12
ENDBRANCH  10  11
ENDBRANCH   9  10
ENDBRANCH   8   9
ENDBRANCH   7   8
ENDBRANCH   6   7
ENDBRANCH   5   6
ENDBRANCH   4   5
ENDBRANCH   1   4
BRANCH   1  15
ATOM     15  C   UNL     1       6.198   5.267  15.503  0.00  0.00    +0.000 C 
BRANCH  15  16
ATOM     16  C   UNL     1       6.181   4.008  16.368  0.00  0.00    +0.000 C 
BRANCH  16  17
ATOM     17  O   UNL     1       4.913   3.369  16.249  0.00  0.00    +0.000 OA
BRANCH  17  18
ATOM     18  C   UNL     1       4.194   3.290  17.414  0.00  0.00    +0.000 A 
ATOM     19  C   UNL     1       2.810   3.286  17.253  0.00  0.00    +0.000 A 
ATOM     20  C   UNL     1       1.971   3.212  18.368  0.00  0.00    +0.000 A 
ATOM     21  C   UNL     1       2.514   3.124  19.655  0.00  0.00    +0.000 A 
ATOM     22  C   UNL     1       3.903   3.083  19.815  0.00  0.00    +0.000 A 
ATOM     23  C   UNL     1       4.737   3.174  18.699  0.00  0.00    +0.000 A 
BRANCH  21  24
ATOM     24  C   UNL     1       1.581   3.019  20.805  0.00  0.00    +0.000 C 
ATOM     25  O   UNL     1       1.954   2.750  21.934  0.00  0.00    +0.000 OA
BRANCH  24  26
ATOM     26  O   UNL     1       0.283   3.210  20.487  0.00  0.00    +0.000 OA
ATOM     27  H   UNL     1      -0.032   4.130  20.544  0.00  0.00    +0.000 HD
ENDBRANCH  24  26
ENDBRANCH  21  24
ENDBRANCH  17  18
ENDBRANCH  16  17
ENDBRANCH  15  16
ENDBRANCH   1  15
TORSDOF 17
ENDMDL
MODEL 4
REMARK VINA RESULT:      -5.6      3.010      6.894
REMARK  Name = 
REMARK  18 active torsions:
REMARK  status: ('A' for Active; 'I' for Inactive)
REMARK    1  A    between atoms: C_1  and  C_2
REMARK    2  A    between atoms: C_2  and  C_3
REMARK    3  A    between atoms: C_3  and  C_4
REMARK    4  A    between atoms: C_4  and  C_5
REMARK    5  A    between atoms: C_5  and  C_6
REMARK    6  A    between atoms: C_6  and  C_7
REMARK    7  A    between atoms: C_7  and  C_8
REMARK    8  A    between atoms: C_8  and  C_9
REMARK    9  A    between atoms: C_9  and  C_10
REMARK   10  A    between atoms: C_10  and  C_11
REMARK   11  A    between atoms: C_11  and  C_12
REMARK   12  A    between atoms: C_12  and  S_13
REMARK   13  A    between atoms: C_12  and  C_14
REMARK   14  A    between atoms: C_14  and  C_15
REMARK   15  A    between atoms: C_15  and  O_16
REMARK   16  A    between atoms: O_16  and  C_17
REMARK   17  A    between atoms: C_20  and  C_21
REMARK   18  A    between atoms: C_21  and  O_23
REMARK                            x       y       z     vdW  Elec       q    Type
REMARK                         _______ _______ _______ _____ _____    ______ ____
ROOT
ATOM      1  C   UNL     1       2.533   2.303  20.221  0.00  0.00    +0.000 C 
ENDROOT
BRANCH   1   2
ATOM      2  S   UNL     1       1.945   2.286  18.488  0.00  0.00    +0.000 S 
ATOM      3  H   UNL     1       2.839   1.398  18.025  0.00  0.00    +0.000 HD
ENDBRANCH   1   2
BRANCH   1   4
ATOM      4  C   UNL     1       1.589   3.118  21.125  0.00  0.00    +0.000 C 
BRANCH   4   5
ATOM      5  C   UNL     1       0.893   4.277  20.417  0.00  0.00    +0.000 C 
BRANCH   5   6
ATOM      6  C   UNL     1       1.680   5.573  20.605  0.00  0.00    +0.000 C 
BRANCH   6   7
ATOM      7  C   UNL     1       2.163   6.092  19.257  0.00  0.00    +0.000 C 
BRANCH   7   8
ATOM      8  C   UNL     1       2.432   7.590  19.304  0.00  0.00    +0.000 C 
BRANCH   8   9
ATOM      9  C   UNL     1       2.352   8.184  17.902  0.00  0.00    +0.000 C 
BRANCH   9  10
ATOM     10  C   UNL     1       1.119   9.069  17.755  0.00  0.00    +0.000 C 
BRANCH  10  11
ATOM     11  C   UNL     1       1.013  10.048  18.921  0.00  0.00    +0.000 C 
BRANCH  11  12
ATOM     12  C   UNL     1      -0.439  10.460  19.148  0.00  0.00    +0.000 C 
BRANCH  12  14
ATOM     13  C   UNL     1      -2.077  11.422  17.508  0.00  0.00    +0.000 C 
ATOM     14  C   UNL     1      -1.290  10.187  17.911  0.00  0.00    +0.000 C 
ENDBRANCH  12  14
ENDBRANCH  11  12
ENDBRANCH  10  11
ENDBRANCH   9  10
ENDBRANCH   8   9
ENDBRANCH   7   8
ENDBRANCH   6   7
ENDBRANCH   5   6
ENDBRANCH   4   5
ENDBRANCH   1   4
BRANCH   1  15
ATOM     15  C   UNL     1       3.970   2.846  20.236  0.00  0.00    +0.000 C 
BRANCH  15  16
ATOM     16  C   UNL     1       4.579   2.879  18.836  0.00  0.00    +0.000 C 
BRANCH  16  17
ATOM     17  O   UNL     1       4.834   4.229  18.460  0.00  0.00    +0.000 OA
BRANCH  17  18
ATOM     18  C   UNL     1       5.547   4.381  17.299  0.00  0.00    +0.000 A 
ATOM     19  C   UNL     1       4.786   4.366  16.133  0.00  0.00    +0.000 A 
ATOM     20  C   UNL     1       5.400   4.510  14.887  0.00  0.00    +0.000 A 
ATOM     21  C   UNL     1       6.787   4.687  14.801  0.00  0.00    +0.000 A 
ATOM     22  C   UNL     1       7.547   4.747  15.973  0.00  0.00    +0.000 A 
ATOM     23  C   UNL     1       6.929   4.586  17.215  0.00  0.00    +0.000 A 
BRANCH  21  24
ATOM     24  C   UNL     1       7.390   4.864  13.455  0.00  0.00    +0.000 C 
ATOM     25  O   UNL     1       8.212   5.730  13.210  0.00  0.00    +0.000 OA
BRANCH  24  26
ATOM     26  O   UNL     1       6.923   4.009  12.521  0.00  0.00    +0.000 OA
ATOM     27  H   UNL     1       5.961   3.859  12.533  0.00  0.00    +0.000 HD
ENDBRANCH  24  26
ENDBRANCH  21  24
ENDBRANCH  17  18
ENDBRANCH  16  17
ENDBRANCH  15  16
ENDBRANCH   1  15
TORSDOF 17
ENDMDL
MODEL 5
REMARK VINA RESULT:      -5.5      3.711      7.864
REMARK  Name = 
REMARK  18 active torsions:
REMARK  status: ('A' for Active; 'I' for Inactive)
REMARK    1  A    between atoms: C_1  and  C_2
REMARK    2  A    between atoms: C_2  and  C_3
REMARK    3  A    between atoms: C_3  and  C_4
REMARK    4  A    between atoms: C_4  and  C_5
REMARK    5  A    between atoms: C_5  and  C_6
REMARK    6  A    between atoms: C_6  and  C_7
REMARK    7  A    between atoms: C_7  and  C_8
REMARK    8  A    between atoms: C_8  and  C_9
REMARK    9  A    between atoms: C_9  and  C_10
REMARK   10  A    between atoms: C_10  and  C_11
REMARK   11  A    between atoms: C_11  and  C_12
REMARK   12  A    between atoms: C_12  and  S_13
REMARK   13  A    between atoms: C_12  and  C_14
REMARK   14  A    between atoms: C_14  and  C_15
REMARK   15  A    between atoms: C_15  and  O_16
REMARK   16  A    between atoms: O_16  and  C_17
REMARK   17  A    between atoms: C_20  and  C_21
REMARK   18  A    between atoms: C_21  and  O_23
REMARK                            x       y       z     vdW  Elec       q    Type
REMARK                         _______ _______ _______ _____ _____    ______ ____
ROOT
ATOM      1  C   UNL     1       5.868   6.327  18.267  0.00  0.00    +0.000 C 
ENDROOT
BRANCH   1   2
ATOM      2  S   UNL     1       6.436   4.670  18.800  0.00  0.00    +0.000 S 
ATOM      3  H   UNL     1       7.516   5.083  19.481  0.00  0.00    +0.000 HD
ENDBRANCH   1   2
BRANCH   1   4
ATOM      4  C   UNL     1       4.574   6.237  17.438  0.00  0.00    +0.000 C 
BRANCH   4   5
ATOM      5  C   UNL     1       3.540   7.309  17.776  0.00  0.00    +0.000 C 
BRANCH   5   6
ATOM      6  C   UNL     1       2.264   6.671  18.322  0.00  0.00    +0.000 C 
BRANCH   6   7
ATOM      7  C   UNL     1       2.371   6.494  19.831  0.00  0.00    +0.000 C 
BRANCH   7   8
ATOM      8  C   UNL     1       2.816   5.084  20.193  0.00  0.00    +0.000 C 
BRANCH   8   9
ATOM      9  C   UNL     1       1.945   4.528  21.315  0.00  0.00    +0.000 C 
BRANCH   9  10
ATOM     10  C   UNL     1       1.355   3.177  20.927  0.00  0.00    +0.000 C 
BRANCH  10  11
ATOM     11  C   UNL     1       2.216   2.492  19.871  0.00  0.00    +0.000 C 
BRANCH  11  12
ATOM     12  C   UNL     1       1.456   2.370  18.553  0.00  0.00    +0.000 C 
BRANCH  12  14
ATOM     13  C   UNL     1       3.688   2.629  17.433  0.00  0.00    +0.000 C 
ATOM     14  C   UNL     1       2.223   3.030  17.410  0.00  0.00    +0.000 C 
ENDBRANCH  12  14
ENDBRANCH  11  12
ENDBRANCH  10  11
ENDBRANCH   9  10
ENDBRANCH   8   9
ENDBRANCH   7   8
ENDBRANCH   6   7
ENDBRANCH   5   6
ENDBRANCH   4   5
ENDBRANCH   1   4
BRANCH   1  15
ATOM     15  C   UNL     1       7.012   7.002  17.495  0.00  0.00    +0.000 C 
BRANCH  15  16
ATOM     16  C   UNL     1       6.849   6.841  15.984  0.00  0.00    +0.000 C 
BRANCH  16  17
ATOM     17  O   UNL     1       7.693   5.790  15.525  0.00  0.00    +0.000 OA
BRANCH  17  18
ATOM     18  C   UNL     1       7.174   5.036  14.504  0.00  0.00    +0.000 A 
ATOM     19  C   UNL     1       6.033   4.306  14.831  0.00  0.00    +0.000 A 
ATOM     20  C   UNL     1       5.415   3.498  13.874  0.00  0.00    +0.000 A 
ATOM     21  C   UNL     1       5.928   3.427  12.572  0.00  0.00    +0.000 A 
ATOM     22  C   UNL     1       7.047   4.194  12.231  0.00  0.00    +0.000 A 
ATOM     23  C   UNL     1       7.671   4.987  13.196  0.00  0.00    +0.000 A 
BRANCH  21  24
ATOM     24  C   UNL     1       5.218   2.576  11.584  0.00  0.00    +0.000 C 
ATOM     25  O   UNL     1       5.677   1.526  11.169  0.00  0.00    +0.000 OA
BRANCH  24  26
ATOM     26  O   UNL     1       4.042   3.083  11.158  0.00  0.00    +0.000 OA
ATOM     27  H   UNL     1       3.273   2.492  11.250  0.00  0.00    +0.000 HD
ENDBRANCH  24  26
ENDBRANCH  21  24
ENDBRANCH  17  18
ENDBRANCH  16  17
ENDBRANCH  15  16
ENDBRANCH   1  15
TORSDOF 17
ENDMDL
MODEL 6
REMARK VINA RESULT:      -5.5      2.292      4.424
REMARK  Name = 
REMARK  18 active torsions:
REMARK  status: ('A' for Active; 'I' for Inactive)
REMARK    1  A    between atoms: C_1  and  C_2
REMARK    2  A    between atoms: C_2  and  C_3
REMARK    3  A    between atoms: C_3  and  C_4
REMARK    4  A    between atoms: C_4  and  C_5
REMARK    5  A    between atoms: C_5  and  C_6
REMARK    6  A    between atoms: C_6  and  C_7
REMARK    7  A    between atoms: C_7  and  C_8
REMARK    8  A    between atoms: C_8  and  C_9
REMARK    9  A    between atoms: C_9  and  C_10
REMARK   10  A    between atoms: C_10  and  C_11
REMARK   11  A    between atoms: C_11  and  C_12
REMARK   12  A    between atoms: C_12  and  S_13
REMARK   13  A    between atoms: C_12  and  C_14
REMARK   14  A    between atoms: C_14  and  C_15
REMARK   15  A    between atoms: C_15  and  O_16
REMARK   16  A    between atoms: O_16  and  C_17
REMARK   17  A    between atoms: C_20  and  C_21
REMARK   18  A    between atoms: C_21  and  O_23
REMARK                            x       y       z     vdW  Elec       q    Type
REMARK                         _______ _______ _______ _____ _____    ______ ____
ROOT
ATOM      1  C   UNL     1       5.000   3.129  18.855  0.00  0.00    +0.000 C 
ENDROOT
BRANCH   1   2
ATOM      2  S   UNL     1       4.501   2.088  20.276  0.00  0.00    +0.000 S 
ATOM      3  H   UNL     1       3.428   1.529  19.696  0.00  0.00    +0.000 HD
ENDBRANCH   1   2
BRANCH   1   4
ATOM      4  C   UNL     1       5.104   4.612  19.255  0.00  0.00    +0.000 C 
BRANCH   4   5
ATOM      5  C   UNL     1       6.510   5.193  19.137  0.00  0.00    +0.000 C 
BRANCH   5   6
ATOM      6  C   UNL     1       7.227   4.624  17.914  0.00  0.00    +0.000 C 
BRANCH   6   7
ATOM      7  C   UNL     1       7.321   5.682  16.823  0.00  0.00    +0.000 C 
BRANCH   7   8
ATOM      8  C   UNL     1       5.946   6.225  16.457  0.00  0.00    +0.000 C 
BRANCH   8   9
ATOM      9  C   UNL     1       5.188   5.212  15.606  0.00  0.00    +0.000 C 
BRANCH   9  10
ATOM     10  C   UNL     1       6.128   4.504  14.637  0.00  0.00    +0.000 C 
BRANCH  10  11
ATOM     11  C   UNL     1       5.456   4.301  13.282  0.00  0.00    +0.000 C 
BRANCH  11  12
ATOM     12  C   UNL     1       6.290   3.375  12.401  0.00  0.00    +0.000 C 
BRANCH  12  14
ATOM     13  C   UNL     1       4.075   3.115  11.251  0.00  0.00    +0.000 C 
ATOM     14  C   UNL     1       5.402   2.450  11.574  0.00  0.00    +0.000 C 
ENDBRANCH  12  14
ENDBRANCH  11  12
ENDBRANCH  10  11
ENDBRANCH   9  10
ENDBRANCH   8   9
ENDBRANCH   7   8
ENDBRANCH   6   7
ENDBRANCH   5   6
ENDBRANCH   4   5
ENDBRANCH   1   4
BRANCH   1  15
ATOM     15  C   UNL     1       3.997   2.899  17.715  0.00  0.00    +0.000 C 
BRANCH  15  16
ATOM     16  C   UNL     1       2.803   2.061  18.170  0.00  0.00    +0.000 C 
BRANCH  16  17
ATOM     17  O   UNL     1       1.609   2.827  18.041  0.00  0.00    +0.000 OA
BRANCH  17  18
ATOM     18  C   UNL     1       1.622   4.034  18.692  0.00  0.00    +0.000 A 
ATOM     19  C   UNL     1       1.899   5.136  17.886  0.00  0.00    +0.000 A 
ATOM     20  C   UNL     1       1.943   6.419  18.436  0.00  0.00    +0.000 A 
ATOM     21  C   UNL     1       1.693   6.610  19.801  0.00  0.00    +0.000 A 
ATOM     22  C   UNL     1       1.371   5.510  20.602  0.00  0.00    +0.000 A 
ATOM     23  C   UNL     1       1.345   4.228  20.050  0.00  0.00    +0.000 A 
BRANCH  21  24
ATOM     24  C   UNL     1       1.723   7.997  20.332  0.00  0.00    +0.000 C 
ATOM     25  O   UNL     1       1.748   8.978  19.610  0.00  0.00    +0.000 OA
BRANCH  24  26
ATOM     26  O   UNL     1       1.758   8.074  21.679  0.00  0.00    +0.000 OA
ATOM     27  H   UNL     1       2.527   7.653  22.104  0.00  0.00    +0.000 HD
ENDBRANCH  24  26
ENDBRANCH  21  24
ENDBRANCH  17  18
ENDBRANCH  16  17
ENDBRANCH  15  16
ENDBRANCH   1  15
TORSDOF 17
ENDMDL
MODEL 7
REMARK VINA RESULT:      -5.5      2.345      4.594
REMARK  Name = 
REMARK  18 active torsions:
REMARK  status: ('A' for Active; 'I' for Inactive)
REMARK    1  A    between atoms: C_1  and  C_2
REMARK    2  A    between atoms: C_2  and  C_3
REMARK    3  A    between atoms: C_3  and  C_4
REMARK    4  A    between atoms: C_4  and  C_5
REMARK    5  A    between atoms: C_5  and  C_6
REMARK    6  A    between atoms: C_6  and  C_7
REMARK    7  A    between atoms: C_7  and  C_8
REMARK    8  A    between atoms: C_8  and  C_9
REMARK    9  A    between atoms: C_9  and  C_10
REMARK   10  A    between atoms: C_10  and  C_11
REMARK   11  A    between atoms: C_11  and  C_12
REMARK   12  A    between atoms: C_12  and  S_13
REMARK   13  A    between atoms: C_12  and  C_14
REMARK   14  A    between atoms: C_14  and  C_15
REMARK   15  A    between atoms: C_15  and  O_16
REMARK   16  A    between atoms: O_16  and  C_17
REMARK   17  A    between atoms: C_20  and  C_21
REMARK   18  A    between atoms: C_21  and  O_23
REMARK                            x       y       z     vdW  Elec       q    Type
REMARK                         _______ _______ _______ _____ _____    ______ ____
ROOT
ATOM      1  C   UNL     1       5.519   6.576  18.122  0.00  0.00    +0.000 C 
ENDROOT
BRANCH   1   2
ATOM      2  S   UNL     1       7.129   6.291  17.298  0.00  0.00    +0.000 S 
ATOM      3  H   UNL     1       7.898   6.492  18.379  0.00  0.00    +0.000 HD
ENDBRANCH   1   2
BRANCH   1   4
ATOM      4  C   UNL     1       5.058   5.330  18.901  0.00  0.00    +0.000 C 
BRANCH   4   5
ATOM      5  C   UNL     1       5.485   4.007  18.269  0.00  0.00    +0.000 C 
BRANCH   5   6
ATOM      6  C   UNL     1       4.496   3.586  17.183  0.00  0.00    +0.000 C 
BRANCH   6   7
ATOM      7  C   UNL     1       3.853   2.255  17.548  0.00  0.00    +0.000 C 
BRANCH   7   8
ATOM      8  C   UNL     1       2.336   2.371  17.614  0.00  0.00    +0.000 C 
BRANCH   8   9
ATOM      9  C   UNL     1       1.922   3.837  17.672  0.00  0.00    +0.000 C 
BRANCH   9  10
ATOM     10  C   UNL     1       1.128   4.129  18.940  0.00  0.00    +0.000 C 
BRANCH  10  11
ATOM     11  C   UNL     1       0.835   2.842  19.705  0.00  0.00    +0.000 C 
BRANCH  11  12
ATOM     12  C   UNL     1       1.121   3.023  21.193  0.00  0.00    +0.000 C 
BRANCH  12  14
ATOM     13  C   UNL     1       3.553   2.409  21.116  0.00  0.00    +0.000 C 
ATOM     14  C   UNL     1       2.549   3.506  21.427  0.00  0.00    +0.000 C 
ENDBRANCH  12  14
ENDBRANCH  11  12
ENDBRANCH  10  11
ENDBRANCH   9  10
ENDBRANCH   8   9
ENDBRANCH   7   8
ENDBRANCH   6   7
ENDBRANCH   5   6
ENDBRANCH   4   5
ENDBRANCH   1   4
BRANCH   1  15
ATOM     15  C   UNL     1       4.502   7.007  17.054  0.00  0.00    +0.000 C 
BRANCH  15  16
ATOM     16  C   UNL     1       3.502   8.024  17.600  0.00  0.00    +0.000 C 
BRANCH  16  17
ATOM     17  O   UNL     1       2.400   7.339  18.187  0.00  0.00    +0.000 OA
BRANCH  17  18
ATOM     18  C   UNL     1       1.834   7.970  19.265  0.00  0.00    +0.000 A 
ATOM     19  C   UNL     1       1.317   9.236  19.003  0.00  0.00    +0.000 A 
ATOM     20  C   UNL     1       0.718   9.979  20.023  0.00  0.00    +0.000 A 
ATOM     21  C   UNL     1       0.618   9.449  21.315  0.00  0.00    +0.000 A 
ATOM     22  C   UNL     1       1.097   8.160  21.570  0.00  0.00    +0.000 A 
ATOM     23  C   UNL     1       1.710   7.428  20.550  0.00  0.00    +0.000 A 
BRANCH  21  24
ATOM     24  C   UNL     1      -0.053  10.266  22.358  0.00  0.00    +0.000 C 
ATOM     25  O   UNL     1      -0.074  11.484  22.328  0.00  0.00    +0.000 OA
BRANCH  24  26
ATOM     26  O   UNL     1      -0.603   9.547  23.359  0.00  0.00    +0.000 OA
ATOM     27  H   UNL     1      -1.233  10.028  23.925  0.00  0.00    +0.000 HD
ENDBRANCH  24  26
ENDBRANCH  21  24
ENDBRANCH  17  18
ENDBRANCH  16  17
ENDBRANCH  15  16
ENDBRANCH   1  15
TORSDOF 17
ENDMDL
MODEL 8
REMARK VINA RESULT:      -5.4      4.518      7.471
REMARK  Name = 
REMARK  18 active torsions:
REMARK  status: ('A' for Active; 'I' for Inactive)
REMARK    1  A    between atoms: C_1  and  C_2
REMARK    2  A    between atoms: C_2  and  C_3
REMARK    3  A    between atoms: C_3  and  C_4
REMARK    4  A    between atoms: C_4  and  C_5
REMARK    5  A    between atoms: C_5  and  C_6
REMARK    6  A    between atoms: C_6  and  C_7
REMARK    7  A    between atoms: C_7  and  C_8
REMARK    8  A    between atoms: C_8  and  C_9
REMARK    9  A    between atoms: C_9  and  C_10
REMARK   10  A    between atoms: C_10  and  C_11
REMARK   11  A    between atoms: C_11  and  C_12
REMARK   12  A    between atoms: C_12  and  S_13
REMARK   13  A    between atoms: C_12  and  C_14
REMARK   14  A    between atoms: C_14  and  C_15
REMARK   15  A    between atoms: C_15  and  O_16
REMARK   16  A    between atoms: O_16  and  C_17
REMARK   17  A    between atoms: C_20  and  C_21
REMARK   18  A    between atoms: C_21  and  O_23
REMARK                            x       y       z     vdW  Elec       q    Type
REMARK                         _______ _______ _______ _____ _____    ______ ____
ROOT
ATOM      1  C   UNL     1       6.679   6.138  17.623  0.00  0.00    +0.000 C 
ENDROOT
BRANCH   1   2
ATOM      2  S   UNL     1       7.072   5.292  16.047  0.00  0.00    +0.000 S 
ATOM      3  H   UNL     1       7.842   6.263  15.532  0.00  0.00    +0.000 HD
ENDBRANCH   1   2
BRANCH   1   4
ATOM      4  C   UNL     1       5.505   7.119  17.455  0.00  0.00    +0.000 C 
BRANCH   4   5
ATOM      5  C   UNL     1       4.137   6.445  17.363  0.00  0.00    +0.000 C 
BRANCH   5   6
ATOM      6  C   UNL     1       3.870   5.598  18.606  0.00  0.00    +0.000 C 
BRANCH   6   7
ATOM      7  C   UNL     1       4.226   4.143  18.334  0.00  0.00    +0.000 C 
BRANCH   7   8
ATOM      8  C   UNL     1       3.265   3.514  17.334  0.00  0.00    +0.000 C 
BRANCH   8   9
ATOM      9  C   UNL     1       3.072   2.035  17.647  0.00  0.00    +0.000 C 
BRANCH   9  10
ATOM     10  C   UNL     1       2.229   1.849  18.903  0.00  0.00    +0.000 C 
BRANCH  10  11
ATOM     11  C   UNL     1       0.876   2.537  18.755  0.00  0.00    +0.000 C 
BRANCH  11  12
ATOM     12  C   UNL     1       0.615   3.472  19.934  0.00  0.00    +0.000 C 
BRANCH  12  14
ATOM     13  C   UNL     1       2.390   4.045  21.613  0.00  0.00    +0.000 C 
ATOM     14  C   UNL     1       1.365   3.011  21.180  0.00  0.00    +0.000 C 
ENDBRANCH  12  14
ENDBRANCH  11  12
ENDBRANCH  10  11
ENDBRANCH   9  10
ENDBRANCH   8   9
ENDBRANCH   7   8
ENDBRANCH   6   7
ENDBRANCH   5   6
ENDBRANCH   4   5
ENDBRANCH   1   4
BRANCH   1  15
ATOM     15  C   UNL     1       7.954   6.832  18.127  0.00  0.00    +0.000 C 
BRANCH  15  16
ATOM     16  C   UNL     1       7.953   8.324  17.801  0.00  0.00    +0.000 C 
BRANCH  16  17
ATOM     17  O   UNL     1       8.610   9.038  18.845  0.00  0.00    +0.000 OA
BRANCH  17  18
ATOM     18  C   UNL     1       8.955  10.328  18.535  0.00  0.00    +0.000 A 
ATOM     19  C   UNL     1      10.187  10.745  19.035  0.00  0.00    +0.000 A 
ATOM     20  C   UNL     1      10.646  12.041  18.787  0.00  0.00    +0.000 A 
ATOM     21  C   UNL     1       9.878  12.927  18.021  0.00  0.00    +0.000 A 
ATOM     22  C   UNL     1       8.662  12.495  17.482  0.00  0.00    +0.000 A 
ATOM     23  C   UNL     1       8.200  11.204  17.747  0.00  0.00    +0.000 A 
BRANCH  21  24
ATOM     24  C   UNL     1      10.423  14.284  17.762  0.00  0.00    +0.000 C 
ATOM     25  O   UNL     1      11.139  14.536  16.809  0.00  0.00    +0.000 OA
BRANCH  24  26
ATOM     26  O   UNL     1      10.087  15.204  18.691  0.00  0.00    +0.000 OA
ATOM     27  H   UNL     1      10.234  14.938  19.617  0.00  0.00    +0.000 HD
ENDBRANCH  24  26
ENDBRANCH  21  24
ENDBRANCH  17  18
ENDBRANCH  16  17
ENDBRANCH  15  16
ENDBRANCH   1  15
TORSDOF 17
ENDMDL
MODEL 9
REMARK VINA RESULT:      -5.4      1.201      1.773
REMARK  Name = 
REMARK  18 active torsions:
REMARK  status: ('A' for Active; 'I' for Inactive)
REMARK    1  A    between atoms: C_1  and  C_2
REMARK    2  A    between atoms: C_2  and  C_3
REMARK    3  A    between atoms: C_3  and  C_4
REMARK    4  A    between atoms: C_4  and  C_5
REMARK    5  A    between atoms: C_5  and  C_6
REMARK    6  A    between atoms: C_6  and  C_7
REMARK    7  A    between atoms: C_7  and  C_8
REMARK    8  A    between atoms: C_8  and  C_9
REMARK    9  A    between atoms: C_9  and  C_10
REMARK   10  A    between atoms: C_10  and  C_11
REMARK   11  A    between atoms: C_11  and  C_12
REMARK   12  A    between atoms: C_12  and  S_13
REMARK   13  A    between atoms: C_12  and  C_14
REMARK   14  A    between atoms: C_14  and  C_15
REMARK   15  A    between atoms: C_15  and  O_16
REMARK   16  A    between atoms: O_16  and  C_17
REMARK   17  A    between atoms: C_20  and  C_21
REMARK   18  A    between atoms: C_21  and  O_23
REMARK                            x       y       z     vdW  Elec       q    Type
REMARK                         _______ _______ _______ _____ _____    ______ ____
ROOT
ATOM      1  C   UNL     1       1.435   4.245  20.613  0.00  0.00    +0.000 C 
ENDROOT
BRANCH   1   2
ATOM      2  S   UNL     1       2.257   3.010  21.687  0.00  0.00    +0.000 S 
ATOM      3  H   UNL     1       2.803   3.885  22.546  0.00  0.00    +0.000 HD
ENDBRANCH   1   2
BRANCH   1   4
ATOM      4  C   UNL     1       0.944   3.609  19.300  0.00  0.00    +0.000 C 
BRANCH   4   5
ATOM      5  C   UNL     1       1.966   2.693  18.630  0.00  0.00    +0.000 C 
BRANCH   5   6
ATOM      6  C   UNL     1       2.478   3.316  17.332  0.00  0.00    +0.000 C 
BRANCH   6   7
ATOM      7  C   UNL     1       3.987   3.504  17.401  0.00  0.00    +0.000 C 
BRANCH   7   8
ATOM      8  C   UNL     1       4.541   4.031  16.084  0.00  0.00    +0.000 C 
BRANCH   8   9
ATOM      9  C   UNL     1       6.041   3.772  16.002  0.00  0.00    +0.000 C 
BRANCH   9  10
ATOM     10  C   UNL     1       6.813   5.080  15.862  0.00  0.00    +0.000 C 
BRANCH  10  11
ATOM     11  C   UNL     1       5.950   6.266  16.283  0.00  0.00    +0.000 C 
BRANCH  11  12
ATOM     12  C   UNL     1       6.264   6.678  17.719  0.00  0.00    +0.000 C 
BRANCH  12  14
ATOM     13  C   UNL     1       7.993   8.496  17.774  0.00  0.00    +0.000 C 
ATOM     14  C   UNL     1       7.745   7.002  17.888  0.00  0.00    +0.000 C 
ENDBRANCH  12  14
ENDBRANCH  11  12
ENDBRANCH  10  11
ENDBRANCH   9  10
ENDBRANCH   8   9
ENDBRANCH   7   8
ENDBRANCH   6   7
ENDBRANCH   5   6
ENDBRANCH   4   5
ENDBRANCH   1   4
BRANCH   1  15
ATOM     15  C   UNL     1       2.417   5.402  20.372  0.00  0.00    +0.000 C 
BRANCH  15  16
ATOM     16  C   UNL     1       1.781   6.758  20.672  0.00  0.00    +0.000 C 
BRANCH  16  17
ATOM     17  O   UNL     1       2.110   7.676  19.633  0.00  0.00    +0.000 OA
BRANCH  17  18
ATOM     18  C   UNL     1       1.236   8.723  19.489  0.00  0.00    +0.000 A 
ATOM     19  C   UNL     1       1.089   9.193  18.186  0.00  0.00    +0.000 A 
ATOM     20  C   UNL     1       0.227  10.258  17.913  0.00  0.00    +0.000 A 
ATOM     21  C   UNL     1      -0.508  10.853  18.947  0.00  0.00    +0.000 A 
ATOM     22  C   UNL     1      -0.394  10.353  20.248  0.00  0.00    +0.000 A 
ATOM     23  C   UNL     1       0.480   9.298  20.517  0.00  0.00    +0.000 A 
BRANCH  21  24
ATOM     24  C   UNL     1      -1.431  11.964  18.601  0.00  0.00    +0.000 C 
ATOM     25  O   UNL     1      -2.392  12.259  19.290  0.00  0.00    +0.000 OA
BRANCH  24  26
ATOM     26  O   UNL     1      -1.135  12.592  17.444  0.00  0.00    +0.000 OA
ATOM     27  H   UNL     1      -1.897  12.797  16.872  0.00  0.00    +0.000 HD
ENDBRANCH  24  26
ENDBRANCH  21  24
ENDBRANCH  17  18
ENDBRANCH  16  17
ENDBRANCH  15  16
ENDBRANCH   1  15
TORSDOF 17
ENDMDL
