MODEL 1
REMARK VINA RESULT:      -7.9      0.000      0.000
REMARK  Name = 
REMARK  4 active torsions:
REMARK  status: ('A' for Active; 'I' for Inactive)
REMARK    1  A    between atoms: C_11  and  C_12
REMARK    2  A    between atoms: C_12  and  C_13
REMARK    3  A    between atoms: C_14  and  C_15
REMARK    4  A    between atoms: C_15  and  N_16
REMARK                            x       y       z     vdW  Elec       q    Type
REMARK                         _______ _______ _______ _____ _____    ______ ____
ROOT
ATOM      1  C   UNL     1       1.670   9.718  18.302  0.00  0.00    +0.000 C 
ENDROOT
BRANCH   1  12
ATOM      2  O   UNL     1      -0.941  11.332  18.027  0.00  0.00    +0.000 OA
ATOM      3  C   UNL     1      -0.534  10.728  19.005  0.00  0.00    +0.000 C 
ATOM      4  C   UNL     1      -0.863  11.086  20.385  0.00  0.00    +0.000 A 
ATOM      5  C   UNL     1      -1.665  12.118  20.839  0.00  0.00    +0.000 A 
ATOM      6  C   UNL     1      -1.845  12.233  22.220  0.00  0.00    +0.000 A 
ATOM      7  C   UNL     1      -1.224  11.333  23.107  0.00  0.00    +0.000 A 
ATOM      8  C   UNL     1      -0.405  10.305  22.629  0.00  0.00    +0.000 A 
ATOM      9  C   UNL     1      -0.244  10.203  21.259  0.00  0.00    +0.000 A 
ATOM     10  C   UNL     1       0.537   9.222  20.503  0.00  0.00    +0.000 C 
ATOM     11  O   UNL     1       1.202   8.341  21.010  0.00  0.00    +0.000 OA
ATOM     12  C   UNL     1       0.351   9.498  19.022  0.00  0.00    +0.000 C 
ENDBRANCH   1  12
BRANCH   1  13
ATOM     13  C   UNL     1       2.398   8.459  18.094  0.00  0.00    +0.000 C 
ATOM     14  C   UNL     1       3.030   7.342  17.867  0.00  0.00    +0.000 C 
BRANCH  14  15
ATOM     15  C   UNL     1       3.767   6.038  17.602  0.00  0.00    +0.000 C 
BRANCH  15  16
ATOM     16  N   UNL     1       3.280   4.960  18.472  0.00  0.00    +0.000 NA
ATOM     17  C   UNL     1       3.880   3.664  18.128  0.00  0.00    +0.000 C 
ATOM     18  C   UNL     1       3.061   2.444  18.568  0.00  0.00    +0.000 C 
ATOM     19  C   UNL     1       1.550   2.613  18.384  0.00  0.00    +0.000 C 
ATOM     20  C   UNL     1       0.798   2.971  19.671  0.00  0.00    +0.000 C 
ATOM     21  C   UNL     1       1.066   4.355  20.271  0.00  0.00    +0.000 C 
ATOM     22  C   UNL     1       2.484   4.540  20.824  0.00  0.00    +0.000 C 
ATOM     23  C   UNL     1       3.414   5.316  19.888  0.00  0.00    +0.000 C 
ENDBRANCH  15  16
ENDBRANCH  14  15
ENDBRANCH   1  13
TORSDOF 4
ENDMDL
MODEL 2
REMARK VINA RESULT:      -7.8      0.621      1.932
REMARK  Name = 
REMARK  4 active torsions:
REMARK  status: ('A' for Active; 'I' for Inactive)
REMARK    1  A    between atoms: C_11  and  C_12
REMARK    2  A    between atoms: C_12  and  C_13
REMARK    3  A    between atoms: C_14  and  C_15
REMARK    4  A    between atoms: C_15  and  N_16
REMARK                            x       y       z     vdW  Elec       q    Type
REMARK                         _______ _______ _______ _____ _____    ______ ____
ROOT
ATOM      1  C   UNL     1       0.932   9.458  18.113  0.00  0.00    +0.000 C 
ENDROOT
BRANCH   1  12
ATOM      2  O   UNL     1       1.392   8.587  21.033  0.00  0.00    +0.000 OA
ATOM      3  C   UNL     1       0.911   9.633  20.631  0.00  0.00    +0.000 C 
ATOM      4  C   UNL     1      -0.054  10.435  21.384  0.00  0.00    +0.000 A 
ATOM      5  C   UNL     1      -0.583  10.191  22.638  0.00  0.00    +0.000 A 
ATOM      6  C   UNL     1      -1.476  11.134  23.155  0.00  0.00    +0.000 A 
ATOM      7  C   UNL     1      -1.823  12.281  22.416  0.00  0.00    +0.000 A 
ATOM      8  C   UNL     1      -1.288  12.502  21.142  0.00  0.00    +0.000 A 
ATOM      9  C   UNL     1      -0.402  11.561  20.651  0.00  0.00    +0.000 A 
ATOM     10  C   UNL     1       0.306  11.557  19.370  0.00  0.00    +0.000 C 
ATOM     11  O   UNL     1       0.178  12.412  18.515  0.00  0.00    +0.000 OA
ATOM     12  C   UNL     1       1.207  10.336  19.322  0.00  0.00    +0.000 C 
ENDBRANCH   1  12
BRANCH   1  13
ATOM     13  C   UNL     1       1.916   8.374  17.988  0.00  0.00    +0.000 C 
ATOM     14  C   UNL     1       2.755   7.383  17.881  0.00  0.00    +0.000 C 
BRANCH  14  15
ATOM     15  C   UNL     1       3.734   6.226  17.756  0.00  0.00    +0.000 C 
BRANCH  15  16
ATOM     16  N   UNL     1       3.289   5.060  18.530  0.00  0.00    +0.000 NA
ATOM     17  C   UNL     1       4.040   3.848  18.179  0.00  0.00    +0.000 C 
ATOM     18  C   UNL     1       3.314   2.534  18.491  0.00  0.00    +0.000 C 
ATOM     19  C   UNL     1       1.814   2.568  18.188  0.00  0.00    +0.000 C 
ATOM     20  C   UNL     1       0.929   2.782  19.421  0.00  0.00    +0.000 C 
ATOM     21  C   UNL     1       1.010   4.149  20.105  0.00  0.00    +0.000 C 
ATOM     22  C   UNL     1       2.353   4.438  20.784  0.00  0.00    +0.000 C 
ATOM     23  C   UNL     1       3.274   5.349  19.968  0.00  0.00    +0.000 C 
ENDBRANCH  15  16
ENDBRANCH  14  15
ENDBRANCH   1  13
TORSDOF 4
ENDMDL
MODEL 3
REMARK VINA RESULT:      -7.8      1.067      2.367
REMARK  Name = 
REMARK  4 active torsions:
REMARK  status: ('A' for Active; 'I' for Inactive)
REMARK    1  A    between atoms: C_11  and  C_12
REMARK    2  A    between atoms: C_12  and  C_13
REMARK    3  A    between atoms: C_14  and  C_15
REMARK    4  A    between atoms: C_15  and  N_16
REMARK                            x       y       z     vdW  Elec       q    Type
REMARK                         _______ _______ _______ _____ _____    ______ ____
ROOT
ATOM      1  C   UNL     1       1.266   9.000  18.165  0.00  0.00    +0.000 C 
ENDROOT
BRANCH   1  12
ATOM      2  O   UNL     1       1.490   7.918  21.042  0.00  0.00    +0.000 OA
ATOM      3  C   UNL     1       1.137   9.030  20.686  0.00  0.00    +0.000 C 
ATOM      4  C   UNL     1       0.220   9.881  21.445  0.00  0.00    +0.000 A 
ATOM      5  C   UNL     1      -0.392   9.621  22.657  0.00  0.00    +0.000 A 
ATOM      6  C   UNL     1      -1.212  10.619  23.193  0.00  0.00    +0.000 A 
ATOM      7  C   UNL     1      -1.405  11.837  22.512  0.00  0.00    +0.000 A 
ATOM      8  C   UNL     1      -0.788  12.075  21.280  0.00  0.00    +0.000 A 
ATOM      9  C   UNL     1       0.024  11.078  20.770  0.00  0.00    +0.000 A 
ATOM     10  C   UNL     1       0.790  11.076  19.523  0.00  0.00    +0.000 C 
ATOM     11  O   UNL     1       0.791  11.987  18.719  0.00  0.00    +0.000 OA
ATOM     12  C   UNL     1       1.566   9.774  19.438  0.00  0.00    +0.000 C 
ENDBRANCH   1  12
BRANCH   1  13
ATOM     13  C   UNL     1       2.153   7.840  18.007  0.00  0.00    +0.000 C 
ATOM     14  C   UNL     1       2.919   6.791  17.900  0.00  0.00    +0.000 C 
BRANCH  14  15
ATOM     15  C   UNL     1       3.812   5.566  17.777  0.00  0.00    +0.000 C 
BRANCH  15  16
ATOM     16  N   UNL     1       3.176   4.377  18.357  0.00  0.00    +0.000 NA
ATOM     17  C   UNL     1       1.876   4.092  17.736  0.00  0.00    +0.000 C 
ATOM     18  C   UNL     1       0.921   3.264  18.605  0.00  0.00    +0.000 C 
ATOM     19  C   UNL     1       0.947   3.643  20.088  0.00  0.00    +0.000 C 
ATOM     20  C   UNL     1       1.780   2.700  20.963  0.00  0.00    +0.000 C 
ATOM     21  C   UNL     1       3.296   2.707  20.745  0.00  0.00    +0.000 C 
ATOM     22  C   UNL     1       3.742   2.150  19.388  0.00  0.00    +0.000 C 
ATOM     23  C   UNL     1       4.091   3.232  18.362  0.00  0.00    +0.000 C 
ENDBRANCH  15  16
ENDBRANCH  14  15
ENDBRANCH   1  13
TORSDOF 4
ENDMDL
MODEL 4
REMARK VINA RESULT:      -7.7      0.836      1.434
REMARK  Name = 
REMARK  4 active torsions:
REMARK  status: ('A' for Active; 'I' for Inactive)
REMARK    1  A    between atoms: C_11  and  C_12
REMARK    2  A    between atoms: C_12  and  C_13
REMARK    3  A    between atoms: C_14  and  C_15
REMARK    4  A    between atoms: C_15  and  N_16
REMARK                            x       y       z     vdW  Elec       q    Type
REMARK                         _______ _______ _______ _____ _____    ______ ____
ROOT
ATOM      1  C   UNL     1       1.940   9.260  18.403  0.00  0.00    +0.000 C 
ENDROOT
BRANCH   1  12
ATOM      2  O   UNL     1      -0.708  10.768  17.938  0.00  0.00    +0.000 OA
ATOM      3  C   UNL     1      -0.303  10.267  18.974  0.00  0.00    +0.000 C 
ATOM      4  C   UNL     1      -0.667  10.741  20.310  0.00  0.00    +0.000 A 
ATOM      5  C   UNL     1      -1.504  11.787  20.653  0.00  0.00    +0.000 A 
ATOM      6  C   UNL     1      -1.714  12.024  22.015  0.00  0.00    +0.000 A 
ATOM      7  C   UNL     1      -1.086  11.226  22.991  0.00  0.00    +0.000 A 
ATOM      8  C   UNL     1      -0.231  10.182  22.623  0.00  0.00    +0.000 A 
ATOM      9  C   UNL     1      -0.042   9.960  21.271  0.00  0.00    +0.000 A 
ATOM     10  C   UNL     1       0.779   8.936  20.622  0.00  0.00    +0.000 C 
ATOM     11  O   UNL     1       1.457   8.124  21.219  0.00  0.00    +0.000 OA
ATOM     12  C   UNL     1       0.614   9.070  19.119  0.00  0.00    +0.000 C 
ENDBRANCH   1  12
BRANCH   1  13
ATOM     13  C   UNL     1       2.623   7.981  18.165  0.00  0.00    +0.000 C 
ATOM     14  C   UNL     1       3.214   6.847  17.912  0.00  0.00    +0.000 C 
BRANCH  14  15
ATOM     15  C   UNL     1       3.902   5.524  17.616  0.00  0.00    +0.000 C 
BRANCH  15  16
ATOM     16  N   UNL     1       3.195   4.400  18.243  0.00  0.00    +0.000 NA
ATOM     17  C   UNL     1       1.828   4.253  17.725  0.00  0.00    +0.000 C 
ATOM     18  C   UNL     1       0.865   3.518  18.665  0.00  0.00    +0.000 C 
ATOM     19  C   UNL     1       1.044   3.878  20.142  0.00  0.00    +0.000 C 
ATOM     20  C   UNL     1       1.843   2.847  20.947  0.00  0.00    +0.000 C 
ATOM     21  C   UNL     1       3.330   2.703  20.611  0.00  0.00    +0.000 C 
ATOM     22  C   UNL     1       3.611   2.117  19.223  0.00  0.00    +0.000 C 
ATOM     23  C   UNL     1       3.987   3.167  18.174  0.00  0.00    +0.000 C 
ENDBRANCH  15  16
ENDBRANCH  14  15
ENDBRANCH   1  13
TORSDOF 4
ENDMDL
MODEL 5
REMARK VINA RESULT:      -7.6      6.302      9.758
REMARK  Name = 
REMARK  4 active torsions:
REMARK  status: ('A' for Active; 'I' for Inactive)
REMARK    1  A    between atoms: C_11  and  C_12
REMARK    2  A    between atoms: C_12  and  C_13
REMARK    3  A    between atoms: C_14  and  C_15
REMARK    4  A    between atoms: C_15  and  N_16
REMARK                            x       y       z     vdW  Elec       q    Type
REMARK                         _______ _______ _______ _____ _____    ______ ____
ROOT
ATOM      1  C   UNL     1       7.385   6.982  17.350  0.00  0.00    +0.000 C 
ENDROOT
BRANCH   1  12
ATOM      2  O   UNL     1       6.826   5.441  19.960  0.00  0.00    +0.000 OA
ATOM      3  C   UNL     1       6.113   5.527  18.975  0.00  0.00    +0.000 C 
ATOM      4  C   UNL     1       5.147   4.505  18.569  0.00  0.00    +0.000 A 
ATOM      5  C   UNL     1       4.853   3.305  19.189  0.00  0.00    +0.000 A 
ATOM      6  C   UNL     1       3.860   2.508  18.612  0.00  0.00    +0.000 A 
ATOM      7  C   UNL     1       3.195   2.919  17.441  0.00  0.00    +0.000 A 
ATOM      8  C   UNL     1       3.517   4.130  16.821  0.00  0.00    +0.000 A 
ATOM      9  C   UNL     1       4.498   4.907  17.410  0.00  0.00    +0.000 A 
ATOM     10  C   UNL     1       5.009   6.210  16.981  0.00  0.00    +0.000 C 
ATOM     11  O   UNL     1       4.637   6.795  15.983  0.00  0.00    +0.000 OA
ATOM     12  C   UNL     1       6.042   6.677  17.991  0.00  0.00    +0.000 C 
ENDBRANCH   1  12
BRANCH   1  13
ATOM     13  C   UNL     1       8.086   8.073  18.040  0.00  0.00    +0.000 C 
ATOM     14  C   UNL     1       8.693   9.069  18.621  0.00  0.00    +0.000 C 
BRANCH  14  15
ATOM     15  C   UNL     1       9.403  10.232  19.298  0.00  0.00    +0.000 C 
BRANCH  15  16
ATOM     16  N   UNL     1       9.388  11.434  18.454  0.00  0.00    +0.000 NA
ATOM     17  C   UNL     1      10.609  11.554  17.647  0.00  0.00    +0.000 C 
ATOM     18  C   UNL     1      10.935  12.981  17.190  0.00  0.00    +0.000 C 
ATOM     19  C   UNL     1      10.661  14.050  18.251  0.00  0.00    +0.000 C 
ATOM     20  C   UNL     1       9.344  14.809  18.052  0.00  0.00    +0.000 C 
ATOM     21  C   UNL     1       8.048  14.016  18.250  0.00  0.00    +0.000 C 
ATOM     22  C   UNL     1       7.803  12.932  17.195  0.00  0.00    +0.000 C 
ATOM     23  C   UNL     1       8.152  11.519  17.669  0.00  0.00    +0.000 C 
ENDBRANCH  15  16
ENDBRANCH  14  15
ENDBRANCH   1  13
TORSDOF 4
ENDMDL
MODEL 6
REMARK VINA RESULT:      -7.6      7.130      8.593
REMARK  Name = 
REMARK  4 active torsions:
REMARK  status: ('A' for Active; 'I' for Inactive)
REMARK    1  A    between atoms: C_11  and  C_12
REMARK    2  A    between atoms: C_12  and  C_13
REMARK    3  A    between atoms: C_14  and  C_15
REMARK    4  A    between atoms: C_15  and  N_16
REMARK                            x       y       z     vdW  Elec       q    Type
REMARK                         _______ _______ _______ _____ _____    ______ ____
ROOT
ATOM      1  C   UNL     1       8.712  10.496  18.034  0.00  0.00    +0.000 C 
ENDROOT
BRANCH   1  12
ATOM      2  O   UNL     1       8.957  10.772  21.094  0.00  0.00    +0.000 OA
ATOM      3  C   UNL     1       9.540  11.413  20.236  0.00  0.00    +0.000 C 
ATOM      4  C   UNL     1      10.018  12.784  20.419  0.00  0.00    +0.000 A 
ATOM      5  C   UNL     1       9.922  13.586  21.542  0.00  0.00    +0.000 A 
ATOM      6  C   UNL     1      10.489  14.862  21.472  0.00  0.00    +0.000 A 
ATOM      7  C   UNL     1      11.125  15.306  20.296  0.00  0.00    +0.000 A 
ATOM      8  C   UNL     1      11.199  14.485  19.166  0.00  0.00    +0.000 A 
ATOM      9  C   UNL     1      10.637  13.224  19.258  0.00  0.00    +0.000 A 
ATOM     10  C   UNL     1      10.590  12.172  18.241  0.00  0.00    +0.000 C 
ATOM     11  O   UNL     1      11.036  12.287  17.116  0.00  0.00    +0.000 OA
ATOM     12  C   UNL     1       9.915  10.952  18.842  0.00  0.00    +0.000 C 
ENDBRANCH   1  12
BRANCH   1  13
ATOM     13  C   UNL     1       8.425   9.069  18.237  0.00  0.00    +0.000 C 
ATOM     14  C   UNL     1       8.206   7.794  18.391  0.00  0.00    +0.000 C 
BRANCH  14  15
ATOM     15  C   UNL     1       7.951   6.305  18.569  0.00  0.00    +0.000 C 
BRANCH  15  16
ATOM     16  N   UNL     1       6.591   5.940  18.153  0.00  0.00    +0.000 NA
ATOM     17  C   UNL     1       6.342   6.265  16.742  0.00  0.00    +0.000 C 
ATOM     18  C   UNL     1       4.863   6.447  16.380  0.00  0.00    +0.000 C 
ATOM     19  C   UNL     1       4.050   7.185  17.446  0.00  0.00    +0.000 C 
ATOM     20  C   UNL     1       3.213   6.267  18.345  0.00  0.00    +0.000 C 
ATOM     21  C   UNL     1       3.977   5.346  19.300  0.00  0.00    +0.000 C 
ATOM     22  C   UNL     1       4.785   4.244  18.606  0.00  0.00    +0.000 C 
ATOM     23  C   UNL     1       6.282   4.550  18.502  0.00  0.00    +0.000 C 
ENDBRANCH  15  16
ENDBRANCH  14  15
ENDBRANCH   1  13
TORSDOF 4
ENDMDL
MODEL 7
REMARK VINA RESULT:      -7.5      7.174      8.686
REMARK  Name = 
REMARK  4 active torsions:
REMARK  status: ('A' for Active; 'I' for Inactive)
REMARK    1  A    between atoms: C_11  and  C_12
REMARK    2  A    between atoms: C_12  and  C_13
REMARK    3  A    between atoms: C_14  and  C_15
REMARK    4  A    between atoms: C_15  and  N_16
REMARK                            x       y       z     vdW  Elec       q    Type
REMARK                         _______ _______ _______ _____ _____    ______ ____
ROOT
ATOM      1  C   UNL     1       8.802  10.452  18.076  0.00  0.00    +0.000 C 
ENDROOT
BRANCH   1  12
ATOM      2  O   UNL     1       8.880  10.781  21.139  0.00  0.00    +0.000 OA
ATOM      3  C   UNL     1       9.520  11.397  20.304  0.00  0.00    +0.000 C 
ATOM      4  C   UNL     1      10.009  12.763  20.490  0.00  0.00    +0.000 A 
ATOM      5  C   UNL     1       9.863  13.587  21.591  0.00  0.00    +0.000 A 
ATOM      6  C   UNL     1      10.453  14.853  21.531  0.00  0.00    +0.000 A 
ATOM      7  C   UNL     1      11.160  15.267  20.386  0.00  0.00    +0.000 A 
ATOM      8  C   UNL     1      11.284  14.424  19.276  0.00  0.00    +0.000 A 
ATOM      9  C   UNL     1      10.699  13.173  19.358  0.00  0.00    +0.000 A 
ATOM     10  C   UNL     1      10.692  12.104  18.358  0.00  0.00    +0.000 C 
ATOM     11  O   UNL     1      11.202  12.192  17.259  0.00  0.00    +0.000 OA
ATOM     12  C   UNL     1       9.965  10.906  18.942  0.00  0.00    +0.000 C 
ENDBRANCH   1  12
BRANCH   1  13
ATOM     13  C   UNL     1       8.481   9.034  18.288  0.00  0.00    +0.000 C 
ATOM     14  C   UNL     1       8.188   7.772  18.433  0.00  0.00    +0.000 C 
BRANCH  14  15
ATOM     15  C   UNL     1       7.844   6.301  18.601  0.00  0.00    +0.000 C 
BRANCH  15  16
ATOM     16  N   UNL     1       6.678   5.926  17.791  0.00  0.00    +0.000 NA
ATOM     17  C   UNL     1       6.027   7.098  17.190  0.00  0.00    +0.000 C 
ATOM     18  C   UNL     1       4.554   6.890  16.820  0.00  0.00    +0.000 C 
ATOM     19  C   UNL     1       3.766   6.071  17.846  0.00  0.00    +0.000 C 
ATOM     20  C   UNL     1       3.566   4.602  17.457  0.00  0.00    +0.000 C 
ATOM     21  C   UNL     1       4.813   3.714  17.431  0.00  0.00    +0.000 C 
ATOM     22  C   UNL     1       5.817   4.066  16.328  0.00  0.00    +0.000 C 
ATOM     23  C   UNL     1       7.016   4.879  16.822  0.00  0.00    +0.000 C 
ENDBRANCH  15  16
ENDBRANCH  14  15
ENDBRANCH   1  13
TORSDOF 4
ENDMDL
MODEL 8
REMARK VINA RESULT:      -7.5      0.842      1.554
REMARK  Name = 
REMARK  4 active torsions:
REMARK  status: ('A' for Active; 'I' for Inactive)
REMARK    1  A    between atoms: C_11  and  C_12
REMARK    2  A    between atoms: C_12  and  C_13
REMARK    3  A    between atoms: C_14  and  C_15
REMARK    4  A    between atoms: C_15  and  N_16
REMARK                            x       y       z     vdW  Elec       q    Type
REMARK                         _______ _______ _______ _____ _____    ______ ____
ROOT
ATOM      1  C   UNL     1       1.658   9.876  18.276  0.00  0.00    +0.000 C 
ENDROOT
BRANCH   1  12
ATOM      2  O   UNL     1      -1.032  11.352  17.982  0.00  0.00    +0.000 OA
ATOM      3  C   UNL     1      -0.596  10.780  18.968  0.00  0.00    +0.000 C 
ATOM      4  C   UNL     1      -0.943  11.137  20.343  0.00  0.00    +0.000 A 
ATOM      5  C   UNL     1      -1.797  12.132  20.785  0.00  0.00    +0.000 A 
ATOM      6  C   UNL     1      -1.984  12.254  22.165  0.00  0.00    +0.000 A 
ATOM      7  C   UNL     1      -1.318  11.396  23.063  0.00  0.00    +0.000 A 
ATOM      8  C   UNL     1      -0.448  10.406  22.596  0.00  0.00    +0.000 A 
ATOM      9  C   UNL     1      -0.281  10.297  21.227  0.00  0.00    +0.000 A 
ATOM     10  C   UNL     1       0.549   9.348  20.483  0.00  0.00    +0.000 C 
ATOM     11  O   UNL     1       1.258   8.508  21.000  0.00  0.00    +0.000 OA
ATOM     12  C   UNL     1       0.351   9.598  18.999  0.00  0.00    +0.000 C 
ENDBRANCH   1  12
BRANCH   1  13
ATOM     13  C   UNL     1       2.413   8.644  18.016  0.00  0.00    +0.000 C 
ATOM     14  C   UNL     1       3.121   7.571  17.799  0.00  0.00    +0.000 C 
BRANCH  14  15
ATOM     15  C   UNL     1       3.947   6.320  17.545  0.00  0.00    +0.000 C 
BRANCH  15  16
ATOM     16  N   UNL     1       3.364   5.147  18.208  0.00  0.00    +0.000 NA
ATOM     17  C   UNL     1       3.589   5.169  19.660  0.00  0.00    +0.000 C 
ATOM     18  C   UNL     1       3.529   3.794  20.336  0.00  0.00    +0.000 C 
ATOM     19  C   UNL     1       4.179   2.673  19.520  0.00  0.00    +0.000 C 
ATOM     20  C   UNL     1       3.183   1.797  18.753  0.00  0.00    +0.000 C 
ATOM     21  C   UNL     1       2.428   2.455  17.594  0.00  0.00    +0.000 C 
ATOM     22  C   UNL     1       1.434   3.540  18.021  0.00  0.00    +0.000 C 
ATOM     23  C   UNL     1       1.958   4.966  17.832  0.00  0.00    +0.000 C 
ENDBRANCH  15  16
ENDBRANCH  14  15
ENDBRANCH   1  13
TORSDOF 4
ENDMDL
MODEL 9
REMARK VINA RESULT:      -7.4      1.717      2.564
REMARK  Name = 
REMARK  4 active torsions:
REMARK  status: ('A' for Active; 'I' for Inactive)
REMARK    1  A    between atoms: C_11  and  C_12
REMARK    2  A    between atoms: C_12  and  C_13
REMARK    3  A    between atoms: C_14  and  C_15
REMARK    4  A    between atoms: C_15  and  N_16
REMARK                            x       y       z     vdW  Elec       q    Type
REMARK                         _______ _______ _______ _____ _____    ______ ____
ROOT
ATOM      1  C   UNL     1       1.332   9.191  17.874  0.00  0.00    +0.000 C 
ENDROOT
BRANCH   1  12
ATOM      2  O   UNL     1      -0.530   9.480  20.312  0.00  0.00    +0.000 OA
ATOM      3  C   UNL     1       0.117  10.352  19.758  0.00  0.00    +0.000 C 
ATOM      4  C   UNL     1      -0.261  11.765  19.734  0.00  0.00    +0.000 A 
ATOM      5  C   UNL     1      -1.363  12.370  20.311  0.00  0.00    +0.000 A 
ATOM      6  C   UNL     1      -1.486  13.756  20.167  0.00  0.00    +0.000 A 
ATOM      7  C   UNL     1      -0.523  14.495  19.454  0.00  0.00    +0.000 A 
ATOM      8  C   UNL     1       0.577  13.862  18.866  0.00  0.00    +0.000 A 
ATOM      9  C   UNL     1       0.684  12.492  19.025  0.00  0.00    +0.000 A 
ATOM     10  C   UNL     1       1.731  11.597  18.531  0.00  0.00    +0.000 C 
ATOM     11  O   UNL     1       2.677  11.956  17.858  0.00  0.00    +0.000 OA
ATOM     12  C   UNL     1       1.428  10.190  19.014  0.00  0.00    +0.000 C 
ENDBRANCH   1  12
BRANCH   1  13
ATOM     13  C   UNL     1       2.237   8.050  18.068  0.00  0.00    +0.000 C 
ATOM     14  C   UNL     1       3.073   7.066  18.244  0.00  0.00    +0.000 C 
BRANCH  14  15
ATOM     15  C   UNL     1       4.050   5.918  18.447  0.00  0.00    +0.000 C 
BRANCH  15  16
ATOM     16  N   UNL     1       3.355   4.682  18.828  0.00  0.00    +0.000 NA
ATOM     17  C   UNL     1       2.309   4.322  17.862  0.00  0.00    +0.000 C 
ATOM     18  C   UNL     1       1.202   3.421  18.425  0.00  0.00    +0.000 C 
ATOM     19  C   UNL     1       0.777   3.781  19.852  0.00  0.00    +0.000 C 
ATOM     20  C   UNL     1       1.386   2.882  20.933  0.00  0.00    +0.000 C 
ATOM     21  C   UNL     1       2.897   2.991  21.158  0.00  0.00    +0.000 C 
ATOM     22  C   UNL     1       3.749   2.483  19.990  0.00  0.00    +0.000 C 
ATOM     23  C   UNL     1       4.304   3.599  19.101  0.00  0.00    +0.000 C 
ENDBRANCH  15  16
ENDBRANCH  14  15
ENDBRANCH   1  13
TORSDOF 4
ENDMDL
