MODEL 1
REMARK VINA RESULT:      -6.9      0.000      0.000
REMARK  Name = 
REMARK  5 active torsions:
REMARK  status: ('A' for Active; 'I' for Inactive)
REMARK    1  A    between atoms: N_2  and  C_3
REMARK    2  A    between atoms: N_5  and  C_6
REMARK    3  A    between atoms: C_9  and  C_10
REMARK    4  A    between atoms: C_10  and  O_12
REMARK    5  A    between atoms: C_13  and  O_14
REMARK                            x       y       z     vdW  Elec       q    Type
REMARK                         _______ _______ _______ _____ _____    ______ ____
ROOT
ATOM      1  C   UNL     1       2.345   7.131  18.824  0.00  0.00    +0.000 A 
ATOM      2  C   UNL     1       2.013   7.133  20.184  0.00  0.00    +0.000 A 
ATOM      3  C   UNL     1       1.408   8.258  20.758  0.00  0.00    +0.000 A 
ATOM      4  C   UNL     1       1.094   9.378  19.978  0.00  0.00    +0.000 A 
ATOM      5  C   UNL     1       1.412   9.352  18.615  0.00  0.00    +0.000 A 
ATOM      6  C   UNL     1       2.075   8.261  18.042  0.00  0.00    +0.000 A 
ENDROOT
BRANCH   1   9
ATOM      7  C   UNL     1       4.318   4.651  17.044  0.00  0.00    +0.000 A 
ATOM      8  C   UNL     1       4.019   5.951  17.383  0.00  0.00    +0.000 A 
ATOM      9  N   UNL     1       2.931   5.976  18.239  0.00  0.00    +0.000 N 
ATOM     10  C   UNL     1       2.498   4.654  18.372  0.00  0.00    +0.000 A 
ATOM     11  C   UNL     1       1.410   3.944  18.967  0.00  0.00    +0.000 A 
ATOM     12  C   UNL     1       1.508   2.597  18.692  0.00  0.00    +0.000 A 
ATOM     13  S   UNL     1       2.883   2.168  17.758  0.00  0.00    +0.000 S 
ATOM     14  C   UNL     1       3.336   3.836  17.659  0.00  0.00    +0.000 A 
BRANCH   7  16
ATOM     15  C   UNL     1       6.279   3.850  15.545  0.00  0.00    +0.000 C 
ATOM     16  N   UNL     1       5.396   4.207  16.222  0.00  0.00    +0.000 NA
ENDBRANCH   7  16
ENDBRANCH   1   9
BRANCH   4  17
ATOM     17  C   UNL     1       0.410  10.518  20.652  0.00  0.00    +0.000 C 
ATOM     18  O   UNL     1       0.907  11.112  21.595  0.00  0.00    +0.000 OA
BRANCH  17  19
ATOM     19  O   UNL     1      -0.805  10.830  20.155  0.00  0.00    +0.000 OA
ATOM     20  H   UNL     1      -0.770  11.344  19.321  0.00  0.00    +0.000 HD
ENDBRANCH  17  19
ENDBRANCH   4  17
BRANCH   5  21
ATOM     21  O   UNL     1       1.055  10.381  17.784  0.00  0.00    +0.000 OA
ATOM     22  H   UNL     1       0.085  10.486  17.881  0.00  0.00    +0.000 HD
ENDBRANCH   5  21
TORSDOF 5
ENDMDL
MODEL 2
REMARK VINA RESULT:      -6.8      4.091      6.703
REMARK  Name = 
REMARK  5 active torsions:
REMARK  status: ('A' for Active; 'I' for Inactive)
REMARK    1  A    between atoms: N_2  and  C_3
REMARK    2  A    between atoms: N_5  and  C_6
REMARK    3  A    between atoms: C_9  and  C_10
REMARK    4  A    between atoms: C_10  and  O_12
REMARK    5  A    between atoms: C_13  and  O_14
REMARK                            x       y       z     vdW  Elec       q    Type
REMARK                         _______ _______ _______ _____ _____    ______ ____
ROOT
ATOM      1  C   UNL     1       4.505   5.293  17.447  0.00  0.00    +0.000 A 
ATOM      2  C   UNL     1       4.224   4.353  16.450  0.00  0.00    +0.000 A 
ATOM      3  C   UNL     1       5.080   4.216  15.351  0.00  0.00    +0.000 A 
ATOM      4  C   UNL     1       6.245   4.988  15.251  0.00  0.00    +0.000 A 
ATOM      5  C   UNL     1       6.523   5.909  16.266  0.00  0.00    +0.000 A 
ATOM      6  C   UNL     1       5.643   6.101  17.337  0.00  0.00    +0.000 A 
ENDROOT
BRANCH   1   9
ATOM      7  C   UNL     1       2.256   6.281  20.127  0.00  0.00    +0.000 A 
ATOM      8  C   UNL     1       3.030   6.562  19.024  0.00  0.00    +0.000 A 
ATOM      9  N   UNL     1       3.649   5.407  18.576  0.00  0.00    +0.000 N 
ATOM     10  C   UNL     1       3.307   4.396  19.477  0.00  0.00    +0.000 A 
ATOM     11  C   UNL     1       3.647   3.031  19.726  0.00  0.00    +0.000 A 
ATOM     12  C   UNL     1       2.992   2.570  20.848  0.00  0.00    +0.000 A 
ATOM     13  S   UNL     1       1.967   3.730  21.591  0.00  0.00    +0.000 S 
ATOM     14  C   UNL     1       2.454   4.909  20.420  0.00  0.00    +0.000 A 
BRANCH   7  16
ATOM     15  C   UNL     1       0.752   7.944  21.433  0.00  0.00    +0.000 C 
ATOM     16  N   UNL     1       1.428   7.192  20.846  0.00  0.00    +0.000 NA
ENDBRANCH   7  16
ENDBRANCH   1   9
BRANCH   4  17
ATOM     17  C   UNL     1       7.128   4.753  14.074  0.00  0.00    +0.000 C 
ATOM     18  O   UNL     1       8.047   5.504  13.785  0.00  0.00    +0.000 OA
BRANCH  17  19
ATOM     19  O   UNL     1       6.825   3.662  13.340  0.00  0.00    +0.000 OA
ATOM     20  H   UNL     1       7.444   2.912  13.474  0.00  0.00    +0.000 HD
ENDBRANCH  17  19
ENDBRANCH   4  17
BRANCH   5  21
ATOM     21  O   UNL     1       7.687   6.633  16.268  0.00  0.00    +0.000 OA
ATOM     22  H   UNL     1       7.620   7.258  15.515  0.00  0.00    +0.000 HD
ENDBRANCH   5  21
TORSDOF 5
ENDMDL
MODEL 3
REMARK VINA RESULT:      -6.8      4.523      7.185
REMARK  Name = 
REMARK  5 active torsions:
REMARK  status: ('A' for Active; 'I' for Inactive)
REMARK    1  A    between atoms: N_2  and  C_3
REMARK    2  A    between atoms: N_5  and  C_6
REMARK    3  A    between atoms: C_9  and  C_10
REMARK    4  A    between atoms: C_10  and  O_12
REMARK    5  A    between atoms: C_13  and  O_14
REMARK                            x       y       z     vdW  Elec       q    Type
REMARK                         _______ _______ _______ _____ _____    ______ ____
ROOT
ATOM      1  C   UNL     1       2.405   5.804  19.953  0.00  0.00    +0.000 A 
ATOM      2  C   UNL     1       1.640   4.638  20.077  0.00  0.00    +0.000 A 
ATOM      3  C   UNL     1       2.220   3.387  19.837  0.00  0.00    +0.000 A 
ATOM      4  C   UNL     1       3.577   3.280  19.507  0.00  0.00    +0.000 A 
ATOM      5  C   UNL     1       4.335   4.452  19.407  0.00  0.00    +0.000 A 
ATOM      6  C   UNL     1       3.752   5.713  19.581  0.00  0.00    +0.000 A 
ENDROOT
BRANCH   1   9
ATOM      7  C   UNL     1       0.713   8.733  21.285  0.00  0.00    +0.000 A 
ATOM      8  C   UNL     1       1.100   7.413  21.359  0.00  0.00    +0.000 A 
ATOM      9  N   UNL     1       1.819   7.069  20.227  0.00  0.00    +0.000 N 
ATOM     10  C   UNL     1       1.809   8.190  19.392  0.00  0.00    +0.000 A 
ATOM     11  C   UNL     1       2.219   8.535  18.068  0.00  0.00    +0.000 A 
ATOM     12  C   UNL     1       1.869   9.837  17.781  0.00  0.00    +0.000 A 
ATOM     13  S   UNL     1       1.081  10.654  19.069  0.00  0.00    +0.000 S 
ATOM     14  C   UNL     1       1.149   9.211  20.024  0.00  0.00    +0.000 A 
BRANCH   7  16
ATOM     15  C   UNL     1      -0.585  10.073  23.088  0.00  0.00    +0.000 C 
ATOM     16  N   UNL     1      -0.000   9.472  22.273  0.00  0.00    +0.000 NA
ENDBRANCH   7  16
ENDBRANCH   1   9
BRANCH   4  17
ATOM     17  C   UNL     1       4.133   1.911  19.310  0.00  0.00    +0.000 C 
ATOM     18  O   UNL     1       3.684   1.136  18.481  0.00  0.00    +0.000 OA
BRANCH  17  19
ATOM     19  O   UNL     1       5.155   1.585  20.129  0.00  0.00    +0.000 OA
ATOM     20  H   UNL     1       5.629   2.362  20.496  0.00  0.00    +0.000 HD
ENDBRANCH  17  19
ENDBRANCH   4  17
BRANCH   5  21
ATOM     21  O   UNL     1       5.683   4.408  19.170  0.00  0.00    +0.000 OA
ATOM     22  H   UNL     1       5.837   3.613  18.616  0.00  0.00    +0.000 HD
ENDBRANCH   5  21
TORSDOF 5
ENDMDL
MODEL 4
REMARK VINA RESULT:      -6.7      0.662      1.673
REMARK  Name = 
REMARK  5 active torsions:
REMARK  status: ('A' for Active; 'I' for Inactive)
REMARK    1  A    between atoms: N_2  and  C_3
REMARK    2  A    between atoms: N_5  and  C_6
REMARK    3  A    between atoms: C_9  and  C_10
REMARK    4  A    between atoms: C_10  and  O_12
REMARK    5  A    between atoms: C_13  and  O_14
REMARK                            x       y       z     vdW  Elec       q    Type
REMARK                         _______ _______ _______ _____ _____    ______ ____
ROOT
ATOM      1  C   UNL     1       2.322   7.213  18.714  0.00  0.00    +0.000 A 
ATOM      2  C   UNL     1       1.959   8.282  17.887  0.00  0.00    +0.000 A 
ATOM      3  C   UNL     1       1.357   9.421  18.434  0.00  0.00    +0.000 A 
ATOM      4  C   UNL     1       1.143   9.524  19.814  0.00  0.00    +0.000 A 
ATOM      5  C   UNL     1       1.531   8.457  20.631  0.00  0.00    +0.000 A 
ATOM      6  C   UNL     1       2.075   7.286  20.090  0.00  0.00    +0.000 A 
ENDROOT
BRANCH   1   9
ATOM      7  C   UNL     1       4.432   4.777  17.031  0.00  0.00    +0.000 A 
ATOM      8  C   UNL     1       4.088   6.071  17.355  0.00  0.00    +0.000 A 
ATOM      9  N   UNL     1       2.960   6.071  18.158  0.00  0.00    +0.000 N 
ATOM     10  C   UNL     1       2.550   4.740  18.270  0.00  0.00    +0.000 A 
ATOM     11  C   UNL     1       1.451   4.007  18.813  0.00  0.00    +0.000 A 
ATOM     12  C   UNL     1       1.591   2.662  18.544  0.00  0.00    +0.000 A 
ATOM     13  S   UNL     1       3.018   2.264  17.677  0.00  0.00    +0.000 S 
ATOM     14  C   UNL     1       3.438   3.941  17.599  0.00  0.00    +0.000 A 
BRANCH   7  16
ATOM     15  C   UNL     1       6.474   4.012  15.625  0.00  0.00    +0.000 C 
ATOM     16  N   UNL     1       5.556   4.357  16.262  0.00  0.00    +0.000 NA
ENDBRANCH   7  16
ENDBRANCH   1   9
BRANCH   4  17
ATOM     17  C   UNL     1       0.537  10.787  20.325  0.00  0.00    +0.000 C 
ATOM     18  O   UNL     1      -0.473  11.270  19.842  0.00  0.00    +0.000 OA
BRANCH  17  19
ATOM     19  O   UNL     1       1.201  11.365  21.349  0.00  0.00    +0.000 OA
ATOM     20  H   UNL     1       1.302  12.337  21.254  0.00  0.00    +0.000 HD
ENDBRANCH  17  19
ENDBRANCH   4  17
BRANCH   5  21
ATOM     21  O   UNL     1       1.425   8.532  21.995  0.00  0.00    +0.000 OA
ATOM     22  H   UNL     1       1.908   7.756  22.350  0.00  0.00    +0.000 HD
ENDBRANCH   5  21
TORSDOF 5
ENDMDL
MODEL 5
REMARK VINA RESULT:      -6.6      4.558      7.264
REMARK  Name = 
REMARK  5 active torsions:
REMARK  status: ('A' for Active; 'I' for Inactive)
REMARK    1  A    between atoms: N_2  and  C_3
REMARK    2  A    between atoms: N_5  and  C_6
REMARK    3  A    between atoms: C_9  and  C_10
REMARK    4  A    between atoms: C_10  and  O_12
REMARK    5  A    between atoms: C_13  and  O_14
REMARK                            x       y       z     vdW  Elec       q    Type
REMARK                         _______ _______ _______ _____ _____    ______ ____
ROOT
ATOM      1  C   UNL     1       2.250   5.965  20.134  0.00  0.00    +0.000 A 
ATOM      2  C   UNL     1       3.519   5.848  19.556  0.00  0.00    +0.000 A 
ATOM      3  C   UNL     1       4.072   4.583  19.324  0.00  0.00    +0.000 A 
ATOM      4  C   UNL     1       3.354   3.421  19.632  0.00  0.00    +0.000 A 
ATOM      5  C   UNL     1       2.078   3.554  20.190  0.00  0.00    +0.000 A 
ATOM      6  C   UNL     1       1.539   4.811  20.486  0.00  0.00    +0.000 A 
ENDROOT
BRANCH   1   9
ATOM      7  C   UNL     1       0.582   8.978  21.299  0.00  0.00    +0.000 A 
ATOM      8  C   UNL     1       0.946   7.658  21.440  0.00  0.00    +0.000 A 
ATOM      9  N   UNL     1       1.680   7.251  20.339  0.00  0.00    +0.000 N 
ATOM     10  C   UNL     1       1.703   8.332  19.454  0.00  0.00    +0.000 A 
ATOM     11  C   UNL     1       2.143   8.610  18.123  0.00  0.00    +0.000 A 
ATOM     12  C   UNL     1       1.820   9.903  17.771  0.00  0.00    +0.000 A 
ATOM     13  S   UNL     1       1.021  10.790  19.005  0.00  0.00    +0.000 S 
ATOM     14  C   UNL     1       1.049   9.391  20.026  0.00  0.00    +0.000 A 
BRANCH   7  16
ATOM     15  C   UNL     1      -0.730  10.419  23.012  0.00  0.00    +0.000 C 
ATOM     16  N   UNL     1      -0.137   9.773  22.239  0.00  0.00    +0.000 NA
ENDBRANCH   7  16
ENDBRANCH   1   9
BRANCH   4  17
ATOM     17  C   UNL     1       3.992   2.112  19.316  0.00  0.00    +0.000 C 
ATOM     18  O   UNL     1       3.506   1.322  18.523  0.00  0.00    +0.000 OA
BRANCH  17  19
ATOM     19  O   UNL     1       5.136   1.857  19.986  0.00  0.00    +0.000 OA
ATOM     20  H   UNL     1       5.595   1.043  19.687  0.00  0.00    +0.000 HD
ENDBRANCH  17  19
ENDBRANCH   4  17
BRANCH   5  21
ATOM     21  O   UNL     1       1.294   2.458  20.436  0.00  0.00    +0.000 OA
ATOM     22  H   UNL     1       0.863   2.234  19.584  0.00  0.00    +0.000 HD
ENDBRANCH   5  21
TORSDOF 5
ENDMDL
MODEL 6
REMARK VINA RESULT:      -6.5      4.104      6.842
REMARK  Name = 
REMARK  5 active torsions:
REMARK  status: ('A' for Active; 'I' for Inactive)
REMARK    1  A    between atoms: N_2  and  C_3
REMARK    2  A    between atoms: N_5  and  C_6
REMARK    3  A    between atoms: C_9  and  C_10
REMARK    4  A    between atoms: C_10  and  O_12
REMARK    5  A    between atoms: C_13  and  O_14
REMARK                            x       y       z     vdW  Elec       q    Type
REMARK                         _______ _______ _______ _____ _____    ______ ____
ROOT
ATOM      1  C   UNL     1       4.598   5.041  17.319  0.00  0.00    +0.000 A 
ATOM      2  C   UNL     1       4.389   4.178  16.237  0.00  0.00    +0.000 A 
ATOM      3  C   UNL     1       5.261   4.198  15.142  0.00  0.00    +0.000 A 
ATOM      4  C   UNL     1       6.373   5.049  15.129  0.00  0.00    +0.000 A 
ATOM      5  C   UNL     1       6.582   5.891  16.228  0.00  0.00    +0.000 A 
ATOM      6  C   UNL     1       5.682   5.927  17.299  0.00  0.00    +0.000 A 
ENDROOT
BRANCH   1   9
ATOM      7  C   UNL     1       2.542   4.220  20.201  0.00  0.00    +0.000 A 
ATOM      8  C   UNL     1       3.385   3.871  19.171  0.00  0.00    +0.000 A 
ATOM      9  N   UNL     1       3.727   4.997  18.440  0.00  0.00    +0.000 N 
ATOM     10  C   UNL     1       3.009   6.062  18.990  0.00  0.00    +0.000 A 
ATOM     11  C   UNL     1       2.764   7.440  18.706  0.00  0.00    +0.000 A 
ATOM     12  C   UNL     1       1.882   7.970  19.624  0.00  0.00    +0.000 A 
ATOM     13  S   UNL     1       1.363   6.858  20.824  0.00  0.00    +0.000 S 
ATOM     14  C   UNL     1       2.292   5.608  20.066  0.00  0.00    +0.000 A 
BRANCH   7  16
ATOM     15  C   UNL     1       1.569   2.639  22.015  0.00  0.00    +0.000 C 
ATOM     16  N   UNL     1       2.008   3.355  21.201  0.00  0.00    +0.000 NA
ENDBRANCH   7  16
ENDBRANCH   1   9
BRANCH   4  17
ATOM     17  C   UNL     1       7.281   4.980  13.949  0.00  0.00    +0.000 C 
ATOM     18  O   UNL     1       8.285   5.667  13.855  0.00  0.00    +0.000 OA
BRANCH  17  19
ATOM     19  O   UNL     1       6.899   4.116  12.984  0.00  0.00    +0.000 OA
ATOM     20  H   UNL     1       6.375   3.358  13.319  0.00  0.00    +0.000 HD
ENDBRANCH  17  19
ENDBRANCH   4  17
BRANCH   5  21
ATOM     21  O   UNL     1       7.695   6.685  16.311  0.00  0.00    +0.000 OA
ATOM     22  H   UNL     1       8.341   6.193  16.862  0.00  0.00    +0.000 HD
ENDBRANCH   5  21
TORSDOF 5
ENDMDL
MODEL 7
REMARK VINA RESULT:      -6.5      1.434      2.595
REMARK  Name = 
REMARK  5 active torsions:
REMARK  status: ('A' for Active; 'I' for Inactive)
REMARK    1  A    between atoms: N_2  and  C_3
REMARK    2  A    between atoms: N_5  and  C_6
REMARK    3  A    between atoms: C_9  and  C_10
REMARK    4  A    between atoms: C_10  and  O_12
REMARK    5  A    between atoms: C_13  and  O_14
REMARK                            x       y       z     vdW  Elec       q    Type
REMARK                         _______ _______ _______ _____ _____    ______ ____
ROOT
ATOM      1  C   UNL     1       2.343   7.210  18.978  0.00  0.00    +0.000 A 
ATOM      2  C   UNL     1       1.944   7.299  20.317  0.00  0.00    +0.000 A 
ATOM      3  C   UNL     1       1.299   8.450  20.783  0.00  0.00    +0.000 A 
ATOM      4  C   UNL     1       1.010   9.510  19.914  0.00  0.00    +0.000 A 
ATOM      5  C   UNL     1       1.397   9.398  18.574  0.00  0.00    +0.000 A 
ATOM      6  C   UNL     1       2.099   8.280  18.109  0.00  0.00    +0.000 A 
ENDROOT
BRANCH   1   9
ATOM      7  C   UNL     1       3.527   3.850  18.252  0.00  0.00    +0.000 A 
ATOM      8  C   UNL     1       2.766   4.742  18.975  0.00  0.00    +0.000 A 
ATOM      9  N   UNL     1       2.971   6.027  18.503  0.00  0.00    +0.000 N 
ATOM     10  C   UNL     1       3.948   5.935  17.508  0.00  0.00    +0.000 A 
ATOM     11  C   UNL     1       4.723   6.815  16.692  0.00  0.00    +0.000 A 
ATOM     12  C   UNL     1       5.602   6.096  15.910  0.00  0.00    +0.000 A 
ATOM     13  S   UNL     1       5.500   4.395  16.120  0.00  0.00    +0.000 S 
ATOM     14  C   UNL     1       4.289   4.619  17.338  0.00  0.00    +0.000 A 
BRANCH   7  16
ATOM     15  C   UNL     1       3.584   1.271  18.533  0.00  0.00    +0.000 C 
ATOM     16  N   UNL     1       3.558   2.433  18.402  0.00  0.00    +0.000 NA
ENDBRANCH   7  16
ENDBRANCH   1   9
BRANCH   4  17
ATOM     17  C   UNL     1       0.282  10.683  20.475  0.00  0.00    +0.000 C 
ATOM     18  O   UNL     1      -0.747  11.113  19.979  0.00  0.00    +0.000 OA
BRANCH  17  19
ATOM     19  O   UNL     1       0.854  11.246  21.561  0.00  0.00    +0.000 OA
ATOM     20  H   UNL     1       1.830  11.315  21.500  0.00  0.00    +0.000 HD
ENDBRANCH  17  19
ENDBRANCH   4  17
BRANCH   5  21
ATOM     21  O   UNL     1       1.070  10.364  17.659  0.00  0.00    +0.000 OA
ATOM     22  H   UNL     1       0.102  10.292  17.520  0.00  0.00    +0.000 HD
ENDBRANCH   5  21
TORSDOF 5
ENDMDL
MODEL 8
REMARK VINA RESULT:      -6.5      1.437      2.050
REMARK  Name = 
REMARK  5 active torsions:
REMARK  status: ('A' for Active; 'I' for Inactive)
REMARK    1  A    between atoms: N_2  and  C_3
REMARK    2  A    between atoms: N_5  and  C_6
REMARK    3  A    between atoms: C_9  and  C_10
REMARK    4  A    between atoms: C_10  and  O_12
REMARK    5  A    between atoms: C_13  and  O_14
REMARK                            x       y       z     vdW  Elec       q    Type
REMARK                         _______ _______ _______ _____ _____    ______ ____
ROOT
ATOM      1  C   UNL     1       2.415   7.517  18.969  0.00  0.00    +0.000 A 
ATOM      2  C   UNL     1       2.104   8.286  17.842  0.00  0.00    +0.000 A 
ATOM      3  C   UNL     1       1.236   9.379  17.954  0.00  0.00    +0.000 A 
ATOM      4  C   UNL     1       0.697   9.740  19.195  0.00  0.00    +0.000 A 
ATOM      5  C   UNL     1       1.033   8.974  20.317  0.00  0.00    +0.000 A 
ATOM      6  C   UNL     1       1.848   7.842  20.208  0.00  0.00    +0.000 A 
ENDROOT
BRANCH   1   9
ATOM      7  C   UNL     1       5.127   5.195  18.287  0.00  0.00    +0.000 A 
ATOM      8  C   UNL     1       4.504   6.414  18.139  0.00  0.00    +0.000 A 
ATOM      9  N   UNL     1       3.320   6.427  18.857  0.00  0.00    +0.000 N 
ATOM     10  C   UNL     1       3.168   5.149  19.401  0.00  0.00    +0.000 A 
ATOM     11  C   UNL     1       2.183   4.409  20.124  0.00  0.00    +0.000 A 
ATOM     12  C   UNL     1       2.613   3.116  20.333  0.00  0.00    +0.000 A 
ATOM     13  S   UNL     1       4.174   2.781  19.701  0.00  0.00    +0.000 S 
ATOM     14  C   UNL     1       4.262   4.392  19.071  0.00  0.00    +0.000 A 
BRANCH   7  16
ATOM     15  C   UNL     1       7.419   4.481  17.302  0.00  0.00    +0.000 C 
ATOM     16  N   UNL     1       6.387   4.806  17.744  0.00  0.00    +0.000 NA
ENDBRANCH   7  16
ENDBRANCH   1   9
BRANCH   4  17
ATOM     17  C   UNL     1      -0.183  10.942  19.241  0.00  0.00    +0.000 C 
ATOM     18  O   UNL     1      -0.976  11.138  20.147  0.00  0.00    +0.000 OA
BRANCH  17  19
ATOM     19  O   UNL     1      -0.053  11.786  18.196  0.00  0.00    +0.000 OA
ATOM     20  H   UNL     1      -0.906  12.144  17.869  0.00  0.00    +0.000 HD
ENDBRANCH  17  19
ENDBRANCH   4  17
BRANCH   5  21
ATOM     21  O   UNL     1       0.605   9.326  21.570  0.00  0.00    +0.000 OA
ATOM     22  H   UNL     1       1.315   9.881  21.955  0.00  0.00    +0.000 HD
ENDBRANCH   5  21
TORSDOF 5
ENDMDL
MODEL 9
REMARK VINA RESULT:      -6.4      1.073      1.289
REMARK  Name = 
REMARK  5 active torsions:
REMARK  status: ('A' for Active; 'I' for Inactive)
REMARK    1  A    between atoms: N_2  and  C_3
REMARK    2  A    between atoms: N_5  and  C_6
REMARK    3  A    between atoms: C_9  and  C_10
REMARK    4  A    between atoms: C_10  and  O_12
REMARK    5  A    between atoms: C_13  and  O_14
REMARK                            x       y       z     vdW  Elec       q    Type
REMARK                         _______ _______ _______ _____ _____    ______ ____
ROOT
ATOM      1  C   UNL     1       2.235   7.420  19.359  0.00  0.00    +0.000 A 
ATOM      2  C   UNL     1       1.774   7.534  20.675  0.00  0.00    +0.000 A 
ATOM      3  C   UNL     1       1.071   8.676  21.077  0.00  0.00    +0.000 A 
ATOM      4  C   UNL     1       0.786   9.699  20.164  0.00  0.00    +0.000 A 
ATOM      5  C   UNL     1       1.235   9.561  18.846  0.00  0.00    +0.000 A 
ATOM      6  C   UNL     1       1.995   8.455  18.447  0.00  0.00    +0.000 A 
ENDROOT
BRANCH   1   9
ATOM      7  C   UNL     1       4.210   4.828  17.747  0.00  0.00    +0.000 A 
ATOM      8  C   UNL     1       3.671   6.094  17.792  0.00  0.00    +0.000 A 
ATOM      9  N   UNL     1       2.923   6.246  18.948  0.00  0.00    +0.000 N 
ATOM     10  C   UNL     1       2.937   5.009  19.597  0.00  0.00    +0.000 A 
ATOM     11  C   UNL     1       2.319   4.392  20.728  0.00  0.00    +0.000 A 
ATOM     12  C   UNL     1       2.706   3.073  20.827  0.00  0.00    +0.000 A 
ATOM     13  S   UNL     1       3.807   2.570  19.609  0.00  0.00    +0.000 S 
ATOM     14  C   UNL     1       3.722   4.140  18.885  0.00  0.00    +0.000 A 
BRANCH   7  16
ATOM     15  C   UNL     1       5.790   3.867  15.926  0.00  0.00    +0.000 C 
ATOM     16  N   UNL     1       5.077   4.303  16.744  0.00  0.00    +0.000 NA
ENDBRANCH   7  16
ENDBRANCH   1   9
BRANCH   4  17
ATOM     17  C   UNL     1      -0.006  10.862  20.656  0.00  0.00    +0.000 C 
ATOM     18  O   UNL     1      -0.973  11.297  20.052  0.00  0.00    +0.000 OA
BRANCH  17  19
ATOM     19  O   UNL     1       0.438  11.410  21.807  0.00  0.00    +0.000 OA
ATOM     20  H   UNL     1       1.389  11.246  21.980  0.00  0.00    +0.000 HD
ENDBRANCH  17  19
ENDBRANCH   4  17
BRANCH   5  21
ATOM     21  O   UNL     1       0.917  10.487  17.888  0.00  0.00    +0.000 OA
ATOM     22  H   UNL     1       1.629  10.438  17.214  0.00  0.00    +0.000 HD
ENDBRANCH   5  21
TORSDOF 5
ENDMDL
