MODEL 1
REMARK VINA RESULT:      -9.0      0.000      0.000
REMARK  Name = 
REMARK  4 active torsions:
REMARK  status: ('A' for Active; 'I' for Inactive)
REMARK    1  A    between atoms: C_1  and  O_2
REMARK    2  A    between atoms: O_2  and  C_3
REMARK    3  A    between atoms: C_7  and  C_8
REMARK    4  A    between atoms: C_10  and  C_11
REMARK                            x       y       z     vdW  Elec       q    Type
REMARK                         _______ _______ _______ _____ _____    ______ ____
ROOT
ATOM      1  C   UNL     1       6.584   4.916  15.344  0.00  0.00    +0.000 C 
ATOM      2  C   UNL     1       5.480   5.654  15.588  0.00  0.00    +0.000 C 
ATOM      3  C   UNL     1       5.070   6.038  16.985  0.00  0.00    +0.000 C 
ATOM      4  N   UNL     1       6.247   5.933  17.832  0.00  0.00    +0.000 N 
ATOM      5  N   UNL     1       6.134   6.137  19.217  0.00  0.00    +0.000 NA
ATOM      6  C   UNL     1       7.095   5.388  19.680  0.00  0.00    +0.000 C 
ATOM      7  N   UNL     1       7.792   4.742  18.704  0.00  0.00    +0.000 N 
ATOM      8  C   UNL     1       7.229   5.007  17.483  0.00  0.00    +0.000 C 
ATOM      9  N   UNL     1       7.436   4.466  16.329  0.00  0.00    +0.000 NA
ATOM     10  H   UNL     1       8.392   3.946  18.847  0.00  0.00    +0.000 HD
ENDROOT
BRANCH   3  11
ATOM     11  C   UNL     1       3.954   5.113  17.483  0.00  0.00    +0.000 A 
ATOM     12  C   UNL     1       4.068   3.713  17.302  0.00  0.00    +0.000 A 
ATOM     13  C   UNL     1       3.077   2.834  17.730  0.00  0.00    +0.000 A 
ATOM     14  C   UNL     1       1.940   3.343  18.346  0.00  0.00    +0.000 A 
ATOM     15 CL   UNL     1       0.695   2.269  18.847  0.00  0.00    +0.000 Cl
ATOM     16  C   UNL     1       1.805   4.714  18.551  0.00  0.00    +0.000 A 
ATOM     17  C   UNL     1       2.806   5.597  18.129  0.00  0.00    +0.000 A 
ATOM     18 CL   UNL     1       2.551   7.275  18.434  0.00  0.00    +0.000 Cl
ENDBRANCH   3  11
BRANCH   1  23
ATOM     19  C   UNL     1       5.820   3.328  12.014  0.00  0.00    +0.000 A 
ATOM     20  C   UNL     1       6.749   3.984  11.200  0.00  0.00    +0.000 A 
ATOM     21  C   UNL     1       7.682   4.866  11.748  0.00  0.00    +0.000 A 
ATOM     22  C   UNL     1       7.684   5.113  13.120  0.00  0.00    +0.000 A 
ATOM     23  C   UNL     1       6.745   4.487  13.945  0.00  0.00    +0.000 A 
ATOM     24  C   UNL     1       5.824   3.578  13.386  0.00  0.00    +0.000 A 
BRANCH  19  26
ATOM     25  C   UNL     1       3.712   3.047  10.945  0.00  0.00    +0.000 C 
ATOM     26  O   UNL     1       4.962   2.501  11.345  0.00  0.00    +0.000 OA
ENDBRANCH  19  26
ENDBRANCH   1  23
TORSDOF 3
ENDMDL
MODEL 2
REMARK VINA RESULT:      -8.3      1.315      1.820
REMARK  Name = 
REMARK  4 active torsions:
REMARK  status: ('A' for Active; 'I' for Inactive)
REMARK    1  A    between atoms: C_1  and  O_2
REMARK    2  A    between atoms: O_2  and  C_3
REMARK    3  A    between atoms: C_7  and  C_8
REMARK    4  A    between atoms: C_10  and  C_11
REMARK                            x       y       z     vdW  Elec       q    Type
REMARK                         _______ _______ _______ _____ _____    ______ ____
ROOT
ATOM      1  C   UNL     1       5.933   4.374  14.452  0.00  0.00    +0.000 C 
ATOM      2  C   UNL     1       5.082   5.345  14.847  0.00  0.00    +0.000 C 
ATOM      3  C   UNL     1       5.150   5.955  16.222  0.00  0.00    +0.000 C 
ATOM      4  N   UNL     1       6.482   5.703  16.748  0.00  0.00    +0.000 N 
ATOM      5  N   UNL     1       6.797   6.076  18.064  0.00  0.00    +0.000 NA
ATOM      6  C   UNL     1       7.710   5.201  18.382  0.00  0.00    +0.000 C 
ATOM      7  N   UNL     1       7.987   4.323  17.377  0.00  0.00    +0.000 N 
ATOM      8  C   UNL     1       7.157   4.563  16.313  0.00  0.00    +0.000 C 
ATOM      9  N   UNL     1       6.939   3.869  15.247  0.00  0.00    +0.000 NA
ATOM     10  H   UNL     1       8.460   3.442  17.489  0.00  0.00    +0.000 HD
ENDROOT
BRANCH   3  11
ATOM     11  C   UNL     1       4.080   5.338  17.129  0.00  0.00    +0.000 A 
ATOM     12  C   UNL     1       3.985   3.930  17.248  0.00  0.00    +0.000 A 
ATOM     13  C   UNL     1       3.024   3.325  18.053  0.00  0.00    +0.000 A 
ATOM     14  C   UNL     1       2.127   4.121  18.754  0.00  0.00    +0.000 A 
ATOM     15 CL   UNL     1       0.915   3.382  19.723  0.00  0.00    +0.000 Cl
ATOM     16  C   UNL     1       2.203   5.509  18.668  0.00  0.00    +0.000 A 
ATOM     17  C   UNL     1       3.176   6.119  17.866  0.00  0.00    +0.000 A 
ATOM     18 CL   UNL     1       3.196   7.843  17.831  0.00  0.00    +0.000 Cl
ENDBRANCH   3  11
BRANCH   1  23
ATOM     19  C   UNL     1       6.011   1.978  11.545  0.00  0.00    +0.000 A 
ATOM     20  C   UNL     1       4.817   2.319  10.902  0.00  0.00    +0.000 A 
ATOM     21  C   UNL     1       4.040   3.385  11.357  0.00  0.00    +0.000 A 
ATOM     22  C   UNL     1       4.444   4.115  12.474  0.00  0.00    +0.000 A 
ATOM     23  C   UNL     1       5.621   3.771  13.145  0.00  0.00    +0.000 A 
ATOM     24  C   UNL     1       6.412   2.710  12.663  0.00  0.00    +0.000 A 
BRANCH  19  26
ATOM     25  C   UNL     1       6.147  -0.383  11.280  0.00  0.00    +0.000 C 
ATOM     26  O   UNL     1       6.667   0.911  10.999  0.00  0.00    +0.000 OA
ENDBRANCH  19  26
ENDBRANCH   1  23
TORSDOF 3
ENDMDL
MODEL 3
REMARK VINA RESULT:      -7.7      6.094      8.625
REMARK  Name = 
REMARK  4 active torsions:
REMARK  status: ('A' for Active; 'I' for Inactive)
REMARK    1  A    between atoms: C_1  and  O_2
REMARK    2  A    between atoms: O_2  and  C_3
REMARK    3  A    between atoms: C_7  and  C_8
REMARK    4  A    between atoms: C_10  and  C_11
REMARK                            x       y       z     vdW  Elec       q    Type
REMARK                         _______ _______ _______ _____ _____    ______ ____
ROOT
ATOM      1  C   UNL     1       1.436   8.170  20.490  0.00  0.00    +0.000 C 
ATOM      2  C   UNL     1       1.626   9.338  19.839  0.00  0.00    +0.000 C 
ATOM      3  C   UNL     1       0.917  10.602  20.246  0.00  0.00    +0.000 C 
ATOM      4  N   UNL     1       0.486  10.439  21.624  0.00  0.00    +0.000 N 
ATOM      5  N   UNL     1      -0.296  11.433  22.237  0.00  0.00    +0.000 NA
ATOM      6  C   UNL     1      -0.984  10.742  23.102  0.00  0.00    +0.000 C 
ATOM      7  N   UNL     1      -0.694   9.410  23.079  0.00  0.00    +0.000 N 
ATOM      8  C   UNL     1       0.207   9.151  22.079  0.00  0.00    +0.000 C 
ATOM      9  N   UNL     1       0.606   8.029  21.581  0.00  0.00    +0.000 NA
ATOM     10  H   UNL     1      -1.267   8.683  23.475  0.00  0.00    +0.000 HD
ENDROOT
BRANCH   3  11
ATOM     11  C   UNL     1      -0.282  10.857  19.326  0.00  0.00    +0.000 A 
ATOM     12  C   UNL     1      -1.079   9.771  18.890  0.00  0.00    +0.000 A 
ATOM     13  C   UNL     1      -2.172   9.952  18.048  0.00  0.00    +0.000 A 
ATOM     14  C   UNL     1      -2.487  11.234  17.614  0.00  0.00    +0.000 A 
ATOM     15 CL   UNL     1      -3.814  11.464  16.546  0.00  0.00    +0.000 Cl
ATOM     16  C   UNL     1      -1.732  12.325  18.035  0.00  0.00    +0.000 A 
ATOM     17  C   UNL     1      -0.638  12.144  18.891  0.00  0.00    +0.000 A 
ATOM     18 CL   UNL     1       0.232  13.556  19.363  0.00  0.00    +0.000 Cl
ENDBRANCH   3  11
BRANCH   1  23
ATOM     19  C   UNL     1       2.325   4.581  19.769  0.00  0.00    +0.000 A 
ATOM     20  C   UNL     1       2.875   4.706  18.489  0.00  0.00    +0.000 A 
ATOM     21  C   UNL     1       3.044   5.963  17.905  0.00  0.00    +0.000 A 
ATOM     22  C   UNL     1       2.648   7.109  18.591  0.00  0.00    +0.000 A 
ATOM     23  C   UNL     1       2.071   7.000  19.861  0.00  0.00    +0.000 A 
ATOM     24  C   UNL     1       1.929   5.730  20.453  0.00  0.00    +0.000 A 
BRANCH  19  26
ATOM     25  C   UNL     1       1.856   3.109  21.580  0.00  0.00    +0.000 C 
ATOM     26  O   UNL     1       2.211   3.294  20.215  0.00  0.00    +0.000 OA
ENDBRANCH  19  26
ENDBRANCH   1  23
TORSDOF 3
ENDMDL
MODEL 4
REMARK VINA RESULT:      -7.4      5.898      8.357
REMARK  Name = 
REMARK  4 active torsions:
REMARK  status: ('A' for Active; 'I' for Inactive)
REMARK    1  A    between atoms: C_1  and  O_2
REMARK    2  A    between atoms: O_2  and  C_3
REMARK    3  A    between atoms: C_7  and  C_8
REMARK    4  A    between atoms: C_10  and  C_11
REMARK                            x       y       z     vdW  Elec       q    Type
REMARK                         _______ _______ _______ _____ _____    ______ ____
ROOT
ATOM      1  C   UNL     1       1.389   8.090  20.461  0.00  0.00    +0.000 C 
ATOM      2  C   UNL     1       1.611   9.243  19.795  0.00  0.00    +0.000 C 
ATOM      3  C   UNL     1       0.949  10.536  20.193  0.00  0.00    +0.000 C 
ATOM      4  N   UNL     1       0.527  10.403  21.577  0.00  0.00    +0.000 N 
ATOM      5  N   UNL     1      -0.215  11.430  22.185  0.00  0.00    +0.000 NA
ATOM      6  C   UNL     1      -0.917  10.773  23.065  0.00  0.00    +0.000 C 
ATOM      7  N   UNL     1      -0.673   9.432  23.055  0.00  0.00    +0.000 N 
ATOM      8  C   UNL     1       0.209   9.131  22.050  0.00  0.00    +0.000 C 
ATOM      9  N   UNL     1       0.564   7.991  21.561  0.00  0.00    +0.000 NA
ATOM     10  H   UNL     1      -1.267   8.730  23.465  0.00  0.00    +0.000 HD
ENDROOT
BRANCH   3  11
ATOM     11  C   UNL     1      -0.248  10.821  19.281  0.00  0.00    +0.000 A 
ATOM     12  C   UNL     1      -1.129   9.770  18.926  0.00  0.00    +0.000 A 
ATOM     13  C   UNL     1      -2.225   9.979  18.094  0.00  0.00    +0.000 A 
ATOM     14  C   UNL     1      -2.460  11.251  17.591  0.00  0.00    +0.000 A 
ATOM     15 CL   UNL     1      -3.791  11.513  16.535  0.00  0.00    +0.000 Cl
ATOM     16  C   UNL     1      -1.621  12.309  17.932  0.00  0.00    +0.000 A 
ATOM     17  C   UNL     1      -0.524  12.101  18.776  0.00  0.00    +0.000 A 
ATOM     18 CL   UNL     1       0.452  13.474  19.147  0.00  0.00    +0.000 Cl
ENDBRANCH   3  11
BRANCH   1  23
ATOM     19  C   UNL     1       3.465   5.948  18.161  0.00  0.00    +0.000 A 
ATOM     20  C   UNL     1       3.465   4.741  18.868  0.00  0.00    +0.000 A 
ATOM     21  C   UNL     1       2.715   4.598  20.035  0.00  0.00    +0.000 A 
ATOM     22  C   UNL     1       1.967   5.669  20.519  0.00  0.00    +0.000 A 
ATOM     23  C   UNL     1       1.977   6.892  19.840  0.00  0.00    +0.000 A 
ATOM     24  C   UNL     1       2.716   7.019  18.647  0.00  0.00    +0.000 A 
BRANCH  19  26
ATOM     25  C   UNL     1       4.794   4.705  16.626  0.00  0.00    +0.000 C 
ATOM     26  O   UNL     1       4.248   5.951  17.041  0.00  0.00    +0.000 OA
ENDBRANCH  19  26
ENDBRANCH   1  23
TORSDOF 3
ENDMDL
MODEL 5
REMARK VINA RESULT:      -7.3      5.474      7.568
REMARK  Name = 
REMARK  4 active torsions:
REMARK  status: ('A' for Active; 'I' for Inactive)
REMARK    1  A    between atoms: C_1  and  O_2
REMARK    2  A    between atoms: O_2  and  C_3
REMARK    3  A    between atoms: C_7  and  C_8
REMARK    4  A    between atoms: C_10  and  C_11
REMARK                            x       y       z     vdW  Elec       q    Type
REMARK                         _______ _______ _______ _____ _____    ______ ____
ROOT
ATOM      1  C   UNL     1       2.039   8.166  19.158  0.00  0.00    +0.000 C 
ATOM      2  C   UNL     1       2.017   9.405  18.623  0.00  0.00    +0.000 C 
ATOM      3  C   UNL     1       1.274  10.543  19.272  0.00  0.00    +0.000 C 
ATOM      4  N   UNL     1       1.088  10.201  20.673  0.00  0.00    +0.000 N 
ATOM      5  N   UNL     1       0.331  11.042  21.505  0.00  0.00    +0.000 NA
ATOM      6  C   UNL     1      -0.144  10.202  22.380  0.00  0.00    +0.000 C 
ATOM      7  N   UNL     1       0.254   8.917  22.164  0.00  0.00    +0.000 N 
ATOM      8  C   UNL     1       1.001   8.852  21.016  0.00  0.00    +0.000 C 
ATOM      9  N   UNL     1       1.411   7.833  20.339  0.00  0.00    +0.000 NA
ATOM     10  H   UNL     1      -0.181   8.099  22.556  0.00  0.00    +0.000 HD
ENDROOT
BRANCH   3  11
ATOM     11  C   UNL     1      -0.075  10.759  18.579  0.00  0.00    +0.000 A 
ATOM     12  C   UNL     1      -0.746   9.662  17.986  0.00  0.00    +0.000 A 
ATOM     13  C   UNL     1      -1.968   9.812  17.338  0.00  0.00    +0.000 A 
ATOM     14  C   UNL     1      -2.546  11.073  17.263  0.00  0.00    +0.000 A 
ATOM     15 CL   UNL     1      -4.039  11.274  16.435  0.00  0.00    +0.000 Cl
ATOM     16  C   UNL     1      -1.918  12.170  17.848  0.00  0.00    +0.000 A 
ATOM     17  C   UNL     1      -0.693  12.018  18.508  0.00  0.00    +0.000 A 
ATOM     18 CL   UNL     1       0.003  13.433  19.207  0.00  0.00    +0.000 Cl
ENDBRANCH   3  11
BRANCH   1  23
ATOM     19  C   UNL     1       4.542   6.461  16.918  0.00  0.00    +0.000 A 
ATOM     20  C   UNL     1       4.132   5.129  17.045  0.00  0.00    +0.000 A 
ATOM     21  C   UNL     1       2.990   4.801  17.777  0.00  0.00    +0.000 A 
ATOM     22  C   UNL     1       2.253   5.803  18.406  0.00  0.00    +0.000 A 
ATOM     23  C   UNL     1       2.664   7.136  18.312  0.00  0.00    +0.000 A 
ATOM     24  C   UNL     1       3.802   7.461  17.549  0.00  0.00    +0.000 A 
BRANCH  19  26
ATOM     25  C   UNL     1       6.554   5.524  16.058  0.00  0.00    +0.000 C 
ATOM     26  O   UNL     1       5.678   6.638  16.180  0.00  0.00    +0.000 OA
ENDBRANCH  19  26
ENDBRANCH   1  23
TORSDOF 3
ENDMDL
MODEL 6
REMARK VINA RESULT:      -6.9      2.621      4.403
REMARK  Name = 
REMARK  4 active torsions:
REMARK  status: ('A' for Active; 'I' for Inactive)
REMARK    1  A    between atoms: C_1  and  O_2
REMARK    2  A    between atoms: O_2  and  C_3
REMARK    3  A    between atoms: C_7  and  C_8
REMARK    4  A    between atoms: C_10  and  C_11
REMARK                            x       y       z     vdW  Elec       q    Type
REMARK                         _______ _______ _______ _____ _____    ______ ____
ROOT
ATOM      1  C   UNL     1       5.777   4.307  15.581  0.00  0.00    +0.000 C 
ATOM      2  C   UNL     1       6.836   4.256  16.418  0.00  0.00    +0.000 C 
ATOM      3  C   UNL     1       6.736   4.683  17.859  0.00  0.00    +0.000 C 
ATOM      4  N   UNL     1       5.332   4.634  18.234  0.00  0.00    +0.000 N 
ATOM      5  N   UNL     1       4.930   5.080  19.503  0.00  0.00    +0.000 NA
ATOM      6  C   UNL     1       3.713   5.488  19.274  0.00  0.00    +0.000 C 
ATOM      7  N   UNL     1       3.328   5.330  17.977  0.00  0.00    +0.000 N 
ATOM      8  C   UNL     1       4.377   4.844  17.240  0.00  0.00    +0.000 C 
ATOM      9  N   UNL     1       4.521   4.728  15.963  0.00  0.00    +0.000 NA
ATOM     10  H   UNL     1       2.547   5.792  17.541  0.00  0.00    +0.000 HD
ENDROOT
BRANCH   3  11
ATOM     11  C   UNL     1       7.299   6.097  18.032  0.00  0.00    +0.000 A 
ATOM     12  C   UNL     1       6.973   7.105  17.092  0.00  0.00    +0.000 A 
ATOM     13  C   UNL     1       7.467   8.401  17.204  0.00  0.00    +0.000 A 
ATOM     14  C   UNL     1       8.309   8.717  18.263  0.00  0.00    +0.000 A 
ATOM     15 CL   UNL     1       8.952  10.306  18.391  0.00  0.00    +0.000 Cl
ATOM     16  C   UNL     1       8.637   7.752  19.212  0.00  0.00    +0.000 A 
ATOM     17  C   UNL     1       8.132   6.451  19.105  0.00  0.00    +0.000 A 
ATOM     18 CL   UNL     1       8.588   5.328  20.333  0.00  0.00    +0.000 Cl
ENDBRANCH   3  11
BRANCH   1  23
ATOM     19  C   UNL     1       5.312   3.250  11.995  0.00  0.00    +0.000 A 
ATOM     20  C   UNL     1       6.439   3.835  11.409  0.00  0.00    +0.000 A 
ATOM     21  C   UNL     1       7.394   4.486  12.192  0.00  0.00    +0.000 A 
ATOM     22  C   UNL     1       7.222   4.573  13.572  0.00  0.00    +0.000 A 
ATOM     23  C   UNL     1       6.087   4.018  14.172  0.00  0.00    +0.000 A 
ATOM     24  C   UNL     1       5.142   3.339  13.377  0.00  0.00    +0.000 A 
BRANCH  19  26
ATOM     25  C   UNL     1       3.444   3.467  10.537  0.00  0.00    +0.000 C 
ATOM     26  O   UNL     1       4.457   2.652  11.113  0.00  0.00    +0.000 OA
ENDBRANCH  19  26
ENDBRANCH   1  23
TORSDOF 3
ENDMDL
MODEL 7
REMARK VINA RESULT:      -6.8      8.147     10.850
REMARK  Name = 
REMARK  4 active torsions:
REMARK  status: ('A' for Active; 'I' for Inactive)
REMARK    1  A    between atoms: C_1  and  O_2
REMARK    2  A    between atoms: O_2  and  C_3
REMARK    3  A    between atoms: C_7  and  C_8
REMARK    4  A    between atoms: C_10  and  C_11
REMARK                            x       y       z     vdW  Elec       q    Type
REMARK                         _______ _______ _______ _____ _____    ______ ____
ROOT
ATOM      1  C   UNL     1      -1.681  11.975  18.851  0.00  0.00    +0.000 C 
ATOM      2  C   UNL     1      -1.276  11.195  19.875  0.00  0.00    +0.000 C 
ATOM      3  C   UNL     1       0.150  11.190  20.360  0.00  0.00    +0.000 C 
ATOM      4  N   UNL     1       0.766  12.431  19.919  0.00  0.00    +0.000 N 
ATOM      5  N   UNL     1       2.134  12.653  20.146  0.00  0.00    +0.000 NA
ATOM      6  C   UNL     1       2.451  13.434  19.152  0.00  0.00    +0.000 C 
ATOM      7  N   UNL     1       1.398  13.716  18.333  0.00  0.00    +0.000 N 
ATOM      8  C   UNL     1       0.291  13.023  18.750  0.00  0.00    +0.000 C 
ATOM      9  N   UNL     1      -0.849  12.840  18.174  0.00  0.00    +0.000 NA
ATOM     10  H   UNL     1       1.470  14.082  17.398  0.00  0.00    +0.000 HD
ENDROOT
BRANCH   3  11
ATOM     11  C   UNL     1       0.898   9.978  19.795  0.00  0.00    +0.000 A 
ATOM     12  C   UNL     1       1.218   9.929  18.416  0.00  0.00    +0.000 A 
ATOM     13  C   UNL     1       1.889   8.845  17.856  0.00  0.00    +0.000 A 
ATOM     14  C   UNL     1       2.249   7.778  18.669  0.00  0.00    +0.000 A 
ATOM     15 CL   UNL     1       3.047   6.420  17.981  0.00  0.00    +0.000 Cl
ATOM     16  C   UNL     1       1.961   7.802  20.031  0.00  0.00    +0.000 A 
ATOM     17  C   UNL     1       1.295   8.896  20.596  0.00  0.00    +0.000 A 
ATOM     18 CL   UNL     1       0.989   8.838  22.293  0.00  0.00    +0.000 Cl
ENDBRANCH   3  11
BRANCH   1  23
ATOM     19  C   UNL     1      -5.445  12.085  18.730  0.00  0.00    +0.000 A 
ATOM     20  C   UNL     1      -5.669  11.697  17.405  0.00  0.00    +0.000 A 
ATOM     21  C   UNL     1      -4.608  11.309  16.586  0.00  0.00    +0.000 A 
ATOM     22  C   UNL     1      -3.305  11.321  17.081  0.00  0.00    +0.000 A 
ATOM     23  C   UNL     1      -3.060  11.732  18.395  0.00  0.00    +0.000 A 
ATOM     24  C   UNL     1      -4.140  12.096  19.222  0.00  0.00    +0.000 A 
BRANCH  19  26
ATOM     25  C   UNL     1      -7.325  11.404  20.022  0.00  0.00    +0.000 C 
ATOM     26  O   UNL     1      -6.571  12.446  19.415  0.00  0.00    +0.000 OA
ENDBRANCH  19  26
ENDBRANCH   1  23
TORSDOF 3
ENDMDL
MODEL 8
REMARK VINA RESULT:      -6.8      7.748     10.318
REMARK  Name = 
REMARK  4 active torsions:
REMARK  status: ('A' for Active; 'I' for Inactive)
REMARK    1  A    between atoms: C_1  and  O_2
REMARK    2  A    between atoms: O_2  and  C_3
REMARK    3  A    between atoms: C_7  and  C_8
REMARK    4  A    between atoms: C_10  and  C_11
REMARK                            x       y       z     vdW  Elec       q    Type
REMARK                         _______ _______ _______ _____ _____    ______ ____
ROOT
ATOM      1  C   UNL     1      -1.594  12.198  19.068  0.00  0.00    +0.000 C 
ATOM      2  C   UNL     1      -1.464  11.494  20.212  0.00  0.00    +0.000 C 
ATOM      3  C   UNL     1      -0.167  11.443  20.975  0.00  0.00    +0.000 C 
ATOM      4  N   UNL     1       0.623  12.595  20.573  0.00  0.00    +0.000 N 
ATOM      5  N   UNL     1       1.933  12.749  21.056  0.00  0.00    +0.000 NA
ATOM      6  C   UNL     1       2.502  13.412  20.088  0.00  0.00    +0.000 C 
ATOM      7  N   UNL     1       1.658  13.682  19.052  0.00  0.00    +0.000 N 
ATOM      8  C   UNL     1       0.438  13.105  19.288  0.00  0.00    +0.000 C 
ATOM      9  N   UNL     1      -0.577  12.942  18.508  0.00  0.00    +0.000 NA
ATOM     10  H   UNL     1       1.943  13.954  18.126  0.00  0.00    +0.000 HD
ENDROOT
BRANCH   3  11
ATOM     11  C   UNL     1       0.576  10.138  20.672  0.00  0.00    +0.000 A 
ATOM     12  C   UNL     1       1.031   9.876  19.357  0.00  0.00    +0.000 A 
ATOM     13  C   UNL     1       1.703   8.702  19.032  0.00  0.00    +0.000 A 
ATOM     14  C   UNL     1       1.929   7.755  20.022  0.00  0.00    +0.000 A 
ATOM     15 CL   UNL     1       2.728   6.286  19.624  0.00  0.00    +0.000 Cl
ATOM     16  C   UNL     1       1.507   7.988  21.329  0.00  0.00    +0.000 A 
ATOM     17  C   UNL     1       0.839   9.174  21.658  0.00  0.00    +0.000 A 
ATOM     18 CL   UNL     1       0.362   9.375  23.303  0.00  0.00    +0.000 Cl
ENDBRANCH   3  11
BRANCH   1  23
ATOM     19  C   UNL     1      -4.071  11.015  16.488  0.00  0.00    +0.000 A 
ATOM     20  C   UNL     1      -5.272  11.217  17.176  0.00  0.00    +0.000 A 
ATOM     21  C   UNL     1      -5.281  11.824  18.433  0.00  0.00    +0.000 A 
ATOM     22  C   UNL     1      -4.083  12.222  19.023  0.00  0.00    +0.000 A 
ATOM     23  C   UNL     1      -2.870  12.003  18.361  0.00  0.00    +0.000 A 
ATOM     24  C   UNL     1      -2.873  11.414  17.082  0.00  0.00    +0.000 A 
BRANCH  19  26
ATOM     25  C   UNL     1      -3.018  10.148  14.537  0.00  0.00    +0.000 C 
ATOM     26  O   UNL     1      -4.208  10.405  15.273  0.00  0.00    +0.000 OA
ENDBRANCH  19  26
ENDBRANCH   1  23
TORSDOF 3
ENDMDL
MODEL 9
REMARK VINA RESULT:      -6.8      2.914      4.574
REMARK  Name = 
REMARK  4 active torsions:
REMARK  status: ('A' for Active; 'I' for Inactive)
REMARK    1  A    between atoms: C_1  and  O_2
REMARK    2  A    between atoms: O_2  and  C_3
REMARK    3  A    between atoms: C_7  and  C_8
REMARK    4  A    between atoms: C_10  and  C_11
REMARK                            x       y       z     vdW  Elec       q    Type
REMARK                         _______ _______ _______ _____ _____    ______ ____
ROOT
ATOM      1  C   UNL     1       4.217   4.674  17.787  0.00  0.00    +0.000 C 
ATOM      2  C   UNL     1       4.373   5.651  18.706  0.00  0.00    +0.000 C 
ATOM      3  C   UNL     1       3.320   5.949  19.741  0.00  0.00    +0.000 C 
ATOM      4  N   UNL     1       2.482   4.768  19.866  0.00  0.00    +0.000 N 
ATOM      5  N   UNL     1       1.349   4.798  20.695  0.00  0.00    +0.000 NA
ATOM      6  C   UNL     1       0.563   3.937  20.111  0.00  0.00    +0.000 C 
ATOM      7  N   UNL     1       1.113   3.376  18.997  0.00  0.00    +0.000 N 
ATOM      8  C   UNL     1       2.337   3.942  18.752  0.00  0.00    +0.000 C 
ATOM      9  N   UNL     1       3.108   3.858  17.721  0.00  0.00    +0.000 NA
ATOM     10  H   UNL     1       0.603   2.891  18.277  0.00  0.00    +0.000 HD
ENDROOT
BRANCH   3  11
ATOM     11  C   UNL     1       2.490   7.165  19.317  0.00  0.00    +0.000 A 
ATOM     12  C   UNL     1       2.386   7.503  17.946  0.00  0.00    +0.000 A 
ATOM     13  C   UNL     1       1.651   8.603  17.514  0.00  0.00    +0.000 A 
ATOM     14  C   UNL     1       1.006   9.398  18.453  0.00  0.00    +0.000 A 
ATOM     15 CL   UNL     1       0.123  10.778  17.934  0.00  0.00    +0.000 Cl
ATOM     16  C   UNL     1       1.077   9.084  19.809  0.00  0.00    +0.000 A 
ATOM     17  C   UNL     1       1.809   7.972  20.242  0.00  0.00    +0.000 A 
ATOM     18 CL   UNL     1       1.832   7.660  21.938  0.00  0.00    +0.000 Cl
ENDBRANCH   3  11
BRANCH   1  23
ATOM     19  C   UNL     1       5.856   4.174  14.432  0.00  0.00    +0.000 A 
ATOM     20  C   UNL     1       7.035   4.904  14.614  0.00  0.00    +0.000 A 
ATOM     21  C   UNL     1       7.340   5.473  15.851  0.00  0.00    +0.000 A 
ATOM     22  C   UNL     1       6.456   5.331  16.919  0.00  0.00    +0.000 A 
ATOM     23  C   UNL     1       5.259   4.629  16.748  0.00  0.00    +0.000 A 
ATOM     24  C   UNL     1       4.973   4.035  15.503  0.00  0.00    +0.000 A 
BRANCH  19  26
ATOM     25  C   UNL     1       6.782   3.781  12.275  0.00  0.00    +0.000 C 
ATOM     26  O   UNL     1       5.682   3.679  13.171  0.00  0.00    +0.000 OA
ENDBRANCH  19  26
ENDBRANCH   1  23
TORSDOF 3
ENDMDL
