MODEL 1
REMARK VINA RESULT:      -9.0      0.000      0.000
REMARK  Name = 
REMARK  8 active torsions:
REMARK  status: ('A' for Active; 'I' for Inactive)
REMARK    1  A    between atoms: C_1  and  C_2
REMARK    2  A    between atoms: C_2  and  C_3
REMARK    3  A    between atoms: N_10  and  C_11
REMARK    4  A    between atoms: C_14  and  O_15
REMARK    5  A    between atoms: O_15  and  C_16
REMARK    6  A    between atoms: C_16  and  C_17
REMARK    7  A    between atoms: N_19  and  C_20
REMARK    8  A    between atoms: C_23  and  S_24
REMARK                            x       y       z     vdW  Elec       q    Type
REMARK                         _______ _______ _______ _____ _____    ______ ____
ROOT
ATOM      1  C   UNL     1       2.672   6.556  19.215  0.00  0.00    +0.000 A 
ATOM      2  C   UNL     1       2.702   7.145  17.939  0.00  0.00    +0.000 A 
ATOM      3  C   UNL     1       2.196   8.428  17.705  0.00  0.00    +0.000 A 
ATOM      4  C   UNL     1       1.572   9.134  18.725  0.00  0.00    +0.000 A 
ATOM      5  C   UNL     1       1.498   8.572  19.992  0.00  0.00    +0.000 A 
ATOM      6  C   UNL     1       2.077   7.318  20.235  0.00  0.00    +0.000 A 
ENDROOT
BRANCH   1  16
ATOM      7  C   UNL     1       1.767   3.933  18.024  0.00  0.00    +0.000 C 
ATOM      8  C   UNL     1       2.388   4.084  19.428  0.00  0.00    +0.000 C 
ATOM      9  C   UNL     1       1.258   4.097  20.476  0.00  0.00    +0.000 C 
ATOM     10  N   UNL     1       3.061   2.810  19.699  0.00  0.00    +0.000 NA
ATOM     11  C   UNL     1       4.339   2.771  19.634  0.00  0.00    +0.000 C 
ATOM     12  N   UNL     1       4.967   1.602  19.890  0.00  0.00    +0.000 N 
ATOM     13  N   UNL     1       5.126   3.819  19.307  0.00  0.00    +0.000 NA
ATOM     14  C   UNL     1       4.594   4.996  19.264  0.00  0.00    +0.000 C 
ATOM     15  N   UNL     1       5.459   6.018  19.019  0.00  0.00    +0.000 N 
ATOM     16  N   UNL     1       3.261   5.288  19.475  0.00  0.00    +0.000 N 
ATOM     17  H   UNL     1       4.355   0.805  19.777  0.00  0.00    +0.000 HD
ATOM     18  H   UNL     1       5.852   1.528  19.409  0.00  0.00    +0.000 HD
ATOM     19  H   UNL     1       6.421   5.702  19.072  0.00  0.00    +0.000 HD
ATOM     20  H   UNL     1       5.293   6.843  19.582  0.00  0.00    +0.000 HD
ENDBRANCH   1  16
BRANCH   4  21
ATOM     21  O   UNL     1       1.145  10.387  18.401  0.00  0.00    +0.000 OA
BRANCH  21  22
ATOM     22  C   UNL     1       1.847  11.446  19.047  0.00  0.00    +0.000 C 
BRANCH  22  23
ATOM     23  C   UNL     1       0.941  12.099  20.085  0.00  0.00    +0.000 C 
ATOM     24  O   UNL     1       1.261  13.164  20.607  0.00  0.00    +0.000 OA
ATOM     25  N   UNL     1      -0.234  11.397  20.304  0.00  0.00    +0.000 N 
ATOM     26  H   UNL     1      -0.262  10.465  19.899  0.00  0.00    +0.000 HD
BRANCH  25  27
ATOM     27  C   UNL     1      -1.320  11.793  21.108  0.00  0.00    +0.000 A 
ATOM     28  C   UNL     1      -2.468  12.396  20.585  0.00  0.00    +0.000 A 
ATOM     29  C   UNL     1      -3.521  12.774  21.418  0.00  0.00    +0.000 A 
ATOM     30  C   UNL     1      -3.428  12.531  22.786  0.00  0.00    +0.000 A 
ATOM     31  C   UNL     1      -2.292  11.933  23.334  0.00  0.00    +0.000 A 
ATOM     32  C   UNL     1      -1.243  11.551  22.490  0.00  0.00    +0.000 A 
BRANCH  30  33
ATOM     33  S   UNL     1      -4.757  13.038  23.836  0.00  0.00    +0.000 S 
ATOM     34  O   UNL     1      -4.525  14.422  24.191  0.00  0.00    +0.000 OA
ATOM     35  O   UNL     1      -5.991  12.579  23.236  0.00  0.00    +0.000 OA
ATOM     36  F   UNL     1      -4.609  12.216  25.187  0.00  0.00    +0.000 F 
ENDBRANCH  30  33
ENDBRANCH  25  27
ENDBRANCH  22  23
ENDBRANCH  21  22
ENDBRANCH   4  21
TORSDOF 6
ENDMDL
MODEL 2
REMARK VINA RESULT:      -9.0      1.278      1.514
REMARK  Name = 
REMARK  8 active torsions:
REMARK  status: ('A' for Active; 'I' for Inactive)
REMARK    1  A    between atoms: C_1  and  C_2
REMARK    2  A    between atoms: C_2  and  C_3
REMARK    3  A    between atoms: N_10  and  C_11
REMARK    4  A    between atoms: C_14  and  O_15
REMARK    5  A    between atoms: O_15  and  C_16
REMARK    6  A    between atoms: C_16  and  C_17
REMARK    7  A    between atoms: N_19  and  C_20
REMARK    8  A    between atoms: C_23  and  S_24
REMARK                            x       y       z     vdW  Elec       q    Type
REMARK                         _______ _______ _______ _____ _____    ______ ____
ROOT
ATOM      1  C   UNL     1       2.655   6.370  19.333  0.00  0.00    +0.000 A 
ATOM      2  C   UNL     1       2.694   7.009  18.081  0.00  0.00    +0.000 A 
ATOM      3  C   UNL     1       2.190   8.300  17.895  0.00  0.00    +0.000 A 
ATOM      4  C   UNL     1       1.559   8.965  18.938  0.00  0.00    +0.000 A 
ATOM      5  C   UNL     1       1.477   8.354  20.182  0.00  0.00    +0.000 A 
ATOM      6  C   UNL     1       2.054   7.091  20.378  0.00  0.00    +0.000 A 
ENDROOT
BRANCH   1  16
ATOM      7  C   UNL     1       1.772   3.800  18.016  0.00  0.00    +0.000 C 
ATOM      8  C   UNL     1       2.371   3.891  19.434  0.00  0.00    +0.000 C 
ATOM      9  C   UNL     1       1.225   3.858  20.465  0.00  0.00    +0.000 C 
ATOM     10  N   UNL     1       3.042   2.607  19.660  0.00  0.00    +0.000 NA
ATOM     11  C   UNL     1       4.320   2.571  19.613  0.00  0.00    +0.000 C 
ATOM     12  N   UNL     1       4.946   1.393  19.828  0.00  0.00    +0.000 N 
ATOM     13  N   UNL     1       5.111   3.633  19.344  0.00  0.00    +0.000 NA
ATOM     14  C   UNL     1       4.578   4.811  19.344  0.00  0.00    +0.000 C 
ATOM     15  N   UNL     1       5.445   5.843  19.156  0.00  0.00    +0.000 N 
ATOM     16  N   UNL     1       3.242   5.092  19.548  0.00  0.00    +0.000 N 
ATOM     17  H   UNL     1       4.337   0.602  19.671  0.00  0.00    +0.000 HD
ATOM     18  H   UNL     1       5.839   1.341  19.357  0.00  0.00    +0.000 HD
ATOM     19  H   UNL     1       6.407   5.525  19.211  0.00  0.00    +0.000 HD
ATOM     20  H   UNL     1       5.270   6.643  19.752  0.00  0.00    +0.000 HD
ENDBRANCH   1  16
BRANCH   4  21
ATOM     21  O   UNL     1       1.134  10.231  18.661  0.00  0.00    +0.000 OA
BRANCH  21  22
ATOM     22  C   UNL     1       0.882  11.043  19.805  0.00  0.00    +0.000 C 
BRANCH  22  23
ATOM     23  C   UNL     1      -0.622  11.219  19.982  0.00  0.00    +0.000 C 
ATOM     24  O   UNL     1      -1.408  10.589  19.280  0.00  0.00    +0.000 OA
ATOM     25  N   UNL     1      -0.954  12.091  21.008  0.00  0.00    +0.000 N 
ATOM     26  H   UNL     1      -0.179  12.635  21.380  0.00  0.00    +0.000 HD
BRANCH  25  27
ATOM     27  C   UNL     1      -2.244  12.375  21.494  0.00  0.00    +0.000 A 
ATOM     28  C   UNL     1      -3.316  12.694  20.655  0.00  0.00    +0.000 A 
ATOM     29  C   UNL     1      -4.578  12.969  21.178  0.00  0.00    +0.000 A 
ATOM     30  C   UNL     1      -4.772  12.908  22.556  0.00  0.00    +0.000 A 
ATOM     31  C   UNL     1      -3.720  12.593  23.416  0.00  0.00    +0.000 A 
ATOM     32  C   UNL     1      -2.457  12.312  22.881  0.00  0.00    +0.000 A 
BRANCH  30  33
ATOM     33  S   UNL     1      -6.371  13.284  23.211  0.00  0.00    +0.000 S 
ATOM     34  O   UNL     1      -6.887  12.075  23.815  0.00  0.00    +0.000 OA
ATOM     35  O   UNL     1      -6.269  14.537  23.928  0.00  0.00    +0.000 OA
ATOM     36  F   UNL     1      -7.314  13.582  21.968  0.00  0.00    +0.000 F 
ENDBRANCH  30  33
ENDBRANCH  25  27
ENDBRANCH  22  23
ENDBRANCH  21  22
ENDBRANCH   4  21
TORSDOF 6
ENDMDL
MODEL 3
REMARK VINA RESULT:      -8.9      1.058      1.258
REMARK  Name = 
REMARK  8 active torsions:
REMARK  status: ('A' for Active; 'I' for Inactive)
REMARK    1  A    between atoms: C_1  and  C_2
REMARK    2  A    between atoms: C_2  and  C_3
REMARK    3  A    between atoms: N_10  and  C_11
REMARK    4  A    between atoms: C_14  and  O_15
REMARK    5  A    between atoms: O_15  and  C_16
REMARK    6  A    between atoms: C_16  and  C_17
REMARK    7  A    between atoms: N_19  and  C_20
REMARK    8  A    between atoms: C_23  and  S_24
REMARK                            x       y       z     vdW  Elec       q    Type
REMARK                         _______ _______ _______ _____ _____    ______ ____
ROOT
ATOM      1  C   UNL     1       2.707   6.277  19.394  0.00  0.00    +0.000 A 
ATOM      2  C   UNL     1       2.753   6.906  18.137  0.00  0.00    +0.000 A 
ATOM      3  C   UNL     1       2.228   8.186  17.932  0.00  0.00    +0.000 A 
ATOM      4  C   UNL     1       1.569   8.848  18.960  0.00  0.00    +0.000 A 
ATOM      5  C   UNL     1       1.480   8.246  20.207  0.00  0.00    +0.000 A 
ATOM      6  C   UNL     1       2.077   6.996  20.424  0.00  0.00    +0.000 A 
ENDROOT
BRANCH   1  16
ATOM      7  C   UNL     1       1.805   3.658  18.191  0.00  0.00    +0.000 C 
ATOM      8  C   UNL     1       2.452   3.800  19.584  0.00  0.00    +0.000 C 
ATOM      9  C   UNL     1       1.344   3.790  20.655  0.00  0.00    +0.000 C 
ATOM     10  N   UNL     1       3.145   2.530  19.827  0.00  0.00    +0.000 NA
ATOM     11  C   UNL     1       4.420   2.505  19.736  0.00  0.00    +0.000 C 
ATOM     12  N   UNL     1       5.066   1.340  19.967  0.00  0.00    +0.000 N 
ATOM     13  N   UNL     1       5.191   3.565  19.406  0.00  0.00    +0.000 NA
ATOM     14  C   UNL     1       4.645   4.737  19.387  0.00  0.00    +0.000 C 
ATOM     15  N   UNL     1       5.495   5.771  19.136  0.00  0.00    +0.000 N 
ATOM     16  N   UNL     1       3.314   5.013  19.628  0.00  0.00    +0.000 N 
ATOM     17  H   UNL     1       4.460   0.539  19.857  0.00  0.00    +0.000 HD
ATOM     18  H   UNL     1       5.942   1.281  19.467  0.00  0.00    +0.000 HD
ATOM     19  H   UNL     1       6.461   5.464  19.166  0.00  0.00    +0.000 HD
ATOM     20  H   UNL     1       5.332   6.588  19.711  0.00  0.00    +0.000 HD
ENDBRANCH   1  16
BRANCH   4  21
ATOM     21  O   UNL     1       1.125  10.103  18.665  0.00  0.00    +0.000 OA
BRANCH  21  22
ATOM     22  C   UNL     1      -0.060  10.150  17.874  0.00  0.00    +0.000 C 
BRANCH  22  23
ATOM     23  C   UNL     1      -1.200  10.736  18.699  0.00  0.00    +0.000 C 
ATOM     24  O   UNL     1      -2.362  10.630  18.317  0.00  0.00    +0.000 OA
ATOM     25  N   UNL     1      -0.774  11.320  19.883  0.00  0.00    +0.000 N 
ATOM     26  H   UNL     1       0.231  11.449  19.963  0.00  0.00    +0.000 HD
BRANCH  25  27
ATOM     27  C   UNL     1      -1.585  11.842  20.908  0.00  0.00    +0.000 A 
ATOM     28  C   UNL     1      -2.722  12.615  20.655  0.00  0.00    +0.000 A 
ATOM     29  C   UNL     1      -3.497  13.114  21.701  0.00  0.00    +0.000 A 
ATOM     30  C   UNL     1      -3.138  12.820  23.014  0.00  0.00    +0.000 A 
ATOM     31  C   UNL     1      -2.007  12.052  23.296  0.00  0.00    +0.000 A 
ATOM     32  C   UNL     1      -1.239  11.550  22.238  0.00  0.00    +0.000 A 
BRANCH  30  33
ATOM     33  S   UNL     1      -4.113  13.479  24.334  0.00  0.00    +0.000 S 
ATOM     34  O   UNL     1      -3.242  14.297  25.149  0.00  0.00    +0.000 OA
ATOM     35  O   UNL     1      -5.347  13.976  23.764  0.00  0.00    +0.000 OA
ATOM     36  F   UNL     1      -4.531  12.250  25.248  0.00  0.00    +0.000 F 
ENDBRANCH  30  33
ENDBRANCH  25  27
ENDBRANCH  22  23
ENDBRANCH  21  22
ENDBRANCH   4  21
TORSDOF 6
ENDMDL
MODEL 4
REMARK VINA RESULT:      -8.9      0.897      1.237
REMARK  Name = 
REMARK  8 active torsions:
REMARK  status: ('A' for Active; 'I' for Inactive)
REMARK    1  A    between atoms: C_1  and  C_2
REMARK    2  A    between atoms: C_2  and  C_3
REMARK    3  A    between atoms: N_10  and  C_11
REMARK    4  A    between atoms: C_14  and  O_15
REMARK    5  A    between atoms: O_15  and  C_16
REMARK    6  A    between atoms: C_16  and  C_17
REMARK    7  A    between atoms: N_19  and  C_20
REMARK    8  A    between atoms: C_23  and  S_24
REMARK                            x       y       z     vdW  Elec       q    Type
REMARK                         _______ _______ _______ _____ _____    ______ ____
ROOT
ATOM      1  C   UNL     1       3.068   6.347  19.067  0.00  0.00    +0.000 A 
ATOM      2  C   UNL     1       2.252   7.099  19.932  0.00  0.00    +0.000 A 
ATOM      3  C   UNL     1       1.677   8.311  19.537  0.00  0.00    +0.000 A 
ATOM      4  C   UNL     1       1.961   8.850  18.289  0.00  0.00    +0.000 A 
ATOM      5  C   UNL     1       2.785   8.150  17.419  0.00  0.00    +0.000 A 
ATOM      6  C   UNL     1       3.295   6.899  17.795  0.00  0.00    +0.000 A 
ENDROOT
BRANCH   1  16
ATOM      7  C   UNL     1       2.091   3.694  18.006  0.00  0.00    +0.000 C 
ATOM      8  C   UNL     1       2.659   3.910  19.424  0.00  0.00    +0.000 C 
ATOM      9  C   UNL     1       1.488   4.042  20.418  0.00  0.00    +0.000 C 
ATOM     10  N   UNL     1       3.260   2.628  19.805  0.00  0.00    +0.000 NA
ATOM     11  C   UNL     1       4.536   2.528  19.800  0.00  0.00    +0.000 C 
ATOM     12  N   UNL     1       5.097   1.352  20.158  0.00  0.00    +0.000 N 
ATOM     13  N   UNL     1       5.385   3.517  19.443  0.00  0.00    +0.000 NA
ATOM     14  C   UNL     1       4.911   4.711  19.301  0.00  0.00    +0.000 C 
ATOM     15  N   UNL     1       5.832   5.675  19.030  0.00  0.00    +0.000 N 
ATOM     16  N   UNL     1       3.586   5.075  19.434  0.00  0.00    +0.000 N 
ATOM     17  H   UNL     1       4.454   0.577  20.068  0.00  0.00    +0.000 HD
ATOM     18  H   UNL     1       5.998   1.208  19.723  0.00  0.00    +0.000 HD
ATOM     19  H   UNL     1       6.776   5.321  19.147  0.00  0.00    +0.000 HD
ATOM     20  H   UNL     1       5.682   6.542  19.532  0.00  0.00    +0.000 HD
ENDBRANCH   1  16
BRANCH   4  21
ATOM     21  O   UNL     1       1.322  10.017  17.990  0.00  0.00    +0.000 OA
BRANCH  21  22
ATOM     22  C   UNL     1       1.272  10.963  19.056  0.00  0.00    +0.000 C 
BRANCH  22  23
ATOM     23  C   UNL     1      -0.173  11.145  19.507  0.00  0.00    +0.000 C 
ATOM     24  O   UNL     1      -1.085  10.568  18.920  0.00  0.00    +0.000 OA
ATOM     25  N   UNL     1      -0.299  11.957  20.624  0.00  0.00    +0.000 N 
ATOM     26  H   UNL     1       0.542  12.467  20.884  0.00  0.00    +0.000 HD
BRANCH  25  27
ATOM     27  C   UNL     1      -1.476  12.225  21.348  0.00  0.00    +0.000 A 
ATOM     28  C   UNL     1      -2.533  12.974  20.822  0.00  0.00    +0.000 A 
ATOM     29  C   UNL     1      -3.682  13.217  21.573  0.00  0.00    +0.000 A 
ATOM     30  C   UNL     1      -3.780  12.690  22.858  0.00  0.00    +0.000 A 
ATOM     31  C   UNL     1      -2.739  11.941  23.409  0.00  0.00    +0.000 A 
ATOM     32  C   UNL     1      -1.591  11.696  22.644  0.00  0.00    +0.000 A 
BRANCH  30  33
ATOM     33  S   UNL     1      -5.230  13.026  23.812  0.00  0.00    +0.000 S 
ATOM     34  O   UNL     1      -5.247  14.446  24.089  0.00  0.00    +0.000 OA
ATOM     35  O   UNL     1      -6.338  12.336  23.186  0.00  0.00    +0.000 OA
ATOM     36  F   UNL     1      -5.026  12.315  25.217  0.00  0.00    +0.000 F 
ENDBRANCH  30  33
ENDBRANCH  25  27
ENDBRANCH  22  23
ENDBRANCH  21  22
ENDBRANCH   4  21
TORSDOF 6
ENDMDL
MODEL 5
REMARK VINA RESULT:      -8.8      2.299      2.640
REMARK  Name = 
REMARK  8 active torsions:
REMARK  status: ('A' for Active; 'I' for Inactive)
REMARK    1  A    between atoms: C_1  and  C_2
REMARK    2  A    between atoms: C_2  and  C_3
REMARK    3  A    between atoms: N_10  and  C_11
REMARK    4  A    between atoms: C_14  and  O_15
REMARK    5  A    between atoms: O_15  and  C_16
REMARK    6  A    between atoms: C_16  and  C_17
REMARK    7  A    between atoms: N_19  and  C_20
REMARK    8  A    between atoms: C_23  and  S_24
REMARK                            x       y       z     vdW  Elec       q    Type
REMARK                         _______ _______ _______ _____ _____    ______ ____
ROOT
ATOM      1  C   UNL     1       2.744   6.347  19.246  0.00  0.00    +0.000 A 
ATOM      2  C   UNL     1       2.741   6.940  17.971  0.00  0.00    +0.000 A 
ATOM      3  C   UNL     1       2.254   8.234  17.759  0.00  0.00    +0.000 A 
ATOM      4  C   UNL     1       1.682   8.949  18.804  0.00  0.00    +0.000 A 
ATOM      5  C   UNL     1       1.642   8.384  20.071  0.00  0.00    +0.000 A 
ATOM      6  C   UNL     1       2.203   7.117  20.288  0.00  0.00    +0.000 A 
ENDROOT
BRANCH   1  16
ATOM      7  C   UNL     1       1.883   3.779  17.910  0.00  0.00    +0.000 C 
ATOM      8  C   UNL     1       2.440   3.870  19.345  0.00  0.00    +0.000 C 
ATOM      9  C   UNL     1       1.264   3.848  20.341  0.00  0.00    +0.000 C 
ATOM     10  N   UNL     1       3.095   2.582  19.595  0.00  0.00    +0.000 NA
ATOM     11  C   UNL     1       4.374   2.538  19.586  0.00  0.00    +0.000 C 
ATOM     12  N   UNL     1       4.985   1.355  19.823  0.00  0.00    +0.000 N 
ATOM     13  N   UNL     1       5.180   3.593  19.338  0.00  0.00    +0.000 NA
ATOM     14  C   UNL     1       4.655   4.774  19.318  0.00  0.00    +0.000 C 
ATOM     15  N   UNL     1       5.535   5.800  19.153  0.00  0.00    +0.000 N 
ATOM     16  N   UNL     1       3.316   5.066  19.481  0.00  0.00    +0.000 N 
ATOM     17  H   UNL     1       4.374   0.568  19.650  0.00  0.00    +0.000 HD
ATOM     18  H   UNL     1       5.891   1.296  19.379  0.00  0.00    +0.000 HD
ATOM     19  H   UNL     1       6.493   5.475  19.237  0.00  0.00    +0.000 HD
ATOM     20  H   UNL     1       5.348   6.603  19.741  0.00  0.00    +0.000 HD
ENDBRANCH   1  16
BRANCH   4  21
ATOM     21  O   UNL     1       1.270  10.212  18.499  0.00  0.00    +0.000 OA
BRANCH  21  22
ATOM     22  C   UNL     1       0.942  11.024  19.624  0.00  0.00    +0.000 C 
BRANCH  22  23
ATOM     23  C   UNL     1      -0.557  10.944  19.890  0.00  0.00    +0.000 C 
ATOM     24  O   UNL     1      -0.985  10.300  20.844  0.00  0.00    +0.000 OA
ATOM     25  N   UNL     1      -1.311  11.688  18.995  0.00  0.00    +0.000 N 
ATOM     26  H   UNL     1      -0.804  12.032  18.184  0.00  0.00    +0.000 HD
BRANCH  25  27
ATOM     27  C   UNL     1      -2.700  11.911  19.040  0.00  0.00    +0.000 A 
ATOM     28  C   UNL     1      -3.584  11.376  18.098  0.00  0.00    +0.000 A 
ATOM     29  C   UNL     1      -4.953  11.622  18.179  0.00  0.00    +0.000 A 
ATOM     30  C   UNL     1      -5.445  12.400  19.225  0.00  0.00    +0.000 A 
ATOM     31  C   UNL     1      -4.585  12.947  20.178  0.00  0.00    +0.000 A 
ATOM     32  C   UNL     1      -3.212  12.689  20.092  0.00  0.00    +0.000 A 
BRANCH  30  33
ATOM     33  S   UNL     1      -7.180  12.728  19.303  0.00  0.00    +0.000 S 
ATOM     34  O   UNL     1      -7.394  13.676  20.375  0.00  0.00    +0.000 OA
ATOM     35  O   UNL     1      -7.647  12.954  17.952  0.00  0.00    +0.000 OA
ATOM     36  F   UNL     1      -7.878  11.381  19.773  0.00  0.00    +0.000 F 
ENDBRANCH  30  33
ENDBRANCH  25  27
ENDBRANCH  22  23
ENDBRANCH  21  22
ENDBRANCH   4  21
TORSDOF 6
ENDMDL
MODEL 6
REMARK VINA RESULT:      -8.7      0.795      1.175
REMARK  Name = 
REMARK  8 active torsions:
REMARK  status: ('A' for Active; 'I' for Inactive)
REMARK    1  A    between atoms: C_1  and  C_2
REMARK    2  A    between atoms: C_2  and  C_3
REMARK    3  A    between atoms: N_10  and  C_11
REMARK    4  A    between atoms: C_14  and  O_15
REMARK    5  A    between atoms: O_15  and  C_16
REMARK    6  A    between atoms: C_16  and  C_17
REMARK    7  A    between atoms: N_19  and  C_20
REMARK    8  A    between atoms: C_23  and  S_24
REMARK                            x       y       z     vdW  Elec       q    Type
REMARK                         _______ _______ _______ _____ _____    ______ ____
ROOT
ATOM      1  C   UNL     1       2.649   6.454  19.264  0.00  0.00    +0.000 A 
ATOM      2  C   UNL     1       2.644   7.027  17.980  0.00  0.00    +0.000 A 
ATOM      3  C   UNL     1       2.115   8.298  17.740  0.00  0.00    +0.000 A 
ATOM      4  C   UNL     1       1.502   9.009  18.764  0.00  0.00    +0.000 A 
ATOM      5  C   UNL     1       1.462   8.463  20.039  0.00  0.00    +0.000 A 
ATOM      6  C   UNL     1       2.065   7.221  20.286  0.00  0.00    +0.000 A 
ENDROOT
BRANCH   1  16
ATOM      7  C   UNL     1       1.763   3.803  18.121  0.00  0.00    +0.000 C 
ATOM      8  C   UNL     1       2.406   3.981  19.511  0.00  0.00    +0.000 C 
ATOM      9  C   UNL     1       1.295   3.990  20.580  0.00  0.00    +0.000 C 
ATOM     10  N   UNL     1       3.104   2.720  19.785  0.00  0.00    +0.000 NA
ATOM     11  C   UNL     1       4.380   2.700  19.698  0.00  0.00    +0.000 C 
ATOM     12  N   UNL     1       5.030   1.543  19.957  0.00  0.00    +0.000 N 
ATOM     13  N   UNL     1       5.146   3.755  19.345  0.00  0.00    +0.000 NA
ATOM     14  C   UNL     1       4.595   4.924  19.297  0.00  0.00    +0.000 C 
ATOM     15  N   UNL     1       5.440   5.955  19.024  0.00  0.00    +0.000 N 
ATOM     16  N   UNL     1       3.262   5.198  19.529  0.00  0.00    +0.000 N 
ATOM     17  H   UNL     1       4.428   0.736  19.864  0.00  0.00    +0.000 HD
ATOM     18  H   UNL     1       5.908   1.477  19.461  0.00  0.00    +0.000 HD
ATOM     19  H   UNL     1       6.408   5.654  19.064  0.00  0.00    +0.000 HD
ATOM     20  H   UNL     1       5.272   6.785  19.580  0.00  0.00    +0.000 HD
ENDBRANCH   1  16
BRANCH   4  21
ATOM     21  O   UNL     1       1.050  10.252  18.432  0.00  0.00    +0.000 OA
BRANCH  21  22
ATOM     22  C   UNL     1       1.650  11.322  19.158  0.00  0.00    +0.000 C 
BRANCH  22  23
ATOM     23  C   UNL     1       0.561  12.180  19.792  0.00  0.00    +0.000 C 
ATOM     24  O   UNL     1       0.567  13.399  19.646  0.00  0.00    +0.000 OA
ATOM     25  N   UNL     1      -0.395  11.438  20.469  0.00  0.00    +0.000 N 
ATOM     26  H   UNL     1      -0.159  10.459  20.614  0.00  0.00    +0.000 HD
BRANCH  25  27
ATOM     27  C   UNL     1      -1.579  11.919  21.058  0.00  0.00    +0.000 A 
ATOM     28  C   UNL     1      -1.774  11.958  22.442  0.00  0.00    +0.000 A 
ATOM     29  C   UNL     1      -2.962  12.442  22.986  0.00  0.00    +0.000 A 
ATOM     30  C   UNL     1      -3.961  12.907  22.133  0.00  0.00    +0.000 A 
ATOM     31  C   UNL     1      -3.794  12.878  20.748  0.00  0.00    +0.000 A 
ATOM     32  C   UNL     1      -2.593  12.396  20.212  0.00  0.00    +0.000 A 
BRANCH  30  33
ATOM     33  S   UNL     1      -5.475  13.495  22.831  0.00  0.00    +0.000 S 
ATOM     34  O   UNL     1      -6.038  14.451  21.903  0.00  0.00    +0.000 OA
ATOM     35  O   UNL     1      -6.211  12.346  23.316  0.00  0.00    +0.000 OA
ATOM     36  F   UNL     1      -5.087  14.328  24.126  0.00  0.00    +0.000 F 
ENDBRANCH  30  33
ENDBRANCH  25  27
ENDBRANCH  22  23
ENDBRANCH  21  22
ENDBRANCH   4  21
TORSDOF 6
ENDMDL
MODEL 7
REMARK VINA RESULT:      -8.7      1.079      1.689
REMARK  Name = 
REMARK  8 active torsions:
REMARK  status: ('A' for Active; 'I' for Inactive)
REMARK    1  A    between atoms: C_1  and  C_2
REMARK    2  A    between atoms: C_2  and  C_3
REMARK    3  A    between atoms: N_10  and  C_11
REMARK    4  A    between atoms: C_14  and  O_15
REMARK    5  A    between atoms: O_15  and  C_16
REMARK    6  A    between atoms: C_16  and  C_17
REMARK    7  A    between atoms: N_19  and  C_20
REMARK    8  A    between atoms: C_23  and  S_24
REMARK                            x       y       z     vdW  Elec       q    Type
REMARK                         _______ _______ _______ _____ _____    ______ ____
ROOT
ATOM      1  C   UNL     1       3.091   6.275  18.999  0.00  0.00    +0.000 A 
ATOM      2  C   UNL     1       2.288   7.061  19.845  0.00  0.00    +0.000 A 
ATOM      3  C   UNL     1       1.731   8.272  19.420  0.00  0.00    +0.000 A 
ATOM      4  C   UNL     1       2.023   8.775  18.159  0.00  0.00    +0.000 A 
ATOM      5  C   UNL     1       2.836   8.041  17.307  0.00  0.00    +0.000 A 
ATOM      6  C   UNL     1       3.326   6.791  17.714  0.00  0.00    +0.000 A 
ENDROOT
BRANCH   1  16
ATOM      7  C   UNL     1       2.201   3.620  17.870  0.00  0.00    +0.000 C 
ATOM      8  C   UNL     1       2.671   3.836  19.323  0.00  0.00    +0.000 C 
ATOM      9  C   UNL     1       1.435   3.960  20.236  0.00  0.00    +0.000 C 
ATOM     10  N   UNL     1       3.251   2.555  19.742  0.00  0.00    +0.000 NA
ATOM     11  C   UNL     1       4.525   2.461  19.822  0.00  0.00    +0.000 C 
ATOM     12  N   UNL     1       5.066   1.287  20.215  0.00  0.00    +0.000 N 
ATOM     13  N   UNL     1       5.391   3.455  19.524  0.00  0.00    +0.000 NA
ATOM     14  C   UNL     1       4.922   4.647  19.354  0.00  0.00    +0.000 C 
ATOM     15  N   UNL     1       5.855   5.616  19.147  0.00  0.00    +0.000 N 
ATOM     16  N   UNL     1       3.589   5.004  19.398  0.00  0.00    +0.000 N 
ATOM     17  H   UNL     1       4.434   0.510  20.081  0.00  0.00    +0.000 HD
ATOM     18  H   UNL     1       5.995   1.148  19.840  0.00  0.00    +0.000 HD
ATOM     19  H   UNL     1       6.790   5.266  19.326  0.00  0.00    +0.000 HD
ATOM     20  H   UNL     1       5.668   6.481  19.639  0.00  0.00    +0.000 HD
ENDBRANCH   1  16
BRANCH   4  21
ATOM     21  O   UNL     1       1.402   9.944  17.831  0.00  0.00    +0.000 OA
BRANCH  21  22
ATOM     22  C   UNL     1       1.418  10.938  18.853  0.00  0.00    +0.000 C 
BRANCH  22  23
ATOM     23  C   UNL     1       0.012  11.108  19.419  0.00  0.00    +0.000 C 
ATOM     24  O   UNL     1      -0.952  10.604  18.849  0.00  0.00    +0.000 OA
ATOM     25  N   UNL     1      -0.016  11.820  20.608  0.00  0.00    +0.000 N 
ATOM     26  H   UNL     1       0.853  12.289  20.851  0.00  0.00    +0.000 HD
BRANCH  25  27
ATOM     27  C   UNL     1      -1.135  12.047  21.433  0.00  0.00    +0.000 A 
ATOM     28  C   UNL     1      -1.311  11.405  22.662  0.00  0.00    +0.000 A 
ATOM     29  C   UNL     1      -2.434  11.657  23.447  0.00  0.00    +0.000 A 
ATOM     30  C   UNL     1      -3.383  12.575  23.004  0.00  0.00    +0.000 A 
ATOM     31  C   UNL     1      -3.233  13.229  21.780  0.00  0.00    +0.000 A 
ATOM     32  C   UNL     1      -2.098  12.974  21.001  0.00  0.00    +0.000 A 
BRANCH  30  33
ATOM     33  S   UNL     1      -4.817  12.868  23.995  0.00  0.00    +0.000 S 
ATOM     34  O   UNL     1      -5.972  12.484  23.213  0.00  0.00    +0.000 OA
ATOM     35  O   UNL     1      -4.554  12.339  25.317  0.00  0.00    +0.000 OA
ATOM     36  F   UNL     1      -4.928  14.442  24.182  0.00  0.00    +0.000 F 
ENDBRANCH  30  33
ENDBRANCH  25  27
ENDBRANCH  22  23
ENDBRANCH  21  22
ENDBRANCH   4  21
TORSDOF 6
ENDMDL
MODEL 8
REMARK VINA RESULT:      -8.7      1.841      2.302
REMARK  Name = 
REMARK  8 active torsions:
REMARK  status: ('A' for Active; 'I' for Inactive)
REMARK    1  A    between atoms: C_1  and  C_2
REMARK    2  A    between atoms: C_2  and  C_3
REMARK    3  A    between atoms: N_10  and  C_11
REMARK    4  A    between atoms: C_14  and  O_15
REMARK    5  A    between atoms: O_15  and  C_16
REMARK    6  A    between atoms: C_16  and  C_17
REMARK    7  A    between atoms: N_19  and  C_20
REMARK    8  A    between atoms: C_23  and  S_24
REMARK                            x       y       z     vdW  Elec       q    Type
REMARK                         _______ _______ _______ _____ _____    ______ ____
ROOT
ATOM      1  C   UNL     1       2.735   6.520  19.329  0.00  0.00    +0.000 A 
ATOM      2  C   UNL     1       2.084   7.230  20.354  0.00  0.00    +0.000 A 
ATOM      3  C   UNL     1       1.454   8.456  20.119  0.00  0.00    +0.000 A 
ATOM      4  C   UNL     1       1.521   9.051  18.865  0.00  0.00    +0.000 A 
ATOM      5  C   UNL     1       2.179   8.393  17.836  0.00  0.00    +0.000 A 
ATOM      6  C   UNL     1       2.741   7.128  18.063  0.00  0.00    +0.000 A 
ENDROOT
BRANCH   1  16
ATOM      7  C   UNL     1       1.781   3.955  18.052  0.00  0.00    +0.000 C 
ATOM      8  C   UNL     1       2.408   4.048  19.458  0.00  0.00    +0.000 C 
ATOM      9  C   UNL     1       1.282   4.045  20.511  0.00  0.00    +0.000 C 
ATOM     10  N   UNL     1       3.061   2.754  19.684  0.00  0.00    +0.000 NA
ATOM     11  C   UNL     1       4.337   2.695  19.613  0.00  0.00    +0.000 C 
ATOM     12  N   UNL     1       4.945   1.507  19.827  0.00  0.00    +0.000 N 
ATOM     13  N   UNL     1       5.142   3.740  19.320  0.00  0.00    +0.000 NA
ATOM     14  C   UNL     1       4.629   4.927  19.319  0.00  0.00    +0.000 C 
ATOM     15  N   UNL     1       5.512   5.941  19.105  0.00  0.00    +0.000 N 
ATOM     16  N   UNL     1       3.303   5.234  19.544  0.00  0.00    +0.000 N 
ATOM     17  H   UNL     1       4.319   0.726  19.689  0.00  0.00    +0.000 HD
ATOM     18  H   UNL     1       5.828   1.435  19.341  0.00  0.00    +0.000 HD
ATOM     19  H   UNL     1       6.469   5.607  19.144  0.00  0.00    +0.000 HD
ATOM     20  H   UNL     1       5.362   6.750  19.696  0.00  0.00    +0.000 HD
ENDBRANCH   1  16
BRANCH   4  21
ATOM     21  O   UNL     1       0.845  10.228  18.733  0.00  0.00    +0.000 OA
BRANCH  21  22
ATOM     22  C   UNL     1      -0.559  10.143  18.971  0.00  0.00    +0.000 C 
BRANCH  22  23
ATOM     23  C   UNL     1      -1.031  11.406  19.682  0.00  0.00    +0.000 C 
ATOM     24  O   UNL     1      -1.640  12.276  19.064  0.00  0.00    +0.000 OA
ATOM     25  N   UNL     1      -0.741  11.412  21.038  0.00  0.00    +0.000 N 
ATOM     26  H   UNL     1      -0.103  10.683  21.346  0.00  0.00    +0.000 HD
BRANCH  25  27
ATOM     27  C   UNL     1      -1.143  12.372  21.985  0.00  0.00    +0.000 A 
ATOM     28  C   UNL     1      -2.253  12.197  22.817  0.00  0.00    +0.000 A 
ATOM     29  C   UNL     1      -2.617  13.174  23.742  0.00  0.00    +0.000 A 
ATOM     30  C   UNL     1      -1.850  14.333  23.846  0.00  0.00    +0.000 A 
ATOM     31  C   UNL     1      -0.738  14.534  23.027  0.00  0.00    +0.000 A 
ATOM     32  C   UNL     1      -0.377  13.544  22.106  0.00  0.00    +0.000 A 
BRANCH  30  33
ATOM     33  S   UNL     1      -2.335  15.577  25.004  0.00  0.00    +0.000 S 
ATOM     34  O   UNL     1      -3.772  15.721  24.909  0.00  0.00    +0.000 OA
ATOM     35  O   UNL     1      -1.655  15.306  26.253  0.00  0.00    +0.000 OA
ATOM     36  F   UNL     1      -1.729  16.948  24.480  0.00  0.00    +0.000 F 
ENDBRANCH  30  33
ENDBRANCH  25  27
ENDBRANCH  22  23
ENDBRANCH  21  22
ENDBRANCH   4  21
TORSDOF 6
ENDMDL
MODEL 9
REMARK VINA RESULT:      -8.7      1.158      1.427
REMARK  Name = 
REMARK  8 active torsions:
REMARK  status: ('A' for Active; 'I' for Inactive)
REMARK    1  A    between atoms: C_1  and  C_2
REMARK    2  A    between atoms: C_2  and  C_3
REMARK    3  A    between atoms: N_10  and  C_11
REMARK    4  A    between atoms: C_14  and  O_15
REMARK    5  A    between atoms: O_15  and  C_16
REMARK    6  A    between atoms: C_16  and  C_17
REMARK    7  A    between atoms: N_19  and  C_20
REMARK    8  A    between atoms: C_23  and  S_24
REMARK                            x       y       z     vdW  Elec       q    Type
REMARK                         _______ _______ _______ _____ _____    ______ ____
ROOT
ATOM      1  C   UNL     1       2.784   6.389  19.148  0.00  0.00    +0.000 A 
ATOM      2  C   UNL     1       2.857   6.921  17.848  0.00  0.00    +0.000 A 
ATOM      3  C   UNL     1       2.361   8.191  17.541  0.00  0.00    +0.000 A 
ATOM      4  C   UNL     1       1.705   8.942  18.508  0.00  0.00    +0.000 A 
ATOM      5  C   UNL     1       1.589   8.438  19.796  0.00  0.00    +0.000 A 
ATOM      6  C   UNL     1       2.157   7.196  20.113  0.00  0.00    +0.000 A 
ENDROOT
BRANCH   1  16
ATOM      7  C   UNL     1       1.883   3.711  18.084  0.00  0.00    +0.000 C 
ATOM      8  C   UNL     1       2.483   3.934  19.487  0.00  0.00    +0.000 C 
ATOM      9  C   UNL     1       1.337   4.008  20.516  0.00  0.00    +0.000 C 
ATOM     10  N   UNL     1       3.146   2.672  19.836  0.00  0.00    +0.000 NA
ATOM     11  C   UNL     1       4.423   2.624  19.793  0.00  0.00    +0.000 C 
ATOM     12  N   UNL     1       5.041   1.467  20.120  0.00  0.00    +0.000 N 
ATOM     13  N   UNL     1       5.221   3.650  19.423  0.00  0.00    +0.000 NA
ATOM     14  C   UNL     1       4.696   4.825  19.309  0.00  0.00    +0.000 C 
ATOM     15  N   UNL     1       5.571   5.829  19.023  0.00  0.00    +0.000 N 
ATOM     16  N   UNL     1       3.362   5.134  19.485  0.00  0.00    +0.000 N 
ATOM     17  H   UNL     1       4.426   0.669  20.040  0.00  0.00    +0.000 HD
ATOM     18  H   UNL     1       5.933   1.364  19.657  0.00  0.00    +0.000 HD
ATOM     19  H   UNL     1       6.530   5.511  19.108  0.00  0.00    +0.000 HD
ATOM     20  H   UNL     1       5.401   6.683  19.539  0.00  0.00    +0.000 HD
ENDBRANCH   1  16
BRANCH   4  21
ATOM     21  O   UNL     1       1.290  10.180  18.114  0.00  0.00    +0.000 OA
BRANCH  21  22
ATOM     22  C   UNL     1       1.875  11.265  18.830  0.00  0.00    +0.000 C 
BRANCH  22  23
ATOM     23  C   UNL     1       0.777  12.077  19.508  0.00  0.00    +0.000 C 
ATOM     24  O   UNL     1       0.069  12.835  18.851  0.00  0.00    +0.000 OA
ATOM     25  N   UNL     1       0.668  11.822  20.867  0.00  0.00    +0.000 N 
ATOM     26  H   UNL     1       1.432  11.283  21.268  0.00  0.00    +0.000 HD
BRANCH  25  27
ATOM     27  C   UNL     1      -0.313  12.320  21.745  0.00  0.00    +0.000 A 
ATOM     28  C   UNL     1      -0.349  13.655  22.161  0.00  0.00    +0.000 A 
ATOM     29  C   UNL     1      -1.337  14.107  23.033  0.00  0.00    +0.000 A 
ATOM     30  C   UNL     1      -2.310  13.216  23.481  0.00  0.00    +0.000 A 
ATOM     31  C   UNL     1      -2.297  11.879  23.083  0.00  0.00    +0.000 A 
ATOM     32  C   UNL     1      -1.303  11.435  22.202  0.00  0.00    +0.000 A 
BRANCH  30  33
ATOM     33  S   UNL     1      -3.544  13.793  24.608  0.00  0.00    +0.000 S 
ATOM     34  O   UNL     1      -4.288  12.640  25.064  0.00  0.00    +0.000 OA
ATOM     35  O   UNL     1      -2.910  14.726  25.515  0.00  0.00    +0.000 OA
ATOM     36  F   UNL     1      -4.569  14.659  23.757  0.00  0.00    +0.000 F 
ENDBRANCH  30  33
ENDBRANCH  25  27
ENDBRANCH  22  23
ENDBRANCH  21  22
ENDBRANCH   4  21
TORSDOF 6
ENDMDL
