MODEL 1
REMARK VINA RESULT:      -7.6      0.000      0.000
REMARK  Name = 
REMARK  7 active torsions:
REMARK  status: ('A' for Active; 'I' for Inactive)
REMARK    1  A    between atoms: C_1  and  C_2
REMARK    2  A    between atoms: C_2  and  O_4
REMARK    3  A    between atoms: O_4  and  C_5
REMARK    4  A    between atoms: C_12  and  C_13
REMARK    5  A    between atoms: C_13  and  O_14
REMARK    6  A    between atoms: O_14  and  C_15
REMARK    7  A    between atoms: C_15  and  C_17
REMARK                            x       y       z     vdW  Elec       q    Type
REMARK                         _______ _______ _______ _____ _____    ______ ____
ROOT
ATOM      1  C   UNL     1       5.298   5.071  18.087  0.00  0.00    +0.000 C 
ATOM      2  C   UNL     1       6.815   4.918  17.908  0.00  0.00    +0.000 C 
ATOM      3  O   UNL     1       7.633   5.222  18.777  0.00  0.00    +0.000 OA
ATOM      4  C   UNL     1       7.303   4.373  16.629  0.00  0.00    +0.000 C 
ATOM      5  C   UNL     1       6.850   4.803  15.448  0.00  0.00    +0.000 C 
ATOM      6  O   UNL     1       5.968   5.796  15.131  0.00  0.00    +0.000 OA
ATOM      7  C   UNL     1       5.190   6.504  16.004  0.00  0.00    +0.000 C 
ATOM      8  C   UNL     1       4.829   6.251  17.278  0.00  0.00    +0.000 C 
ENDROOT
BRANCH   1   9
ATOM      9  O   UNL     1       4.491   3.953  17.697  0.00  0.00    +0.000 OA
BRANCH   9  11
ATOM     10  C   UNL     1       3.662   1.782  18.026  0.00  0.00    +0.000 C 
ATOM     11  C   UNL     1       4.433   2.934  18.594  0.00  0.00    +0.000 C 
ATOM     12  O   UNL     1       4.940   2.940  19.705  0.00  0.00    +0.000 OA
ENDBRANCH   9  11
ENDBRANCH   1   9
BRANCH   8  13
ATOM     13  C   UNL     1       3.804   7.139  17.938  0.00  0.00    +0.000 C 
BRANCH  13  14
ATOM     14  O   UNL     1       2.602   6.406  18.205  0.00  0.00    +0.000 OA
BRANCH  14  15
ATOM     15  C   UNL     1       2.179   6.431  19.496  0.00  0.00    +0.000 C 
ATOM     16  O   UNL     1       2.034   7.432  20.181  0.00  0.00    +0.000 OA
BRANCH  15  17
ATOM     17  C   UNL     1       1.872   5.064  20.002  0.00  0.00    +0.000 A 
ATOM     18  C   UNL     1       2.389   4.695  21.254  0.00  0.00    +0.000 A 
ATOM     19  C   UNL     1       2.135   3.427  21.780  0.00  0.00    +0.000 A 
ATOM     20  C   UNL     1       1.359   2.520  21.062  0.00  0.00    +0.000 A 
ATOM     21  C   UNL     1       0.830   2.882  19.822  0.00  0.00    +0.000 A 
ATOM     22  C   UNL     1       1.083   4.151  19.291  0.00  0.00    +0.000 A 
ENDBRANCH  15  17
ENDBRANCH  14  15
ENDBRANCH  13  14
ENDBRANCH   8  13
TORSDOF 6
ENDMDL
MODEL 2
REMARK VINA RESULT:      -7.4      0.570      1.167
REMARK  Name = 
REMARK  7 active torsions:
REMARK  status: ('A' for Active; 'I' for Inactive)
REMARK    1  A    between atoms: C_1  and  C_2
REMARK    2  A    between atoms: C_2  and  O_4
REMARK    3  A    between atoms: O_4  and  C_5
REMARK    4  A    between atoms: C_12  and  C_13
REMARK    5  A    between atoms: C_13  and  O_14
REMARK    6  A    between atoms: O_14  and  C_15
REMARK    7  A    between atoms: C_15  and  C_17
REMARK                            x       y       z     vdW  Elec       q    Type
REMARK                         _______ _______ _______ _____ _____    ______ ____
ROOT
ATOM      1  C   UNL     1       5.120   4.826  18.352  0.00  0.00    +0.000 C 
ATOM      2  C   UNL     1       6.648   4.968  18.376  0.00  0.00    +0.000 C 
ATOM      3  O   UNL     1       7.275   5.371  19.356  0.00  0.00    +0.000 OA
ATOM      4  C   UNL     1       7.391   4.593  17.160  0.00  0.00    +0.000 C 
ATOM      5  C   UNL     1       7.018   4.995  15.941  0.00  0.00    +0.000 C 
ATOM      6  O   UNL     1       6.011   5.822  15.537  0.00  0.00    +0.000 OA
ATOM      7  C   UNL     1       5.006   6.325  16.316  0.00  0.00    +0.000 C 
ATOM      8  C   UNL     1       4.541   5.940  17.521  0.00  0.00    +0.000 C 
ENDROOT
BRANCH   1   9
ATOM      9  O   UNL     1       4.598   3.600  17.824  0.00  0.00    +0.000 OA
BRANCH   9  11
ATOM     10  C   UNL     1       3.513   1.547  18.162  0.00  0.00    +0.000 C 
ATOM     11  C   UNL     1       4.400   2.611  18.734  0.00  0.00    +0.000 C 
ATOM     12  O   UNL     1       4.876   2.577  19.857  0.00  0.00    +0.000 OA
ENDBRANCH   9  11
ENDBRANCH   1   9
BRANCH   8  13
ATOM     13  C   UNL     1       3.289   6.585  18.062  0.00  0.00    +0.000 C 
BRANCH  13  14
ATOM     14  O   UNL     1       3.366   6.715  19.487  0.00  0.00    +0.000 OA
BRANCH  14  15
ATOM     15  C   UNL     1       2.187   6.573  20.149  0.00  0.00    +0.000 C 
ATOM     16  O   UNL     1       1.424   7.478  20.451  0.00  0.00    +0.000 OA
BRANCH  15  17
ATOM     17  C   UNL     1       1.895   5.144  20.454  0.00  0.00    +0.000 A 
ATOM     18  C   UNL     1       1.050   4.445  19.579  0.00  0.00    +0.000 A 
ATOM     19  C   UNL     1       0.739   3.104  19.813  0.00  0.00    +0.000 A 
ATOM     20  C   UNL     1       1.275   2.451  20.921  0.00  0.00    +0.000 A 
ATOM     21  C   UNL     1       2.127   3.134  21.790  0.00  0.00    +0.000 A 
ATOM     22  C   UNL     1       2.439   4.478  21.559  0.00  0.00    +0.000 A 
ENDBRANCH  15  17
ENDBRANCH  14  15
ENDBRANCH  13  14
ENDBRANCH   8  13
TORSDOF 6
ENDMDL
MODEL 3
REMARK VINA RESULT:      -6.9      0.953      1.184
REMARK  Name = 
REMARK  7 active torsions:
REMARK  status: ('A' for Active; 'I' for Inactive)
REMARK    1  A    between atoms: C_1  and  C_2
REMARK    2  A    between atoms: C_2  and  O_4
REMARK    3  A    between atoms: O_4  and  C_5
REMARK    4  A    between atoms: C_12  and  C_13
REMARK    5  A    between atoms: C_13  and  O_14
REMARK    6  A    between atoms: O_14  and  C_15
REMARK    7  A    between atoms: C_15  and  C_17
REMARK                            x       y       z     vdW  Elec       q    Type
REMARK                         _______ _______ _______ _____ _____    ______ ____
ROOT
ATOM      1  C   UNL     1       4.713   5.006  18.029  0.00  0.00    +0.000 C 
ATOM      2  C   UNL     1       6.129   4.788  18.581  0.00  0.00    +0.000 C 
ATOM      3  O   UNL     1       6.391   4.768  19.784  0.00  0.00    +0.000 OA
ATOM      4  C   UNL     1       7.220   4.586  17.611  0.00  0.00    +0.000 C 
ATOM      5  C   UNL     1       7.376   5.366  16.537  0.00  0.00    +0.000 C 
ATOM      6  O   UNL     1       6.696   6.476  16.126  0.00  0.00    +0.000 OA
ATOM      7  C   UNL     1       5.541   6.970  16.666  0.00  0.00    +0.000 C 
ATOM      8  C   UNL     1       4.620   6.399  17.468  0.00  0.00    +0.000 C 
ENDROOT
BRANCH   1   9
ATOM      9  O   UNL     1       4.284   4.111  16.995  0.00  0.00    +0.000 OA
BRANCH   9  11
ATOM     10  C   UNL     1       3.771   2.310  18.410  0.00  0.00    +0.000 C 
ATOM     11  C   UNL     1       3.293   3.249  17.345  0.00  0.00    +0.000 C 
ATOM     12  O   UNL     1       2.168   3.236  16.871  0.00  0.00    +0.000 OA
ENDBRANCH   9  11
ENDBRANCH   1   9
BRANCH   8  13
ATOM     13  C   UNL     1       3.342   7.146  17.762  0.00  0.00    +0.000 C 
BRANCH  13  14
ATOM     14  O   UNL     1       2.343   6.251  18.265  0.00  0.00    +0.000 OA
BRANCH  14  15
ATOM     15  C   UNL     1       2.094   6.346  19.598  0.00  0.00    +0.000 C 
ATOM     16  O   UNL     1       2.069   7.381  20.248  0.00  0.00    +0.000 OA
BRANCH  15  17
ATOM     17  C   UNL     1       1.818   5.014  20.204  0.00  0.00    +0.000 A 
ATOM     18  C   UNL     1       2.614   4.608  21.287  0.00  0.00    +0.000 A 
ATOM     19  C   UNL     1       2.403   3.369  21.896  0.00  0.00    +0.000 A 
ATOM     20  C   UNL     1       1.393   2.530  21.432  0.00  0.00    +0.000 A 
ATOM     21  C   UNL     1       0.587   2.931  20.365  0.00  0.00    +0.000 A 
ATOM     22  C   UNL     1       0.797   4.171  19.751  0.00  0.00    +0.000 A 
ENDBRANCH  15  17
ENDBRANCH  14  15
ENDBRANCH  13  14
ENDBRANCH   8  13
TORSDOF 6
ENDMDL
MODEL 4
REMARK VINA RESULT:      -6.9      1.553      3.469
REMARK  Name = 
REMARK  7 active torsions:
REMARK  status: ('A' for Active; 'I' for Inactive)
REMARK    1  A    between atoms: C_1  and  C_2
REMARK    2  A    between atoms: C_2  and  O_4
REMARK    3  A    between atoms: O_4  and  C_5
REMARK    4  A    between atoms: C_12  and  C_13
REMARK    5  A    between atoms: C_13  and  O_14
REMARK    6  A    between atoms: O_14  and  C_15
REMARK    7  A    between atoms: C_15  and  C_17
REMARK                            x       y       z     vdW  Elec       q    Type
REMARK                         _______ _______ _______ _____ _____    ______ ____
ROOT
ATOM      1  C   UNL     1       6.187   4.813  16.143  0.00  0.00    +0.000 C 
ATOM      2  C   UNL     1       7.311   5.307  17.066  0.00  0.00    +0.000 C 
ATOM      3  O   UNL     1       8.054   4.551  17.692  0.00  0.00    +0.000 OA
ATOM      4  C   UNL     1       7.502   6.762  17.194  0.00  0.00    +0.000 C 
ATOM      5  C   UNL     1       6.483   7.603  17.396  0.00  0.00    +0.000 C 
ATOM      6  O   UNL     1       5.152   7.372  17.588  0.00  0.00    +0.000 OA
ATOM      7  C   UNL     1       4.504   6.176  17.451  0.00  0.00    +0.000 C 
ATOM      8  C   UNL     1       4.864   5.038  16.823  0.00  0.00    +0.000 C 
ENDROOT
BRANCH   1   9
ATOM      9  O   UNL     1       6.101   5.429  14.852  0.00  0.00    +0.000 OA
BRANCH   9  11
ATOM     10  C   UNL     1       6.348   3.752  13.229  0.00  0.00    +0.000 C 
ATOM     11  C   UNL     1       6.953   4.939  13.913  0.00  0.00    +0.000 C 
ATOM     12  O   UNL     1       8.054   5.397  13.650  0.00  0.00    +0.000 OA
ENDBRANCH   9  11
ENDBRANCH   1   9
BRANCH   8  13
ATOM     13  C   UNL     1       3.853   3.927  16.688  0.00  0.00    +0.000 C 
BRANCH  13  14
ATOM     14  O   UNL     1       4.268   2.777  17.437  0.00  0.00    +0.000 OA
BRANCH  14  15
ATOM     15  C   UNL     1       4.342   2.956  18.783  0.00  0.00    +0.000 C 
ATOM     16  O   UNL     1       5.356   2.875  19.459  0.00  0.00    +0.000 OA
BRANCH  15  17
ATOM     17  C   UNL     1       3.016   3.301  19.367  0.00  0.00    +0.000 A 
ATOM     18  C   UNL     1       2.930   4.452  20.166  0.00  0.00    +0.000 A 
ATOM     19  C   UNL     1       1.715   4.826  20.742  0.00  0.00    +0.000 A 
ATOM     20  C   UNL     1       0.575   4.057  20.520  0.00  0.00    +0.000 A 
ATOM     21  C   UNL     1       0.647   2.918  19.716  0.00  0.00    +0.000 A 
ATOM     22  C   UNL     1       1.864   2.539  19.139  0.00  0.00    +0.000 A 
ENDBRANCH  15  17
ENDBRANCH  14  15
ENDBRANCH  13  14
ENDBRANCH   8  13
TORSDOF 6
ENDMDL
MODEL 5
REMARK VINA RESULT:      -6.9      2.404      3.463
REMARK  Name = 
REMARK  7 active torsions:
REMARK  status: ('A' for Active; 'I' for Inactive)
REMARK    1  A    between atoms: C_1  and  C_2
REMARK    2  A    between atoms: C_2  and  O_4
REMARK    3  A    between atoms: O_4  and  C_5
REMARK    4  A    between atoms: C_12  and  C_13
REMARK    5  A    between atoms: C_13  and  O_14
REMARK    6  A    between atoms: O_14  and  C_15
REMARK    7  A    between atoms: C_15  and  C_17
REMARK                            x       y       z     vdW  Elec       q    Type
REMARK                         _______ _______ _______ _____ _____    ______ ____
ROOT
ATOM      1  C   UNL     1       4.642   4.650  18.221  0.00  0.00    +0.000 C 
ATOM      2  C   UNL     1       6.110   4.860  18.618  0.00  0.00    +0.000 C 
ATOM      3  O   UNL     1       6.478   5.043  19.778  0.00  0.00    +0.000 OA
ATOM      4  C   UNL     1       7.120   4.833  17.545  0.00  0.00    +0.000 C 
ATOM      5  C   UNL     1       6.965   5.500  16.398  0.00  0.00    +0.000 C 
ATOM      6  O   UNL     1       5.981   6.348  15.978  0.00  0.00    +0.000 OA
ATOM      7  C   UNL     1       4.792   6.592  16.607  0.00  0.00    +0.000 C 
ATOM      8  C   UNL     1       4.133   5.901  17.558  0.00  0.00    +0.000 C 
ENDROOT
BRANCH   1   9
ATOM      9  O   UNL     1       4.369   3.565  17.326  0.00  0.00    +0.000 OA
BRANCH   9  11
ATOM     10  C   UNL     1       3.605   1.845  18.728  0.00  0.00    +0.000 C 
ATOM     11  C   UNL     1       3.279   2.814  17.634  0.00  0.00    +0.000 C 
ATOM     12  O   UNL     1       2.182   2.911  17.107  0.00  0.00    +0.000 OA
ENDBRANCH   9  11
ENDBRANCH   1   9
BRANCH   8  13
ATOM     13  C   UNL     1       2.737   6.329  17.938  0.00  0.00    +0.000 C 
BRANCH  13  14
ATOM     14  O   UNL     1       2.781   7.430  18.855  0.00  0.00    +0.000 OA
BRANCH  14  15
ATOM     15  C   UNL     1       2.073   8.528  18.480  0.00  0.00    +0.000 C 
ATOM     16  O   UNL     1       2.090   9.046  17.373  0.00  0.00    +0.000 OA
BRANCH  15  17
ATOM     17  C   UNL     1       1.221   9.040  19.589  0.00  0.00    +0.000 A 
ATOM     18  C   UNL     1       1.354   8.440  20.851  0.00  0.00    +0.000 A 
ATOM     19  C   UNL     1       0.581   8.876  21.928  0.00  0.00    +0.000 A 
ATOM     20  C   UNL     1      -0.326   9.919  21.755  0.00  0.00    +0.000 A 
ATOM     21  C   UNL     1      -0.456  10.531  20.508  0.00  0.00    +0.000 A 
ATOM     22  C   UNL     1       0.315  10.096  19.425  0.00  0.00    +0.000 A 
ENDBRANCH  15  17
ENDBRANCH  14  15
ENDBRANCH  13  14
ENDBRANCH   8  13
TORSDOF 6
ENDMDL
MODEL 6
REMARK VINA RESULT:      -6.8      1.923      5.545
REMARK  Name = 
REMARK  7 active torsions:
REMARK  status: ('A' for Active; 'I' for Inactive)
REMARK    1  A    between atoms: C_1  and  C_2
REMARK    2  A    between atoms: C_2  and  O_4
REMARK    3  A    between atoms: O_4  and  C_5
REMARK    4  A    between atoms: C_12  and  C_13
REMARK    5  A    between atoms: C_13  and  O_14
REMARK    6  A    between atoms: O_14  and  C_15
REMARK    7  A    between atoms: C_15  and  C_17
REMARK                            x       y       z     vdW  Elec       q    Type
REMARK                         _______ _______ _______ _____ _____    ______ ____
ROOT
ATOM      1  C   UNL     1       2.807   3.298  18.986  0.00  0.00    +0.000 C 
ATOM      2  C   UNL     1       1.454   3.511  19.680  0.00  0.00    +0.000 C 
ATOM      3  O   UNL     1       0.455   2.834  19.436  0.00  0.00    +0.000 OA
ATOM      4  C   UNL     1       1.363   4.579  20.691  0.00  0.00    +0.000 C 
ATOM      5  C   UNL     1       1.849   5.805  20.483  0.00  0.00    +0.000 C 
ATOM      6  O   UNL     1       2.433   6.366  19.384  0.00  0.00    +0.000 OA
ATOM      7  C   UNL     1       2.814   5.717  18.243  0.00  0.00    +0.000 C 
ATOM      8  C   UNL     1       3.025   4.409  17.994  0.00  0.00    +0.000 C 
ENDROOT
BRANCH   1   9
ATOM      9  O   UNL     1       3.963   3.265  19.833  0.00  0.00    +0.000 OA
BRANCH   9  11
ATOM     10  C   UNL     1       4.118   1.095  18.951  0.00  0.00    +0.000 C 
ATOM     11  C   UNL     1       4.482   2.030  20.064  0.00  0.00    +0.000 C 
ATOM     12  O   UNL     1       5.157   1.716  21.031  0.00  0.00    +0.000 OA
ENDBRANCH   9  11
ENDBRANCH   1   9
BRANCH   8  13
ATOM     13  C   UNL     1       3.619   4.003  16.668  0.00  0.00    +0.000 C 
BRANCH  13  14
ATOM     14  O   UNL     1       4.547   4.995  16.209  0.00  0.00    +0.000 OA
BRANCH  14  15
ATOM     15  C   UNL     1       5.854   4.621  16.228  0.00  0.00    +0.000 C 
ATOM     16  O   UNL     1       6.339   3.687  15.607  0.00  0.00    +0.000 OA
BRANCH  15  17
ATOM     17  C   UNL     1       6.671   5.517  17.093  0.00  0.00    +0.000 A 
ATOM     18  C   UNL     1       7.232   4.973  18.258  0.00  0.00    +0.000 A 
ATOM     19  C   UNL     1       8.007   5.764  19.108  0.00  0.00    +0.000 A 
ATOM     20  C   UNL     1       8.231   7.103  18.798  0.00  0.00    +0.000 A 
ATOM     21  C   UNL     1       7.689   7.651  17.635  0.00  0.00    +0.000 A 
ATOM     22  C   UNL     1       6.910   6.862  16.781  0.00  0.00    +0.000 A 
ENDBRANCH  15  17
ENDBRANCH  14  15
ENDBRANCH  13  14
ENDBRANCH   8  13
TORSDOF 6
ENDMDL
MODEL 7
REMARK VINA RESULT:      -6.8      1.908      6.547
REMARK  Name = 
REMARK  7 active torsions:
REMARK  status: ('A' for Active; 'I' for Inactive)
REMARK    1  A    between atoms: C_1  and  C_2
REMARK    2  A    between atoms: C_2  and  O_4
REMARK    3  A    between atoms: O_4  and  C_5
REMARK    4  A    between atoms: C_12  and  C_13
REMARK    5  A    between atoms: C_13  and  O_14
REMARK    6  A    between atoms: O_14  and  C_15
REMARK    7  A    between atoms: C_15  and  C_17
REMARK                            x       y       z     vdW  Elec       q    Type
REMARK                         _______ _______ _______ _____ _____    ______ ____
ROOT
ATOM      1  C   UNL     1       3.170   4.908  19.076  0.00  0.00    +0.000 C 
ATOM      2  C   UNL     1       2.272   4.289  20.157  0.00  0.00    +0.000 C 
ATOM      3  O   UNL     1       2.537   4.324  21.359  0.00  0.00    +0.000 OA
ATOM      4  C   UNL     1       1.030   3.628  19.720  0.00  0.00    +0.000 C 
ATOM      5  C   UNL     1       0.998   2.767  18.699  0.00  0.00    +0.000 C 
ATOM      6  O   UNL     1       1.997   2.265  17.916  0.00  0.00    +0.000 OA
ATOM      7  C   UNL     1       3.301   2.673  17.896  0.00  0.00    +0.000 C 
ATOM      8  C   UNL     1       3.884   3.803  18.346  0.00  0.00    +0.000 C 
ENDROOT
BRANCH   1   9
ATOM      9  O   UNL     1       2.518   5.709  18.083  0.00  0.00    +0.000 OA
BRANCH   9  11
ATOM     10  C   UNL     1       4.048   7.331  17.351  0.00  0.00    +0.000 C 
ATOM     11  C   UNL     1       2.801   7.037  18.127  0.00  0.00    +0.000 C 
ATOM     12  O   UNL     1       2.137   7.883  18.706  0.00  0.00    +0.000 OA
ENDBRANCH   9  11
ENDBRANCH   1   9
BRANCH   8  13
ATOM     13  C   UNL     1       5.336   4.055  18.022  0.00  0.00    +0.000 C 
BRANCH  13  14
ATOM     14  O   UNL     1       5.556   3.975  16.608  0.00  0.00    +0.000 OA
BRANCH  14  15
ATOM     15  C   UNL     1       6.590   4.722  16.138  0.00  0.00    +0.000 C 
ATOM     16  O   UNL     1       7.335   5.416  16.813  0.00  0.00    +0.000 OA
BRANCH  15  17
ATOM     17  C   UNL     1       6.746   4.580  14.663  0.00  0.00    +0.000 A 
ATOM     18  C   UNL     1       5.902   3.678  13.997  0.00  0.00    +0.000 A 
ATOM     19  C   UNL     1       6.002   3.502  12.616  0.00  0.00    +0.000 A 
ATOM     20  C   UNL     1       6.941   4.229  11.889  0.00  0.00    +0.000 A 
ATOM     21  C   UNL     1       7.777   5.138  12.540  0.00  0.00    +0.000 A 
ATOM     22  C   UNL     1       7.680   5.316  13.924  0.00  0.00    +0.000 A 
ENDBRANCH  15  17
ENDBRANCH  14  15
ENDBRANCH  13  14
ENDBRANCH   8  13
TORSDOF 6
ENDMDL
MODEL 8
REMARK VINA RESULT:      -6.8      1.672      3.075
REMARK  Name = 
REMARK  7 active torsions:
REMARK  status: ('A' for Active; 'I' for Inactive)
REMARK    1  A    between atoms: C_1  and  C_2
REMARK    2  A    between atoms: C_2  and  O_4
REMARK    3  A    between atoms: O_4  and  C_5
REMARK    4  A    between atoms: C_12  and  C_13
REMARK    5  A    between atoms: C_13  and  O_14
REMARK    6  A    between atoms: O_14  and  C_15
REMARK    7  A    between atoms: C_15  and  C_17
REMARK                            x       y       z     vdW  Elec       q    Type
REMARK                         _______ _______ _______ _____ _____    ______ ____
ROOT
ATOM      1  C   UNL     1       6.015   6.078  16.937  0.00  0.00    +0.000 C 
ATOM      2  C   UNL     1       5.614   6.201  15.460  0.00  0.00    +0.000 C 
ATOM      3  O   UNL     1       4.840   7.060  15.038  0.00  0.00    +0.000 OA
ATOM      4  C   UNL     1       6.198   5.239  14.509  0.00  0.00    +0.000 C 
ATOM      5  C   UNL     1       6.242   3.926  14.755  0.00  0.00    +0.000 C 
ATOM      6  O   UNL     1       5.755   3.190  15.796  0.00  0.00    +0.000 OA
ATOM      7  C   UNL     1       5.225   3.675  16.959  0.00  0.00    +0.000 C 
ATOM      8  C   UNL     1       5.311   4.891  17.535  0.00  0.00    +0.000 C 
ENDROOT
BRANCH   1   9
ATOM      9  O   UNL     1       7.413   5.914  17.209  0.00  0.00    +0.000 OA
BRANCH   9  11
ATOM     10  C   UNL     1       7.952   8.115  17.820  0.00  0.00    +0.000 C 
ATOM     11  C   UNL     1       7.902   6.673  18.224  0.00  0.00    +0.000 C 
ATOM     12  O   UNL     1       8.249   6.254  19.317  0.00  0.00    +0.000 OA
ENDBRANCH   9  11
ENDBRANCH   1   9
BRANCH   8  13
ATOM     13  C   UNL     1       4.759   5.082  18.926  0.00  0.00    +0.000 C 
BRANCH  13  14
ATOM     14  O   UNL     1       4.037   6.317  19.015  0.00  0.00    +0.000 OA
BRANCH  14  15
ATOM     15  C   UNL     1       2.756   6.275  18.563  0.00  0.00    +0.000 C 
ATOM     16  O   UNL     1       2.211   7.129  17.880  0.00  0.00    +0.000 OA
BRANCH  15  17
ATOM     17  C   UNL     1       2.066   5.021  18.976  0.00  0.00    +0.000 A 
ATOM     18  C   UNL     1       1.805   4.835  20.343  0.00  0.00    +0.000 A 
ATOM     19  C   UNL     1       1.162   3.679  20.790  0.00  0.00    +0.000 A 
ATOM     20  C   UNL     1       0.770   2.704  19.876  0.00  0.00    +0.000 A 
ATOM     21  C   UNL     1       1.014   2.885  18.514  0.00  0.00    +0.000 A 
ATOM     22  C   UNL     1       1.659   4.042  18.062  0.00  0.00    +0.000 A 
ENDBRANCH  15  17
ENDBRANCH  14  15
ENDBRANCH  13  14
ENDBRANCH   8  13
TORSDOF 6
ENDMDL
MODEL 9
REMARK VINA RESULT:      -6.8      1.814      5.906
REMARK  Name = 
REMARK  7 active torsions:
REMARK  status: ('A' for Active; 'I' for Inactive)
REMARK    1  A    between atoms: C_1  and  C_2
REMARK    2  A    between atoms: C_2  and  O_4
REMARK    3  A    between atoms: O_4  and  C_5
REMARK    4  A    between atoms: C_12  and  C_13
REMARK    5  A    between atoms: C_13  and  O_14
REMARK    6  A    between atoms: O_14  and  C_15
REMARK    7  A    between atoms: C_15  and  C_17
REMARK                            x       y       z     vdW  Elec       q    Type
REMARK                         _______ _______ _______ _____ _____    ______ ____
ROOT
ATOM      1  C   UNL     1       3.271   3.721  19.410  0.00  0.00    +0.000 C 
ATOM      2  C   UNL     1       2.625   3.047  20.628  0.00  0.00    +0.000 C 
ATOM      3  O   UNL     1       3.273   2.558  21.554  0.00  0.00    +0.000 OA
ATOM      4  C   UNL     1       1.153   2.995  20.682  0.00  0.00    +0.000 C 
ATOM      5  C   UNL     1       0.411   2.620  19.636  0.00  0.00    +0.000 C 
ATOM      6  O   UNL     1       0.767   2.167  18.399  0.00  0.00    +0.000 OA
ATOM      7  C   UNL     1       2.027   2.146  17.869  0.00  0.00    +0.000 C 
ATOM      8  C   UNL     1       3.150   2.802  18.224  0.00  0.00    +0.000 C 
ENDROOT
BRANCH   1   9
ATOM      9  O   UNL     1       2.727   4.986  19.013  0.00  0.00    +0.000 OA
BRANCH   9  11
ATOM     10  C   UNL     1       3.125   7.097  18.069  0.00  0.00    +0.000 C 
ATOM     11  C   UNL     1       3.608   6.020  18.991  0.00  0.00    +0.000 C 
ATOM     12  O   UNL     1       4.645   6.079  19.632  0.00  0.00    +0.000 OA
ENDBRANCH   9  11
ENDBRANCH   1   9
BRANCH   8  13
ATOM     13  C   UNL     1       4.363   2.711  17.332  0.00  0.00    +0.000 C 
BRANCH  13  14
ATOM     14  O   UNL     1       4.485   3.891  16.528  0.00  0.00    +0.000 OA
BRANCH  14  15
ATOM     15  C   UNL     1       5.724   4.123  16.020  0.00  0.00    +0.000 C 
ATOM     16  O   UNL     1       6.169   3.658  14.980  0.00  0.00    +0.000 OA
BRANCH  15  17
ATOM     17  C   UNL     1       6.505   5.059  16.875  0.00  0.00    +0.000 A 
ATOM     18  C   UNL     1       6.448   6.429  16.571  0.00  0.00    +0.000 A 
ATOM     19  C   UNL     1       7.159   7.355  17.337  0.00  0.00    +0.000 A 
ATOM     20  C   UNL     1       7.927   6.921  18.415  0.00  0.00    +0.000 A 
ATOM     21  C   UNL     1       7.980   5.563  18.733  0.00  0.00    +0.000 A 
ATOM     22  C   UNL     1       7.270   4.632  17.967  0.00  0.00    +0.000 A 
ENDBRANCH  15  17
ENDBRANCH  14  15
ENDBRANCH  13  14
ENDBRANCH   8  13
TORSDOF 6
ENDMDL
