MODEL 1
REMARK VINA RESULT:      -7.4      0.000      0.000
REMARK  Name = 
REMARK  3 active torsions:
REMARK  status: ('A' for Active; 'I' for Inactive)
REMARK    1  A    between atoms: C_1  and  C_2
REMARK    2  A    between atoms: C_5  and  C_6
REMARK    3  A    between atoms: C_15  and  C_16
REMARK                            x       y       z     vdW  Elec       q    Type
REMARK                         _______ _______ _______ _____ _____    ______ ____
ROOT
ATOM      1  C   UNL     1       4.940   4.438  17.760  0.00  0.00    +0.000 C 
ATOM      2  O   UNL     1       4.895   3.318  18.281  0.00  0.00    +0.000 OA
ATOM      3  N   UNL     1       4.342   5.557  18.363  0.00  0.00    +0.000 N 
ATOM      4  C   UNL     1       3.887   5.418  19.755  0.00  0.00    +0.000 C 
ATOM      5  C   UNL     1       2.369   5.510  19.901  0.00  0.00    +0.000 C 
ATOM      6  C   UNL     1       1.921   6.950  19.929  0.00  0.00    +0.000 A 
ATOM      7  N   UNL     1       1.441   7.393  21.107  0.00  0.00    +0.000 NA
ATOM      8  C   UNL     1       1.084   8.682  21.158  0.00  0.00    +0.000 A 
ATOM      9  N   UNL     1       1.154   9.557  20.149  0.00  0.00    +0.000 NA
ATOM     10  C   UNL     1       1.635   9.094  18.977  0.00  0.00    +0.000 A 
ATOM     11  C   UNL     1       1.680  10.097  17.861  0.00  0.00    +0.000 C 
ATOM     12  C   UNL     1       2.057   7.774  18.817  0.00  0.00    +0.000 A 
ATOM     13  C   UNL     1       2.660   7.250  17.545  0.00  0.00    +0.000 C 
ATOM     14  C   UNL     1       4.135   6.864  17.715  0.00  0.00    +0.000 C 
ENDROOT
BRANCH   1  19
ATOM     15  C   UNL     1       7.724   5.122  12.854  0.00  0.00    +0.000 C 
ATOM     16  C   UNL     1       7.022   4.891  14.153  0.00  0.00    +0.000 A 
ATOM     17  C   UNL     1       5.789   4.257  14.191  0.00  0.00    +0.000 A 
ATOM     18  N   UNL     1       5.086   4.096  15.332  0.00  0.00    +0.000 NA
ATOM     19  C   UNL     1       5.677   4.548  16.467  0.00  0.00    +0.000 A 
ATOM     20  C   UNL     1       6.911   5.181  16.436  0.00  0.00    +0.000 A 
ATOM     21  N   UNL     1       7.609   5.360  15.283  0.00  0.00    +0.000 NA
ENDBRANCH   1  19
TORSDOF 1
ENDMDL
MODEL 2
REMARK VINA RESULT:      -7.2      3.144      4.733
REMARK  Name = 
REMARK  3 active torsions:
REMARK  status: ('A' for Active; 'I' for Inactive)
REMARK    1  A    between atoms: C_1  and  C_2
REMARK    2  A    between atoms: C_5  and  C_6
REMARK    3  A    between atoms: C_15  and  C_16
REMARK                            x       y       z     vdW  Elec       q    Type
REMARK                         _______ _______ _______ _____ _____    ______ ____
ROOT
ATOM      1  C   UNL     1       6.671   5.674  16.913  0.00  0.00    +0.000 C 
ATOM      2  O   UNL     1       7.065   5.273  15.812  0.00  0.00    +0.000 OA
ATOM      3  N   UNL     1       5.623   5.036  17.599  0.00  0.00    +0.000 N 
ATOM      4  C   UNL     1       5.182   3.724  17.099  0.00  0.00    +0.000 C 
ATOM      5  C   UNL     1       3.759   3.743  16.545  0.00  0.00    +0.000 C 
ATOM      6  C   UNL     1       2.749   3.625  17.659  0.00  0.00    +0.000 A 
ATOM      7  N   UNL     1       2.056   2.471  17.705  0.00  0.00    +0.000 NA
ATOM      8  C   UNL     1       1.191   2.335  18.717  0.00  0.00    +0.000 A 
ATOM      9  N   UNL     1       0.952   3.240  19.673  0.00  0.00    +0.000 NA
ATOM     10  C   UNL     1       1.654   4.390  19.609  0.00  0.00    +0.000 A 
ATOM     11  C   UNL     1       1.346   5.390  20.685  0.00  0.00    +0.000 C 
ATOM     12  C   UNL     1       2.598   4.629  18.611  0.00  0.00    +0.000 A 
ATOM     13  C   UNL     1       3.443   5.870  18.555  0.00  0.00    +0.000 C 
ATOM     14  C   UNL     1       4.930   5.573  18.783  0.00  0.00    +0.000 C 
ENDROOT
BRANCH   1  19
ATOM     15  C   UNL     1       9.196  10.158  19.320  0.00  0.00    +0.000 C 
ATOM     16  C   UNL     1       8.583   8.969  18.656  0.00  0.00    +0.000 A 
ATOM     17  C   UNL     1       7.814   9.113  17.510  0.00  0.00    +0.000 A 
ATOM     18  N   UNL     1       7.179   8.077  16.922  0.00  0.00    +0.000 NA
ATOM     19  C   UNL     1       7.373   6.859  17.488  0.00  0.00    +0.000 A 
ATOM     20  C   UNL     1       8.142   6.708  18.632  0.00  0.00    +0.000 A 
ATOM     21  N   UNL     1       8.766   7.755  19.235  0.00  0.00    +0.000 NA
ENDBRANCH   1  19
TORSDOF 1
ENDMDL
MODEL 3
REMARK VINA RESULT:      -7.2      2.961      7.191
REMARK  Name = 
REMARK  3 active torsions:
REMARK  status: ('A' for Active; 'I' for Inactive)
REMARK    1  A    between atoms: C_1  and  C_2
REMARK    2  A    between atoms: C_5  and  C_6
REMARK    3  A    between atoms: C_15  and  C_16
REMARK                            x       y       z     vdW  Elec       q    Type
REMARK                         _______ _______ _______ _____ _____    ______ ____
ROOT
ATOM      1  C   UNL     1       5.717   4.756  18.924  0.00  0.00    +0.000 C 
ATOM      2  O   UNL     1       6.360   5.566  19.602  0.00  0.00    +0.000 OA
ATOM      3  N   UNL     1       6.080   4.448  17.602  0.00  0.00    +0.000 N 
ATOM      4  C   UNL     1       7.395   4.912  17.132  0.00  0.00    +0.000 C 
ATOM      5  C   UNL     1       7.298   5.964  16.028  0.00  0.00    +0.000 C 
ATOM      6  C   UNL     1       7.080   5.313  14.686  0.00  0.00    +0.000 A 
ATOM      7  N   UNL     1       8.109   5.393  13.820  0.00  0.00    +0.000 NA
ATOM      8  C   UNL     1       7.946   4.777  12.642  0.00  0.00    +0.000 A 
ATOM      9  N   UNL     1       6.858   4.104  12.252  0.00  0.00    +0.000 NA
ATOM     10  C   UNL     1       5.839   4.036  13.131  0.00  0.00    +0.000 A 
ATOM     11  C   UNL     1       4.627   3.290  12.653  0.00  0.00    +0.000 C 
ATOM     12  C   UNL     1       5.908   4.622  14.396  0.00  0.00    +0.000 A 
ATOM     13  C   UNL     1       4.816   4.504  15.420  0.00  0.00    +0.000 C 
ATOM     14  C   UNL     1       5.252   3.692  16.646  0.00  0.00    +0.000 C 
ENDROOT
BRANCH   1  19
ATOM     15  C   UNL     1       1.287   2.456  21.638  0.00  0.00    +0.000 C 
ATOM     16  C   UNL     1       2.427   3.045  20.872  0.00  0.00    +0.000 A 
ATOM     17  C   UNL     1       3.573   2.305  20.623  0.00  0.00    +0.000 A 
ATOM     18  N   UNL     1       4.655   2.821  20.003  0.00  0.00    +0.000 NA
ATOM     19  C   UNL     1       4.546   4.108  19.583  0.00  0.00    +0.000 A 
ATOM     20  C   UNL     1       3.401   4.852  19.827  0.00  0.00    +0.000 A 
ATOM     21  N   UNL     1       2.320   4.337  20.470  0.00  0.00    +0.000 NA
ENDBRANCH   1  19
TORSDOF 1
ENDMDL
MODEL 4
REMARK VINA RESULT:      -6.9      3.422      7.683
REMARK  Name = 
REMARK  3 active torsions:
REMARK  status: ('A' for Active; 'I' for Inactive)
REMARK    1  A    between atoms: C_1  and  C_2
REMARK    2  A    between atoms: C_5  and  C_6
REMARK    3  A    between atoms: C_15  and  C_16
REMARK                            x       y       z     vdW  Elec       q    Type
REMARK                         _______ _______ _______ _____ _____    ______ ____
ROOT
ATOM      1  C   UNL     1       1.713   8.643  19.128  0.00  0.00    +0.000 C 
ATOM      2  O   UNL     1       1.881   9.168  18.022  0.00  0.00    +0.000 OA
ATOM      3  N   UNL     1       2.251   7.381  19.436  0.00  0.00    +0.000 N 
ATOM      4  C   UNL     1       3.239   6.818  18.502  0.00  0.00    +0.000 C 
ATOM      5  C   UNL     1       2.740   5.561  17.791  0.00  0.00    +0.000 C 
ATOM      6  C   UNL     1       2.917   4.345  18.667  0.00  0.00    +0.000 A 
ATOM      7  N   UNL     1       3.846   3.459  18.261  0.00  0.00    +0.000 NA
ATOM      8  C   UNL     1       4.046   2.400  19.055  0.00  0.00    +0.000 A 
ATOM      9  N   UNL     1       3.404   2.144  20.200  0.00  0.00    +0.000 NA
ATOM     10  C   UNL     1       2.477   3.042  20.589  0.00  0.00    +0.000 A 
ATOM     11  C   UNL     1       1.763   2.713  21.868  0.00  0.00    +0.000 C 
ATOM     12  C   UNL     1       2.202   4.193  19.851  0.00  0.00    +0.000 A 
ATOM     13  C   UNL     1       1.225   5.244  20.295  0.00  0.00    +0.000 C 
ATOM     14  C   UNL     1       1.910   6.577  20.621  0.00  0.00    +0.000 C 
ENDROOT
BRANCH   1  19
ATOM     15  C   UNL     1      -1.353  11.374  23.056  0.00  0.00    +0.000 C 
ATOM     16  C   UNL     1      -0.511  10.705  22.018  0.00  0.00    +0.000 A 
ATOM     17  C   UNL     1      -0.869  10.745  20.679  0.00  0.00    +0.000 A 
ATOM     18  N   UNL     1      -0.181  10.091  19.719  0.00  0.00    +0.000 NA
ATOM     19  C   UNL     1       0.926   9.421  20.130  0.00  0.00    +0.000 A 
ATOM     20  C   UNL     1       1.290   9.378  21.467  0.00  0.00    +0.000 A 
ATOM     21  N   UNL     1       0.585  10.022  22.435  0.00  0.00    +0.000 NA
ENDBRANCH   1  19
TORSDOF 1
ENDMDL
MODEL 5
REMARK VINA RESULT:      -6.9      3.211      7.444
REMARK  Name = 
REMARK  3 active torsions:
REMARK  status: ('A' for Active; 'I' for Inactive)
REMARK    1  A    between atoms: C_1  and  C_2
REMARK    2  A    between atoms: C_5  and  C_6
REMARK    3  A    between atoms: C_15  and  C_16
REMARK                            x       y       z     vdW  Elec       q    Type
REMARK                         _______ _______ _______ _____ _____    ______ ____
ROOT
ATOM      1  C   UNL     1       1.920   8.552  18.494  0.00  0.00    +0.000 C 
ATOM      2  O   UNL     1       2.207   8.958  17.362  0.00  0.00    +0.000 OA
ATOM      3  N   UNL     1       2.460   7.362  19.010  0.00  0.00    +0.000 N 
ATOM      4  C   UNL     1       3.578   6.748  18.276  0.00  0.00    +0.000 C 
ATOM      5  C   UNL     1       3.219   5.395  17.664  0.00  0.00    +0.000 C 
ATOM      6  C   UNL     1       3.328   4.297  18.691  0.00  0.00    +0.000 A 
ATOM      7  N   UNL     1       4.332   3.418  18.508  0.00  0.00    +0.000 NA
ATOM      8  C   UNL     1       4.469   2.467  19.440  0.00  0.00    +0.000 A 
ATOM      9  N   UNL     1       3.697   2.309  20.520  0.00  0.00    +0.000 NA
ATOM     10  C   UNL     1       2.695   3.197  20.685  0.00  0.00    +0.000 A 
ATOM     11  C   UNL     1       1.837   2.978  21.898  0.00  0.00    +0.000 C 
ATOM     12  C   UNL     1       2.475   4.242  19.789  0.00  0.00    +0.000 A 
ATOM     13  C   UNL     1       1.411   5.285  19.984  0.00  0.00    +0.000 C 
ATOM     14  C   UNL     1       2.001   6.679  20.232  0.00  0.00    +0.000 C 
ENDROOT
BRANCH   1  19
ATOM     15  C   UNL     1      -1.552  11.980  21.406  0.00  0.00    +0.000 C 
ATOM     16  C   UNL     1      -0.679  11.033  20.647  0.00  0.00    +0.000 A 
ATOM     17  C   UNL     1       0.330  10.329  21.288  0.00  0.00    +0.000 A 
ATOM     18  N   UNL     1       1.190   9.524  20.628  0.00  0.00    +0.000 NA
ATOM     19  C   UNL     1       0.984   9.396  19.293  0.00  0.00    +0.000 A 
ATOM     20  C   UNL     1      -0.025  10.096  18.647  0.00  0.00    +0.000 A 
ATOM     21  N   UNL     1      -0.877  10.923  19.310  0.00  0.00    +0.000 NA
ENDBRANCH   1  19
TORSDOF 1
ENDMDL
MODEL 6
REMARK VINA RESULT:      -6.7      3.223      4.872
REMARK  Name = 
REMARK  3 active torsions:
REMARK  status: ('A' for Active; 'I' for Inactive)
REMARK    1  A    between atoms: C_1  and  C_2
REMARK    2  A    between atoms: C_5  and  C_6
REMARK    3  A    between atoms: C_15  and  C_16
REMARK                            x       y       z     vdW  Elec       q    Type
REMARK                         _______ _______ _______ _____ _____    ______ ____
ROOT
ATOM      1  C   UNL     1       6.668   5.839  16.984  0.00  0.00    +0.000 C 
ATOM      2  O   UNL     1       7.077   5.514  15.863  0.00  0.00    +0.000 OA
ATOM      3  N   UNL     1       5.637   5.133  17.626  0.00  0.00    +0.000 N 
ATOM      4  C   UNL     1       5.236   3.840  17.049  0.00  0.00    +0.000 C 
ATOM      5  C   UNL     1       3.814   3.850  16.490  0.00  0.00    +0.000 C 
ATOM      6  C   UNL     1       2.805   3.639  17.591  0.00  0.00    +0.000 A 
ATOM      7  N   UNL     1       2.145   2.465  17.566  0.00  0.00    +0.000 NA
ATOM      8  C   UNL     1       1.281   2.246  18.565  0.00  0.00    +0.000 A 
ATOM      9  N   UNL     1       1.013   3.087  19.570  0.00  0.00    +0.000 NA
ATOM     10  C   UNL     1       1.681   4.258  19.576  0.00  0.00    +0.000 A 
ATOM     11  C   UNL     1       1.341   5.185  20.707  0.00  0.00    +0.000 C 
ATOM     12  C   UNL     1       2.622   4.581  18.598  0.00  0.00    +0.000 A 
ATOM     13  C   UNL     1       3.430   5.847  18.618  0.00  0.00    +0.000 C 
ATOM     14  C   UNL     1       4.925   5.580  18.836  0.00  0.00    +0.000 C 
ENDROOT
BRANCH   1  19
ATOM     15  C   UNL     1       9.341  10.328  19.217  0.00  0.00    +0.000 C 
ATOM     16  C   UNL     1       8.590   9.159  18.666  0.00  0.00    +0.000 A 
ATOM     17  C   UNL     1       8.768   7.889  19.193  0.00  0.00    +0.000 A 
ATOM     18  N   UNL     1       8.170   6.794  18.676  0.00  0.00    +0.000 NA
ATOM     19  C   UNL     1       7.334   7.009  17.629  0.00  0.00    +0.000 A 
ATOM     20  C   UNL     1       7.150   8.277  17.099  0.00  0.00    +0.000 A 
ATOM     21  N   UNL     1       7.769   9.376  17.608  0.00  0.00    +0.000 NA
ENDBRANCH   1  19
TORSDOF 1
ENDMDL
MODEL 7
REMARK VINA RESULT:      -6.6      3.018      7.163
REMARK  Name = 
REMARK  3 active torsions:
REMARK  status: ('A' for Active; 'I' for Inactive)
REMARK    1  A    between atoms: C_1  and  C_2
REMARK    2  A    between atoms: C_5  and  C_6
REMARK    3  A    between atoms: C_15  and  C_16
REMARK                            x       y       z     vdW  Elec       q    Type
REMARK                         _______ _______ _______ _____ _____    ______ ____
ROOT
ATOM      1  C   UNL     1       5.742   4.857  18.922  0.00  0.00    +0.000 C 
ATOM      2  O   UNL     1       6.437   5.645  19.574  0.00  0.00    +0.000 OA
ATOM      3  N   UNL     1       6.070   4.503  17.602  0.00  0.00    +0.000 N 
ATOM      4  C   UNL     1       7.401   4.886  17.106  0.00  0.00    +0.000 C 
ATOM      5  C   UNL     1       7.346   5.919  15.982  0.00  0.00    +0.000 C 
ATOM      6  C   UNL     1       7.075   5.253  14.656  0.00  0.00    +0.000 A 
ATOM      7  N   UNL     1       8.095   5.260  13.776  0.00  0.00    +0.000 NA
ATOM      8  C   UNL     1       7.883   4.630  12.614  0.00  0.00    +0.000 A 
ATOM      9  N   UNL     1       6.756   4.009  12.252  0.00  0.00    +0.000 NA
ATOM     10  C   UNL     1       5.746   4.014  13.145  0.00  0.00    +0.000 A 
ATOM     11  C   UNL     1       4.490   3.325  12.697  0.00  0.00    +0.000 C 
ATOM     12  C   UNL     1       5.864   4.621  14.395  0.00  0.00    +0.000 A 
ATOM     13  C   UNL     1       4.781   4.583  15.435  0.00  0.00    +0.000 C 
ATOM     14  C   UNL     1       5.190   3.774  16.673  0.00  0.00    +0.000 C 
ENDROOT
BRANCH   1  19
ATOM     15  C   UNL     1       1.144   2.538  21.322  0.00  0.00    +0.000 C 
ATOM     16  C   UNL     1       2.377   3.155  20.746  0.00  0.00    +0.000 A 
ATOM     17  C   UNL     1       2.428   4.513  20.468  0.00  0.00    +0.000 A 
ATOM     18  N   UNL     1       3.492   5.098  19.878  0.00  0.00    +0.000 NA
ATOM     19  C   UNL     1       4.547   4.287  19.609  0.00  0.00    +0.000 A 
ATOM     20  C   UNL     1       4.502   2.929  19.887  0.00  0.00    +0.000 A 
ATOM     21  N   UNL     1       3.422   2.337  20.464  0.00  0.00    +0.000 NA
ENDBRANCH   1  19
TORSDOF 1
ENDMDL
MODEL 8
REMARK VINA RESULT:      -6.6      2.534      3.729
REMARK  Name = 
REMARK  3 active torsions:
REMARK  status: ('A' for Active; 'I' for Inactive)
REMARK    1  A    between atoms: C_1  and  C_2
REMARK    2  A    between atoms: C_5  and  C_6
REMARK    3  A    between atoms: C_15  and  C_16
REMARK                            x       y       z     vdW  Elec       q    Type
REMARK                         _______ _______ _______ _____ _____    ______ ____
ROOT
ATOM      1  C   UNL     1       6.035   5.771  16.137  0.00  0.00    +0.000 C 
ATOM      2  O   UNL     1       6.859   6.602  16.539  0.00  0.00    +0.000 OA
ATOM      3  N   UNL     1       4.872   5.473  16.867  0.00  0.00    +0.000 N 
ATOM      4  C   UNL     1       4.526   6.361  17.988  0.00  0.00    +0.000 C 
ATOM      5  C   UNL     1       4.611   5.669  19.347  0.00  0.00    +0.000 C 
ATOM      6  C   UNL     1       3.357   4.879  19.624  0.00  0.00    +0.000 A 
ATOM      7  N   UNL     1       2.568   5.354  20.607  0.00  0.00    +0.000 NA
ATOM      8  C   UNL     1       1.428   4.688  20.830  0.00  0.00    +0.000 A 
ATOM      9  N   UNL     1       1.014   3.598  20.175  0.00  0.00    +0.000 NA
ATOM     10  C   UNL     1       1.818   3.136  19.196  0.00  0.00    +0.000 A 
ATOM     11  C   UNL     1       1.331   1.901  18.495  0.00  0.00    +0.000 C 
ATOM     12  C   UNL     1       3.018   3.765  18.863  0.00  0.00    +0.000 A 
ATOM     13  C   UNL     1       3.898   3.313  17.733  0.00  0.00    +0.000 C 
ATOM     14  C   UNL     1       3.966   4.344  16.599  0.00  0.00    +0.000 C 
ENDROOT
BRANCH   1  19
ATOM     15  C   UNL     1       7.170   3.032  11.290  0.00  0.00    +0.000 C 
ATOM     16  C   UNL     1       6.839   3.793  12.533  0.00  0.00    +0.000 A 
ATOM     17  C   UNL     1       7.705   4.758  13.027  0.00  0.00    +0.000 A 
ATOM     18  N   UNL     1       7.483   5.414  14.186  0.00  0.00    +0.000 NA
ATOM     19  C   UNL     1       6.328   5.113  14.830  0.00  0.00    +0.000 A 
ATOM     20  C   UNL     1       5.457   4.150  14.341  0.00  0.00    +0.000 A 
ATOM     21  N   UNL     1       5.691   3.477  13.184  0.00  0.00    +0.000 NA
ENDBRANCH   1  19
TORSDOF 1
ENDMDL
MODEL 9
REMARK VINA RESULT:      -6.5      0.618      1.059
REMARK  Name = 
REMARK  3 active torsions:
REMARK  status: ('A' for Active; 'I' for Inactive)
REMARK    1  A    between atoms: C_1  and  C_2
REMARK    2  A    between atoms: C_5  and  C_6
REMARK    3  A    between atoms: C_15  and  C_16
REMARK                            x       y       z     vdW  Elec       q    Type
REMARK                         _______ _______ _______ _____ _____    ______ ____
ROOT
ATOM      1  C   UNL     1       4.798   4.433  17.711  0.00  0.00    +0.000 C 
ATOM      2  O   UNL     1       4.727   3.288  18.172  0.00  0.00    +0.000 OA
ATOM      3  N   UNL     1       4.219   5.531  18.371  0.00  0.00    +0.000 N 
ATOM      4  C   UNL     1       3.755   5.326  19.753  0.00  0.00    +0.000 C 
ATOM      5  C   UNL     1       2.239   5.441  19.897  0.00  0.00    +0.000 C 
ATOM      6  C   UNL     1       1.819   6.886  20.001  0.00  0.00    +0.000 A 
ATOM      7  N   UNL     1       1.343   7.275  21.200  0.00  0.00    +0.000 NA
ATOM      8  C   UNL     1       1.012   8.567  21.319  0.00  0.00    +0.000 A 
ATOM      9  N   UNL     1       1.104   9.492  20.358  0.00  0.00    +0.000 NA
ATOM     10  C   UNL     1       1.581   9.084  19.165  0.00  0.00    +0.000 A 
ATOM     11  C   UNL     1       1.652  10.144  18.105  0.00  0.00    +0.000 C 
ATOM     12  C   UNL     1       1.978   7.766  18.936  0.00  0.00    +0.000 A 
ATOM     13  C   UNL     1       2.576   7.299  17.640  0.00  0.00    +0.000 C 
ATOM     14  C   UNL     1       4.041   6.874  17.794  0.00  0.00    +0.000 C 
ENDROOT
BRANCH   1  19
ATOM     15  C   UNL     1       7.625   4.795  12.796  0.00  0.00    +0.000 C 
ATOM     16  C   UNL     1       6.859   4.756  14.079  0.00  0.00    +0.000 A 
ATOM     17  C   UNL     1       7.456   5.129  15.274  0.00  0.00    +0.000 A 
ATOM     18  N   UNL     1       6.827   5.035  16.464  0.00  0.00    +0.000 NA
ATOM     19  C   UNL     1       5.543   4.598  16.429  0.00  0.00    +0.000 A 
ATOM     20  C   UNL     1       4.939   4.225  15.236  0.00  0.00    +0.000 A 
ATOM     21  N   UNL     1       5.581   4.301  14.040  0.00  0.00    +0.000 NA
ENDBRANCH   1  19
TORSDOF 1
ENDMDL
