MODEL 1
REMARK VINA RESULT:      -7.1      0.000      0.000
REMARK  Name = 
REMARK  5 active torsions:
REMARK  status: ('A' for Active; 'I' for Inactive)
REMARK    1  A    between atoms: C_2  and  C_3
REMARK    2  A    between atoms: C_11  and  C_12
REMARK    3  A    between atoms: N_14  and  C_15
REMARK    4  A    between atoms: N_14  and  C_19
REMARK    5  A    between atoms: C_15  and  C_16
REMARK                            x       y       z     vdW  Elec       q    Type
REMARK                         _______ _______ _______ _____ _____    ______ ____
ROOT
ATOM      1  C   UNL     1      -2.686  12.776  22.312  0.00  0.00    +0.000 A 
ATOM      2  C   UNL     1      -2.812  14.021  21.722  0.00  0.00    +0.000 A 
ATOM      3  C   UNL     1      -2.029  14.287  20.614  0.00  0.00    +0.000 A 
ATOM      4  N   UNL     1      -1.170  13.396  20.077  0.00  0.00    +0.000 NA
ATOM      5  C   UNL     1      -1.047  12.186  20.665  0.00  0.00    +0.000 A 
ATOM      6  N   UNL     1      -0.290  11.199  20.059  0.00  0.00    +0.000 N 
ATOM      7  C   UNL     1      -0.136  11.278  18.622  0.00  0.00    +0.000 C 
ATOM      8  C   UNL     1      -0.076   9.840  18.125  0.00  0.00    +0.000 C 
ATOM      9  C   UNL     1       0.895   8.919  18.904  0.00  0.00    +0.000 C 
ATOM     10  C   UNL     1       1.024   9.239  20.407  0.00  0.00    +0.000 C 
ATOM     11  C   UNL     1       0.905  10.720  20.740  0.00  0.00    +0.000 C 
ATOM     12  C   UNL     1      -1.783  11.851  21.791  0.00  0.00    +0.000 A 
ENDROOT
BRANCH   9  13
ATOM     13  C   UNL     1       2.244   8.804  18.152  0.00  0.00    +0.000 C 
ATOM     14  O   UNL     1       2.741   9.790  17.604  0.00  0.00    +0.000 OA
ATOM     15  N   UNL     1       2.802   7.512  18.035  0.00  0.00    +0.000 N 
BRANCH  15  16
ATOM     16  C   UNL     1       2.270   6.406  18.755  0.00  0.00    +0.000 A 
ATOM     17  C   UNL     1       2.457   6.277  20.138  0.00  0.00    +0.000 A 
ATOM     18  C   UNL     1       2.193   5.052  20.764  0.00  0.00    +0.000 A 
ATOM     19  C   UNL     1       1.702   3.981  20.018  0.00  0.00    +0.000 A 
ATOM     20 CL   UNL     1       1.422   2.463  20.772  0.00  0.00    +0.000 Cl
ATOM     21  C   UNL     1       1.460   4.125  18.653  0.00  0.00    +0.000 A 
ATOM     22  C   UNL     1       1.732   5.339  18.027  0.00  0.00    +0.000 A 
ENDBRANCH  15  16
BRANCH  15  23
ATOM     23  C   UNL     1       3.769   7.236  16.975  0.00  0.00    +0.000 C 
BRANCH  23  24
ATOM     24  C   UNL     1       5.054   6.586  17.422  0.00  0.00    +0.000 C 
ATOM     25  C   UNL     1       5.446   5.121  17.393  0.00  0.00    +0.000 C 
ATOM     26  C   UNL     1       5.947   6.039  16.323  0.00  0.00    +0.000 C 
ENDBRANCH  23  24
ENDBRANCH  15  23
ENDBRANCH   9  13
BRANCH   1  28
ATOM     27  N   UNL     1      -4.170  12.118  24.332  0.00  0.00    +0.000 NA
ATOM     28  C   UNL     1      -3.506  12.412  23.422  0.00  0.00    +0.000 C 
ENDBRANCH   1  28
TORSDOF 5
ENDMDL
MODEL 2
REMARK VINA RESULT:      -6.8      2.688      4.401
REMARK  Name = 
REMARK  5 active torsions:
REMARK  status: ('A' for Active; 'I' for Inactive)
REMARK    1  A    between atoms: C_2  and  C_3
REMARK    2  A    between atoms: C_11  and  C_12
REMARK    3  A    between atoms: N_14  and  C_15
REMARK    4  A    between atoms: N_14  and  C_19
REMARK    5  A    between atoms: C_15  and  C_16
REMARK                            x       y       z     vdW  Elec       q    Type
REMARK                         _______ _______ _______ _____ _____    ______ ____
ROOT
ATOM      1  C   UNL     1       0.530  12.566  21.189  0.00  0.00    +0.000 A 
ATOM      2  C   UNL     1      -0.488  12.318  22.094  0.00  0.00    +0.000 A 
ATOM      3  C   UNL     1      -0.991  11.033  22.156  0.00  0.00    +0.000 A 
ATOM      4  N   UNL     1      -0.534  10.015  21.397  0.00  0.00    +0.000 NA
ATOM      5  C   UNL     1       0.452  10.268  20.509  0.00  0.00    +0.000 A 
ATOM      6  N   UNL     1       1.046   9.224  19.821  0.00  0.00    +0.000 N 
ATOM      7  C   UNL     1       1.009   7.920  20.447  0.00  0.00    +0.000 C 
ATOM      8  C   UNL     1       2.305   7.226  20.051  0.00  0.00    +0.000 C 
ATOM      9  C   UNL     1       2.646   7.290  18.542  0.00  0.00    +0.000 C 
ATOM     10  C   UNL     1       2.196   8.584  17.832  0.00  0.00    +0.000 C 
ATOM     11  C   UNL     1       0.899   9.170  18.373  0.00  0.00    +0.000 C 
ATOM     12  C   UNL     1       0.996  11.536  20.374  0.00  0.00    +0.000 A 
ENDROOT
BRANCH   9  13
ATOM     13  C   UNL     1       2.208   5.983  17.836  0.00  0.00    +0.000 C 
ATOM     14  O   UNL     1       1.019   5.779  17.579  0.00  0.00    +0.000 OA
ATOM     15  N   UNL     1       3.208   5.011  17.614  0.00  0.00    +0.000 N 
BRANCH  15  16
ATOM     16  C   UNL     1       4.585   5.301  17.825  0.00  0.00    +0.000 A 
ATOM     17  C   UNL     1       5.232   4.939  19.015  0.00  0.00    +0.000 A 
ATOM     18  C   UNL     1       6.482   5.492  19.322  0.00  0.00    +0.000 A 
ATOM     19  C   UNL     1       7.097   6.363  18.423  0.00  0.00    +0.000 A 
ATOM     20 CL   UNL     1       8.608   7.081  18.816  0.00  0.00    +0.000 Cl
ATOM     21  C   UNL     1       6.482   6.678  17.213  0.00  0.00    +0.000 A 
ATOM     22  C   UNL     1       5.234   6.138  16.911  0.00  0.00    +0.000 A 
ENDBRANCH  15  16
BRANCH  15  23
ATOM     23  C   UNL     1       2.826   3.615  17.415  0.00  0.00    +0.000 C 
BRANCH  23  24
ATOM     24  C   UNL     1       2.537   2.836  18.673  0.00  0.00    +0.000 C 
ATOM     25  C   UNL     1       1.746   3.256  19.898  0.00  0.00    +0.000 C 
ATOM     26  C   UNL     1       1.102   2.383  18.868  0.00  0.00    +0.000 C 
ENDBRANCH  23  24
ENDBRANCH  15  23
ENDBRANCH   9  13
BRANCH   1  28
ATOM     27  N   UNL     1       1.632  14.908  21.058  0.00  0.00    +0.000 NA
ATOM     28  C   UNL     1       1.137  13.855  21.114  0.00  0.00    +0.000 C 
ENDBRANCH   1  28
TORSDOF 5
ENDMDL
MODEL 3
REMARK VINA RESULT:      -6.8      5.039      7.155
REMARK  Name = 
REMARK  5 active torsions:
REMARK  status: ('A' for Active; 'I' for Inactive)
REMARK    1  A    between atoms: C_2  and  C_3
REMARK    2  A    between atoms: C_11  and  C_12
REMARK    3  A    between atoms: N_14  and  C_15
REMARK    4  A    between atoms: N_14  and  C_19
REMARK    5  A    between atoms: C_15  and  C_16
REMARK                            x       y       z     vdW  Elec       q    Type
REMARK                         _______ _______ _______ _____ _____    ______ ____
ROOT
ATOM      1  C   UNL     1       6.312  17.185  19.652  0.00  0.00    +0.000 A 
ATOM      2  C   UNL     1       5.888  18.228  20.456  0.00  0.00    +0.000 A 
ATOM      3  C   UNL     1       4.564  18.233  20.854  0.00  0.00    +0.000 A 
ATOM      4  N   UNL     1       3.679  17.273  20.514  0.00  0.00    +0.000 NA
ATOM      5  C   UNL     1       4.100  16.263  19.721  0.00  0.00    +0.000 A 
ATOM      6  N   UNL     1       3.266  15.187  19.474  0.00  0.00    +0.000 N 
ATOM      7  C   UNL     1       2.254  14.898  20.467  0.00  0.00    +0.000 C 
ATOM      8  C   UNL     1       2.087  13.385  20.472  0.00  0.00    +0.000 C 
ATOM      9  C   UNL     1       1.927  12.741  19.073  0.00  0.00    +0.000 C 
ATOM     10  C   UNL     1       2.708  13.444  17.944  0.00  0.00    +0.000 C 
ATOM     11  C   UNL     1       2.814  14.954  18.109  0.00  0.00    +0.000 C 
ATOM     12  C   UNL     1       5.407  16.198  19.265  0.00  0.00    +0.000 A 
ENDROOT
BRANCH   9  13
ATOM     13  C   UNL     1       0.429  12.495  18.764  0.00  0.00    +0.000 C 
ATOM     14  O   UNL     1      -0.325  13.442  18.532  0.00  0.00    +0.000 OA
ATOM     15  N   UNL     1      -0.036  11.166  18.874  0.00  0.00    +0.000 N 
BRANCH  15  16
ATOM     16  C   UNL     1       0.863  10.076  19.044  0.00  0.00    +0.000 A 
ATOM     17  C   UNL     1       1.548   9.519  17.956  0.00  0.00    +0.000 A 
ATOM     18  C   UNL     1       2.181   8.277  18.096  0.00  0.00    +0.000 A 
ATOM     19  C   UNL     1       2.166   7.624  19.328  0.00  0.00    +0.000 A 
ATOM     20 CL   UNL     1       2.900   6.078  19.492  0.00  0.00    +0.000 Cl
ATOM     21  C   UNL     1       1.535   8.204  20.426  0.00  0.00    +0.000 A 
ATOM     22  C   UNL     1       0.896   9.434  20.286  0.00  0.00    +0.000 A 
ENDBRANCH  15  16
BRANCH  15  23
ATOM     23  C   UNL     1      -1.461  10.915  19.076  0.00  0.00    +0.000 C 
BRANCH  23  24
ATOM     24  C   UNL     1      -2.293  10.848  17.820  0.00  0.00    +0.000 C 
ATOM     25  C   UNL     1      -2.144   9.929  16.622  0.00  0.00    +0.000 C 
ATOM     26  C   UNL     1      -3.174   9.621  17.663  0.00  0.00    +0.000 C 
ENDBRANCH  23  24
ENDBRANCH  15  23
ENDBRANCH   9  13
BRANCH   1  28
ATOM     27  N   UNL     1       8.794  16.998  18.931  0.00  0.00    +0.000 NA
ATOM     28  C   UNL     1       7.679  17.085  19.253  0.00  0.00    +0.000 C 
ENDBRANCH   1  28
TORSDOF 5
ENDMDL
MODEL 4
REMARK VINA RESULT:      -6.5      4.983      7.288
REMARK  Name = 
REMARK  5 active torsions:
REMARK  status: ('A' for Active; 'I' for Inactive)
REMARK    1  A    between atoms: C_2  and  C_3
REMARK    2  A    between atoms: C_11  and  C_12
REMARK    3  A    between atoms: N_14  and  C_15
REMARK    4  A    between atoms: N_14  and  C_19
REMARK    5  A    between atoms: C_15  and  C_16
REMARK                            x       y       z     vdW  Elec       q    Type
REMARK                         _______ _______ _______ _____ _____    ______ ____
ROOT
ATOM      1  C   UNL     1       7.018  15.882  19.285  0.00  0.00    +0.000 A 
ATOM      2  C   UNL     1       6.813  17.133  19.841  0.00  0.00    +0.000 A 
ATOM      3  C   UNL     1       5.512  17.503  20.123  0.00  0.00    +0.000 A 
ATOM      4  N   UNL     1       4.445  16.708  19.900  0.00  0.00    +0.000 NA
ATOM      5  C   UNL     1       4.653  15.493  19.348  0.00  0.00    +0.000 A 
ATOM      6  N   UNL     1       3.606  14.595  19.241  0.00  0.00    +0.000 N 
ATOM      7  C   UNL     1       2.519  14.738  20.186  0.00  0.00    +0.000 C 
ATOM      8  C   UNL     1       2.012  13.330  20.462  0.00  0.00    +0.000 C 
ATOM      9  C   UNL     1       1.760  12.466  19.201  0.00  0.00    +0.000 C 
ATOM     10  C   UNL     1       2.722  12.742  18.027  0.00  0.00    +0.000 C 
ATOM     11  C   UNL     1       3.162  14.195  17.913  0.00  0.00    +0.000 C 
ATOM     12  C   UNL     1       5.927  15.056  19.019  0.00  0.00    +0.000 A 
ENDROOT
BRANCH   9  13
ATOM     13  C   UNL     1       0.259  12.493  18.824  0.00  0.00    +0.000 C 
ATOM     14  O   UNL     1      -0.318  13.565  18.626  0.00  0.00    +0.000 OA
ATOM     15  N   UNL     1      -0.424  11.256  18.832  0.00  0.00    +0.000 N 
BRANCH  15  16
ATOM     16  C   UNL     1       0.274  10.024  18.964  0.00  0.00    +0.000 A 
ATOM     17  C   UNL     1       0.508   9.449  20.222  0.00  0.00    +0.000 A 
ATOM     18  C   UNL     1       1.442   8.414  20.350  0.00  0.00    +0.000 A 
ATOM     19  C   UNL     1       2.101   7.928  19.220  0.00  0.00    +0.000 A 
ATOM     20 CL   UNL     1       3.283   6.690  19.379  0.00  0.00    +0.000 Cl
ATOM     21  C   UNL     1       1.826   8.458  17.961  0.00  0.00    +0.000 A 
ATOM     22  C   UNL     1       0.906   9.495  17.833  0.00  0.00    +0.000 A 
ENDBRANCH  15  16
BRANCH  15  23
ATOM     23  C   UNL     1      -1.879  11.236  18.967  0.00  0.00    +0.000 C 
BRANCH  23  24
ATOM     24  C   UNL     1      -2.649  11.112  17.676  0.00  0.00    +0.000 C 
ATOM     25  C   UNL     1      -2.435  10.149  16.523  0.00  0.00    +0.000 C 
ATOM     26  C   UNL     1      -3.512   9.873  17.525  0.00  0.00    +0.000 C 
ENDBRANCH  23  24
ENDBRANCH  15  23
ENDBRANCH   9  13
BRANCH   1  28
ATOM     27  N   UNL     1       9.416  15.025  18.805  0.00  0.00    +0.000 NA
ATOM     28  C   UNL     1       8.339  15.411  19.024  0.00  0.00    +0.000 C 
ENDBRANCH   1  28
TORSDOF 5
ENDMDL
MODEL 5
REMARK VINA RESULT:      -6.3      2.854      4.663
REMARK  Name = 
REMARK  5 active torsions:
REMARK  status: ('A' for Active; 'I' for Inactive)
REMARK    1  A    between atoms: C_2  and  C_3
REMARK    2  A    between atoms: C_11  and  C_12
REMARK    3  A    between atoms: N_14  and  C_15
REMARK    4  A    between atoms: N_14  and  C_19
REMARK    5  A    between atoms: C_15  and  C_16
REMARK                            x       y       z     vdW  Elec       q    Type
REMARK                         _______ _______ _______ _____ _____    ______ ____
ROOT
ATOM      1  C   UNL     1       1.135  13.118  18.750  0.00  0.00    +0.000 A 
ATOM      2  C   UNL     1      -0.091  13.498  19.266  0.00  0.00    +0.000 A 
ATOM      3  C   UNL     1      -0.894  12.510  19.804  0.00  0.00    +0.000 A 
ATOM      4  N   UNL     1      -0.537  11.210  19.865  0.00  0.00    +0.000 NA
ATOM      5  C   UNL     1       0.657  10.846  19.349  0.00  0.00    +0.000 A 
ATOM      6  N   UNL     1       1.119   9.554  19.525  0.00  0.00    +0.000 N 
ATOM      7  C   UNL     1       0.623   8.829  20.674  0.00  0.00    +0.000 C 
ATOM      8  C   UNL     1       1.765   7.933  21.133  0.00  0.00    +0.000 C 
ATOM      9  C   UNL     1       2.448   7.117  20.008  0.00  0.00    +0.000 C 
ATOM     10  C   UNL     1       2.503   7.825  18.638  0.00  0.00    +0.000 C 
ATOM     11  C   UNL     1       1.300   8.712  18.349  0.00  0.00    +0.000 C 
ATOM     12  C   UNL     1       1.511  11.776  18.775  0.00  0.00    +0.000 A 
ENDROOT
BRANCH   9  13
ATOM     13  C   UNL     1       1.879   5.678  19.967  0.00  0.00    +0.000 C 
ATOM     14  O   UNL     1       0.758   5.436  20.420  0.00  0.00    +0.000 OA
ATOM     15  N   UNL     1       2.741   4.663  19.497  0.00  0.00    +0.000 N 
BRANCH  15  16
ATOM     16  C   UNL     1       3.989   4.971  18.889  0.00  0.00    +0.000 A 
ATOM     17  C   UNL     1       5.171   5.037  19.640  0.00  0.00    +0.000 A 
ATOM     18  C   UNL     1       6.314   5.628  19.088  0.00  0.00    +0.000 A 
ATOM     19  C   UNL     1       6.285   6.108  17.779  0.00  0.00    +0.000 A 
ATOM     20 CL   UNL     1       7.670   6.878  17.113  0.00  0.00    +0.000 Cl
ATOM     21  C   UNL     1       5.129   5.991  17.010  0.00  0.00    +0.000 A 
ATOM     22  C   UNL     1       3.988   5.412  17.561  0.00  0.00    +0.000 A 
ENDBRANCH  15  16
BRANCH  15  23
ATOM     23  C   UNL     1       2.485   3.271  19.864  0.00  0.00    +0.000 C 
BRANCH  23  24
ATOM     24  C   UNL     1       2.164   2.346  18.717  0.00  0.00    +0.000 C 
ATOM     25  C   UNL     1       2.604   2.431  17.268  0.00  0.00    +0.000 C 
ATOM     26  C   UNL     1       3.309   1.497  18.199  0.00  0.00    +0.000 C 
ENDBRANCH  23  24
ENDBRANCH  15  23
ENDBRANCH   9  13
BRANCH   1  28
ATOM     27  N   UNL     1       2.782  14.885  17.812  0.00  0.00    +0.000 NA
ATOM     28  C   UNL     1       2.040  14.093  18.233  0.00  0.00    +0.000 C 
ENDBRANCH   1  28
TORSDOF 5
ENDMDL
MODEL 6
REMARK VINA RESULT:      -6.2      2.540      4.308
REMARK  Name = 
REMARK  5 active torsions:
REMARK  status: ('A' for Active; 'I' for Inactive)
REMARK    1  A    between atoms: C_2  and  C_3
REMARK    2  A    between atoms: C_11  and  C_12
REMARK    3  A    between atoms: N_14  and  C_15
REMARK    4  A    between atoms: N_14  and  C_19
REMARK    5  A    between atoms: C_15  and  C_16
REMARK                            x       y       z     vdW  Elec       q    Type
REMARK                         _______ _______ _______ _____ _____    ______ ____
ROOT
ATOM      1  C   UNL     1       0.193  13.492  19.712  0.00  0.00    +0.000 A 
ATOM      2  C   UNL     1      -0.951  13.717  20.457  0.00  0.00    +0.000 A 
ATOM      3  C   UNL     1      -1.566  12.621  21.034  0.00  0.00    +0.000 A 
ATOM      4  N   UNL     1      -1.101  11.360  20.920  0.00  0.00    +0.000 NA
ATOM      5  C   UNL     1       0.011  11.148  20.182  0.00  0.00    +0.000 A 
ATOM      6  N   UNL     1       0.598   9.895  20.164  0.00  0.00    +0.000 N 
ATOM      7  C   UNL     1       0.370   9.046  21.313  0.00  0.00    +0.000 C 
ATOM      8  C   UNL     1       1.643   8.230  21.494  0.00  0.00    +0.000 C 
ATOM      9  C   UNL     1       2.182   7.566  20.204  0.00  0.00    +0.000 C 
ATOM     10  C   UNL     1       1.940   8.372  18.911  0.00  0.00    +0.000 C 
ATOM     11  C   UNL     1       0.638   9.162  18.906  0.00  0.00    +0.000 C 
ATOM     12  C   UNL     1       0.673  12.193  19.556  0.00  0.00    +0.000 A 
ENDROOT
BRANCH   9  13
ATOM     13  C   UNL     1       1.731   6.086  20.133  0.00  0.00    +0.000 C 
ATOM     14  O   UNL     1       0.674   5.728  20.658  0.00  0.00    +0.000 OA
ATOM     15  N   UNL     1       2.634   5.170  19.548  0.00  0.00    +0.000 N 
BRANCH  15  16
ATOM     16  C   UNL     1       3.799   5.612  18.862  0.00  0.00    +0.000 A 
ATOM     17  C   UNL     1       3.731   6.114  17.555  0.00  0.00    +0.000 A 
ATOM     18  C   UNL     1       4.903   6.256  16.803  0.00  0.00    +0.000 A 
ATOM     19  C   UNL     1       6.137   5.940  17.371  0.00  0.00    +0.000 A 
ATOM     20 CL   UNL     1       7.573   6.067  16.437  0.00  0.00    +0.000 Cl
ATOM     21  C   UNL     1       6.213   5.497  18.690  0.00  0.00    +0.000 A 
ATOM     22  C   UNL     1       5.046   5.345  19.437  0.00  0.00    +0.000 A 
ENDBRANCH  15  16
BRANCH  15  23
ATOM     23  C   UNL     1       2.523   3.747  19.862  0.00  0.00    +0.000 C 
BRANCH  23  24
ATOM     24  C   UNL     1       2.040   2.870  18.735  0.00  0.00    +0.000 C 
ATOM     25  C   UNL     1       2.412   2.909  17.264  0.00  0.00    +0.000 C 
ATOM     26  C   UNL     1       3.052   1.897  18.160  0.00  0.00    +0.000 C 
ENDBRANCH  23  24
ENDBRANCH  15  23
ENDBRANCH   9  13
BRANCH   1  28
ATOM     27  N   UNL     1       1.503  15.469  18.667  0.00  0.00    +0.000 NA
ATOM     28  C   UNL     1       0.912  14.583  19.138  0.00  0.00    +0.000 C 
ENDBRANCH   1  28
TORSDOF 5
ENDMDL
MODEL 7
REMARK VINA RESULT:      -6.1      2.712      4.643
REMARK  Name = 
REMARK  5 active torsions:
REMARK  status: ('A' for Active; 'I' for Inactive)
REMARK    1  A    between atoms: C_2  and  C_3
REMARK    2  A    between atoms: C_11  and  C_12
REMARK    3  A    between atoms: N_14  and  C_15
REMARK    4  A    between atoms: N_14  and  C_19
REMARK    5  A    between atoms: C_15  and  C_16
REMARK                            x       y       z     vdW  Elec       q    Type
REMARK                         _______ _______ _______ _____ _____    ______ ____
ROOT
ATOM      1  C   UNL     1       1.411  13.761  18.822  0.00  0.00    +0.000 A 
ATOM      2  C   UNL     1       0.252  14.267  19.384  0.00  0.00    +0.000 A 
ATOM      3  C   UNL     1      -0.618  13.370  19.975  0.00  0.00    +0.000 A 
ATOM      4  N   UNL     1      -0.388  12.042  20.042  0.00  0.00    +0.000 NA
ATOM      5  C   UNL     1       0.741  11.556  19.482  0.00  0.00    +0.000 A 
ATOM      6  N   UNL     1       1.082  10.227  19.660  0.00  0.00    +0.000 N 
ATOM      7  C   UNL     1       0.570   9.570  20.843  0.00  0.00    +0.000 C 
ATOM      8  C   UNL     1       1.638   8.572  21.268  0.00  0.00    +0.000 C 
ATOM      9  C   UNL     1       2.187   7.678  20.129  0.00  0.00    +0.000 C 
ATOM     10  C   UNL     1       2.249   8.358  18.745  0.00  0.00    +0.000 C 
ATOM     11  C   UNL     1       1.127   9.356  18.493  0.00  0.00    +0.000 C 
ATOM     12  C   UNL     1       1.654  12.389  18.855  0.00  0.00    +0.000 A 
ENDROOT
BRANCH   9  13
ATOM     13  C   UNL     1       1.478   6.301  20.138  0.00  0.00    +0.000 C 
ATOM     14  O   UNL     1       0.372   6.171  20.667  0.00  0.00    +0.000 OA
ATOM     15  N   UNL     1       2.204   5.205  19.622  0.00  0.00    +0.000 N 
BRANCH  15  16
ATOM     16  C   UNL     1       3.433   5.389  18.929  0.00  0.00    +0.000 A 
ATOM     17  C   UNL     1       3.469   5.561  17.538  0.00  0.00    +0.000 A 
ATOM     18  C   UNL     1       4.684   5.438  16.853  0.00  0.00    +0.000 A 
ATOM     19  C   UNL     1       5.859   5.190  17.561  0.00  0.00    +0.000 A 
ATOM     20 CL   UNL     1       7.345   4.990  16.721  0.00  0.00    +0.000 Cl
ATOM     21  C   UNL     1       5.836   5.077  18.950  0.00  0.00    +0.000 A 
ATOM     22  C   UNL     1       4.626   5.189  19.632  0.00  0.00    +0.000 A 
ENDBRANCH  15  16
BRANCH  15  23
ATOM     23  C   UNL     1       1.839   3.847  20.017  0.00  0.00    +0.000 C 
BRANCH  23  24
ATOM     24  C   UNL     1       1.388   2.944  18.896  0.00  0.00    +0.000 C 
ATOM     25  C   UNL     1       2.220   2.241  17.840  0.00  0.00    +0.000 C 
ATOM     26  C   UNL     1       1.743   1.475  19.033  0.00  0.00    +0.000 C 
ENDBRANCH  23  24
ENDBRANCH  15  23
ENDBRANCH   9  13
BRANCH   1  28
ATOM     27  N   UNL     1       3.171  15.355  17.783  0.00  0.00    +0.000 NA
ATOM     28  C   UNL     1       2.382  14.636  18.249  0.00  0.00    +0.000 C 
ENDBRANCH   1  28
TORSDOF 5
ENDMDL
MODEL 8
REMARK VINA RESULT:      -6.1      3.469      8.694
REMARK  Name = 
REMARK  5 active torsions:
REMARK  status: ('A' for Active; 'I' for Inactive)
REMARK    1  A    between atoms: C_2  and  C_3
REMARK    2  A    between atoms: C_11  and  C_12
REMARK    3  A    between atoms: N_14  and  C_15
REMARK    4  A    between atoms: N_14  and  C_19
REMARK    5  A    between atoms: C_15  and  C_16
REMARK                            x       y       z     vdW  Elec       q    Type
REMARK                         _______ _______ _______ _____ _____    ______ ____
ROOT
ATOM      1  C   UNL     1       5.278   5.329  18.866  0.00  0.00    +0.000 A 
ATOM      2  C   UNL     1       4.902   4.438  17.876  0.00  0.00    +0.000 A 
ATOM      3  C   UNL     1       3.635   4.573  17.341  0.00  0.00    +0.000 A 
ATOM      4  N   UNL     1       2.763   5.529  17.720  0.00  0.00    +0.000 NA
ATOM      5  C   UNL     1       3.134   6.389  18.694  0.00  0.00    +0.000 A 
ATOM      6  N   UNL     1       2.328   7.469  19.004  0.00  0.00    +0.000 N 
ATOM      7  C   UNL     1       1.453   7.958  17.960  0.00  0.00    +0.000 C 
ATOM      8  C   UNL     1       1.358   9.464  18.160  0.00  0.00    +0.000 C 
ATOM      9  C   UNL     1       1.066   9.914  19.613  0.00  0.00    +0.000 C 
ATOM     10  C   UNL     1       1.677   9.011  20.705  0.00  0.00    +0.000 C 
ATOM     11  C   UNL     1       1.731   7.536  20.332  0.00  0.00    +0.000 C 
ATOM     12  C   UNL     1       4.381   6.307  19.294  0.00  0.00    +0.000 A 
ENDROOT
BRANCH   9  13
ATOM     13  C   UNL     1      -0.444  10.207  19.791  0.00  0.00    +0.000 C 
ATOM     14  O   UNL     1      -1.253   9.282  19.896  0.00  0.00    +0.000 OA
ATOM     15  N   UNL     1      -0.846  11.558  19.712  0.00  0.00    +0.000 N 
BRANCH  15  16
ATOM     16  C   UNL     1       0.105  12.616  19.689  0.00  0.00    +0.000 A 
ATOM     17  C   UNL     1       0.648  13.084  18.484  0.00  0.00    +0.000 A 
ATOM     18  C   UNL     1       1.785  13.901  18.505  0.00  0.00    +0.000 A 
ATOM     19  C   UNL     1       2.344  14.282  19.724  0.00  0.00    +0.000 A 
ATOM     20 CL   UNL     1       3.768  15.245  19.754  0.00  0.00    +0.000 Cl
ATOM     21  C   UNL     1       1.772  13.867  20.924  0.00  0.00    +0.000 A 
ATOM     22  C   UNL     1       0.647  13.045  20.905  0.00  0.00    +0.000 A 
ENDBRANCH  15  16
BRANCH  15  23
ATOM     23  C   UNL     1      -2.235  11.881  19.388  0.00  0.00    +0.000 C 
BRANCH  23  24
ATOM     24  C   UNL     1      -2.606  11.758  17.931  0.00  0.00    +0.000 C 
ATOM     25  C   UNL     1      -2.185  10.707  16.921  0.00  0.00    +0.000 C 
ATOM     26  C   UNL     1      -3.530  10.611  17.568  0.00  0.00    +0.000 C 
ENDBRANCH  23  24
ENDBRANCH  15  23
ENDBRANCH   9  13
BRANCH   1  28
ATOM     27  N   UNL     1       7.665   5.246  19.873  0.00  0.00    +0.000 NA
ATOM     28  C   UNL     1       6.592   5.287  19.421  0.00  0.00    +0.000 C 
ENDBRANCH   1  28
TORSDOF 5
ENDMDL
MODEL 9
REMARK VINA RESULT:      -6.0      6.764      7.908
REMARK  Name = 
REMARK  5 active torsions:
REMARK  status: ('A' for Active; 'I' for Inactive)
REMARK    1  A    between atoms: C_2  and  C_3
REMARK    2  A    between atoms: C_11  and  C_12
REMARK    3  A    between atoms: N_14  and  C_15
REMARK    4  A    between atoms: N_14  and  C_19
REMARK    5  A    between atoms: C_15  and  C_16
REMARK                            x       y       z     vdW  Elec       q    Type
REMARK                         _______ _______ _______ _____ _____    ______ ____
ROOT
ATOM      1  C   UNL     1       9.336  11.481  20.279  0.00  0.00    +0.000 A 
ATOM      2  C   UNL     1       9.847  12.231  19.234  0.00  0.00    +0.000 A 
ATOM      3  C   UNL     1       9.847  11.659  17.975  0.00  0.00    +0.000 A 
ATOM      4  N   UNL     1       9.365  10.426  17.716  0.00  0.00    +0.000 NA
ATOM      5  C   UNL     1       8.877   9.697  18.743  0.00  0.00    +0.000 A 
ATOM      6  N   UNL     1       8.241   8.494  18.494  0.00  0.00    +0.000 N 
ATOM      7  C   UNL     1       7.633   8.329  17.192  0.00  0.00    +0.000 C 
ATOM      8  C   UNL     1       6.395   7.470  17.410  0.00  0.00    +0.000 C 
ATOM      9  C   UNL     1       6.623   6.199  18.264  0.00  0.00    +0.000 C 
ATOM     10  C   UNL     1       7.685   6.347  19.373  0.00  0.00    +0.000 C 
ATOM     11  C   UNL     1       8.840   7.269  19.008  0.00  0.00    +0.000 C 
ATOM     12  C   UNL     1       8.859  10.193  20.038  0.00  0.00    +0.000 A 
ENDROOT
BRANCH   9  13
ATOM     13  C   UNL     1       6.816   4.965  17.348  0.00  0.00    +0.000 C 
ATOM     14  O   UNL     1       7.849   4.832  16.688  0.00  0.00    +0.000 OA
ATOM     15  N   UNL     1       5.720   4.083  17.226  0.00  0.00    +0.000 N 
BRANCH  15  16
ATOM     16  C   UNL     1       4.578   4.197  18.065  0.00  0.00    +0.000 A 
ATOM     17  C   UNL     1       4.493   3.505  19.281  0.00  0.00    +0.000 A 
ATOM     18  C   UNL     1       3.259   3.393  19.934  0.00  0.00    +0.000 A 
ATOM     19  C   UNL     1       2.130   4.009  19.395  0.00  0.00    +0.000 A 
ATOM     20 CL   UNL     1       0.604   3.834  20.166  0.00  0.00    +0.000 Cl
ATOM     21  C   UNL     1       2.223   4.747  18.217  0.00  0.00    +0.000 A 
ATOM     22  C   UNL     1       3.448   4.850  17.560  0.00  0.00    +0.000 A 
ENDBRANCH  15  16
BRANCH  15  23
ATOM     23  C   UNL     1       5.629   3.202  16.062  0.00  0.00    +0.000 C 
BRANCH  23  24
ATOM     24  C   UNL     1       5.221   3.871  14.773  0.00  0.00    +0.000 C 
ATOM     25  C   UNL     1       5.707   5.180  14.180  0.00  0.00    +0.000 C 
ATOM     26  C   UNL     1       6.261   3.888  13.668  0.00  0.00    +0.000 C 
ENDBRANCH  23  24
ENDBRANCH  15  23
ENDBRANCH   9  13
BRANCH   1  28
ATOM     27  N   UNL     1       9.183  12.483  22.664  0.00  0.00    +0.000 NA
ATOM     28  C   UNL     1       9.249  12.030  21.593  0.00  0.00    +0.000 C 
ENDBRANCH   1  28
TORSDOF 5
ENDMDL
