MODEL 1
REMARK VINA RESULT:      -8.7      0.000      0.000
REMARK  Name = 
REMARK  5 active torsions:
REMARK  status: ('A' for Active; 'I' for Inactive)
REMARK    1  A    between atoms: N_1  and  S_2
REMARK    2  A    between atoms: S_2  and  C_5
REMARK    3  A    between atoms: C_9  and  C_10
REMARK    4  A    between atoms: C_16  and  N_17
REMARK    5  A    between atoms: N_20  and  C_21
REMARK                            x       y       z     vdW  Elec       q    Type
REMARK                         _______ _______ _______ _____ _____    ______ ____
ROOT
ATOM      1  C   UNL     1       2.581   6.032  19.354  0.00  0.00    +0.000 A 
ATOM      2  N   UNL     1       2.273   5.400  20.507  0.00  0.00    +0.000 NA
ATOM      3  N   UNL     1       1.587   6.264  21.221  0.00  0.00    +0.000 N 
ATOM      4  C   UNL     1       1.452   7.484  20.652  0.00  0.00    +0.000 A 
ATOM      5  C   UNL     1       0.842   8.602  21.202  0.00  0.00    +0.000 A 
ATOM      6  C   UNL     1       0.754   9.739  20.417  0.00  0.00    +0.000 A 
ATOM      7  C   UNL     1       1.267   9.804  19.121  0.00  0.00    +0.000 A 
ATOM      8  C   UNL     1       1.899   8.621  18.579  0.00  0.00    +0.000 A 
ATOM      9  C   UNL     1       2.030   7.411  19.379  0.00  0.00    +0.000 A 
ATOM     10  H   UNL     1       1.222   5.960  22.117  0.00  0.00    +0.000 HD
ENDROOT
BRANCH   1  15
ATOM     11  C   UNL     1       5.580   4.940  17.269  0.00  0.00    +0.000 A 
ATOM     12  C   UNL     1       5.044   3.930  16.478  0.00  0.00    +0.000 A 
ATOM     13  C   UNL     1       3.717   3.560  16.655  0.00  0.00    +0.000 A 
ATOM     14  C   UNL     1       2.897   4.180  17.625  0.00  0.00    +0.000 A 
ATOM     15  C   UNL     1       3.410   5.173  18.461  0.00  0.00    +0.000 A 
ATOM     16  C   UNL     1       4.784   5.530  18.264  0.00  0.00    +0.000 A 
BRANCH  11  17
ATOM     17  S   UNL     1       7.264   5.454  17.003  0.00  0.00    +0.000 S 
ATOM     18  O   UNL     1       7.541   6.602  17.833  0.00  0.00    +0.000 OA
ATOM     19  O   UNL     1       7.533   5.451  15.584  0.00  0.00    +0.000 OA
BRANCH  17  20
ATOM     20  N   UNL     1       8.160   4.161  17.621  0.00  0.00    +0.000 NA
ATOM     21  H   UNL     1       7.538   3.572  18.179  0.00  0.00    +0.000 HD
ATOM     22  H   UNL     1       8.941   4.483  18.197  0.00  0.00    +0.000 HD
ENDBRANCH  17  20
ENDBRANCH  11  17
ENDBRANCH   1  15
BRANCH   7  23
ATOM     23  N   UNL     1       1.087  11.047  18.391  0.00  0.00    +0.000 N 
ATOM     24  C   UNL     1       1.335  12.318  18.962  0.00  0.00    +0.000 C 
ATOM     25  O   UNL     1       1.909  12.465  20.038  0.00  0.00    +0.000 OA
ATOM     26  N   UNL     1       0.874  13.398  18.205  0.00  0.00    +0.000 N 
ATOM     27  H   UNL     1       1.020  10.996  17.386  0.00  0.00    +0.000 HD
ATOM     28  H   UNL     1       0.181  13.206  17.498  0.00  0.00    +0.000 HD
BRANCH  26  29
ATOM     29  C   UNL     1       1.092  14.787  18.520  0.00  0.00    +0.000 A 
ATOM     30  C   UNL     1       2.337  15.425  18.399  0.00  0.00    +0.000 A 
ATOM     31  C   UNL     1       2.505  16.782  18.696  0.00  0.00    +0.000 A 
ATOM     32  C   UNL     1       1.424  17.548  19.122  0.00  0.00    +0.000 A 
ATOM     33  C   UNL     1       0.176  16.942  19.250  0.00  0.00    +0.000 A 
ATOM     34  C   UNL     1       0.012  15.577  18.952  0.00  0.00    +0.000 A 
ENDBRANCH  26  29
ENDBRANCH   7  23
TORSDOF 5
ENDMDL
MODEL 2
REMARK VINA RESULT:      -8.6      0.657      1.109
REMARK  Name = 
REMARK  5 active torsions:
REMARK  status: ('A' for Active; 'I' for Inactive)
REMARK    1  A    between atoms: N_1  and  S_2
REMARK    2  A    between atoms: S_2  and  C_5
REMARK    3  A    between atoms: C_9  and  C_10
REMARK    4  A    between atoms: C_16  and  N_17
REMARK    5  A    between atoms: N_20  and  C_21
REMARK                            x       y       z     vdW  Elec       q    Type
REMARK                         _______ _______ _______ _____ _____    ______ ____
ROOT
ATOM      1  C   UNL     1       2.593   6.100  19.404  0.00  0.00    +0.000 A 
ATOM      2  N   UNL     1       2.247   5.473  20.548  0.00  0.00    +0.000 NA
ATOM      3  N   UNL     1       1.543   6.340  21.239  0.00  0.00    +0.000 N 
ATOM      4  C   UNL     1       1.430   7.560  20.663  0.00  0.00    +0.000 A 
ATOM      5  C   UNL     1       0.807   8.680  21.191  0.00  0.00    +0.000 A 
ATOM      6  C   UNL     1       0.747   9.816  20.402  0.00  0.00    +0.000 A 
ATOM      7  C   UNL     1       1.300   9.877  19.122  0.00  0.00    +0.000 A 
ATOM      8  C   UNL     1       1.944   8.690  18.602  0.00  0.00    +0.000 A 
ATOM      9  C   UNL     1       2.046   7.482  19.409  0.00  0.00    +0.000 A 
ATOM     10  H   UNL     1       1.149   6.040  22.124  0.00  0.00    +0.000 HD
ENDROOT
BRANCH   1  15
ATOM     11  C   UNL     1       5.681   4.951  17.486  0.00  0.00    +0.000 A 
ATOM     12  C   UNL     1       5.160   3.990  16.627  0.00  0.00    +0.000 A 
ATOM     13  C   UNL     1       3.810   3.670  16.702  0.00  0.00    +0.000 A 
ATOM     14  C   UNL     1       2.951   4.293  17.637  0.00  0.00    +0.000 A 
ATOM     15  C   UNL     1       3.446   5.237  18.539  0.00  0.00    +0.000 A 
ATOM     16  C   UNL     1       4.843   5.542  18.446  0.00  0.00    +0.000 A 
BRANCH  11  17
ATOM     17  S   UNL     1       7.397   5.402  17.350  0.00  0.00    +0.000 S 
ATOM     18  O   UNL     1       7.524   6.485  16.405  0.00  0.00    +0.000 OA
ATOM     19  O   UNL     1       8.189   4.199  17.247  0.00  0.00    +0.000 OA
BRANCH  17  20
ATOM     20  N   UNL     1       7.750   6.029  18.880  0.00  0.00    +0.000 NA
ATOM     21  H   UNL     1       7.050   5.687  19.541  0.00  0.00    +0.000 HD
ATOM     22  H   UNL     1       7.755   7.051  18.878  0.00  0.00    +0.000 HD
ENDBRANCH  17  20
ENDBRANCH  11  17
ENDBRANCH   1  15
BRANCH   7  23
ATOM     23  N   UNL     1       1.147  11.118  18.384  0.00  0.00    +0.000 N 
ATOM     24  C   UNL     1       1.392  12.389  18.956  0.00  0.00    +0.000 C 
ATOM     25  O   UNL     1       1.942  12.535  20.045  0.00  0.00    +0.000 OA
ATOM     26  N   UNL     1       0.957  13.470  18.186  0.00  0.00    +0.000 N 
ATOM     27  H   UNL     1       1.103  11.064  17.378  0.00  0.00    +0.000 HD
ATOM     28  H   UNL     1       0.279  13.281  17.463  0.00  0.00    +0.000 HD
BRANCH  26  29
ATOM     29  C   UNL     1       1.180  14.859  18.500  0.00  0.00    +0.000 A 
ATOM     30  C   UNL     1       0.201  15.696  19.057  0.00  0.00    +0.000 A 
ATOM     31  C   UNL     1       0.461  17.037  19.366  0.00  0.00    +0.000 A 
ATOM     32  C   UNL     1       1.719  17.580  19.129  0.00  0.00    +0.000 A 
ATOM     33  C   UNL     1       2.712  16.773  18.578  0.00  0.00    +0.000 A 
ATOM     34  C   UNL     1       2.446  15.426  18.268  0.00  0.00    +0.000 A 
ENDBRANCH  26  29
ENDBRANCH   7  23
TORSDOF 5
ENDMDL
MODEL 3
REMARK VINA RESULT:      -8.2      4.722      9.896
REMARK  Name = 
REMARK  5 active torsions:
REMARK  status: ('A' for Active; 'I' for Inactive)
REMARK    1  A    between atoms: N_1  and  S_2
REMARK    2  A    between atoms: S_2  and  C_5
REMARK    3  A    between atoms: C_9  and  C_10
REMARK    4  A    between atoms: C_16  and  N_17
REMARK    5  A    between atoms: N_20  and  C_21
REMARK                            x       y       z     vdW  Elec       q    Type
REMARK                         _______ _______ _______ _____ _____    ______ ____
ROOT
ATOM      1  C   UNL     1      -1.257  10.747  19.447  0.00  0.00    +0.000 A 
ATOM      2  N   UNL     1      -1.491  11.745  20.325  0.00  0.00    +0.000 NA
ATOM      3  N   UNL     1      -0.720  11.506  21.361  0.00  0.00    +0.000 N 
ATOM      4  C   UNL     1      -0.004  10.360  21.276  0.00  0.00    +0.000 A 
ATOM      5  C   UNL     1       0.834   9.824  22.242  0.00  0.00    +0.000 A 
ATOM      6  C   UNL     1       1.528   8.669  21.924  0.00  0.00    +0.000 A 
ATOM      7  C   UNL     1       1.399   8.025  20.692  0.00  0.00    +0.000 A 
ATOM      8  C   UNL     1       0.515   8.610  19.708  0.00  0.00    +0.000 A 
ATOM      9  C   UNL     1      -0.248   9.813  20.012  0.00  0.00    +0.000 A 
ATOM     10  H   UNL     1      -0.719  12.176  22.122  0.00  0.00    +0.000 HD
ENDROOT
BRANCH   1  15
ATOM     11  C   UNL     1      -4.346  11.513  17.348  0.00  0.00    +0.000 A 
ATOM     12  C   UNL     1      -4.074  10.844  16.159  0.00  0.00    +0.000 A 
ATOM     13  C   UNL     1      -2.861  10.185  16.012  0.00  0.00    +0.000 A 
ATOM     14  C   UNL     1      -1.889  10.180  17.039  0.00  0.00    +0.000 A 
ATOM     15  C   UNL     1      -2.112  10.870  18.232  0.00  0.00    +0.000 A 
ATOM     16  C   UNL     1      -3.367  11.550  18.355  0.00  0.00    +0.000 A 
BRANCH  11  17
ATOM     17  S   UNL     1      -5.923  12.310  17.557  0.00  0.00    +0.000 S 
ATOM     18  O   UNL     1      -6.889  11.329  17.994  0.00  0.00    +0.000 OA
ATOM     19  O   UNL     1      -6.165  13.172  16.425  0.00  0.00    +0.000 OA
BRANCH  17  20
ATOM     20  N   UNL     1      -5.653  13.358  18.856  0.00  0.00    +0.000 NA
ATOM     21  H   UNL     1      -4.919  14.019  18.592  0.00  0.00    +0.000 HD
ATOM     22  H   UNL     1      -5.377  12.852  19.700  0.00  0.00    +0.000 HD
ENDBRANCH  17  20
ENDBRANCH  11  17
ENDBRANCH   1  15
BRANCH   7  23
ATOM     23  N   UNL     1       2.202   6.835  20.471  0.00  0.00    +0.000 N 
ATOM     24  C   UNL     1       3.036   6.669  19.339  0.00  0.00    +0.000 C 
ATOM     25  O   UNL     1       3.302   7.586  18.567  0.00  0.00    +0.000 OA
ATOM     26  N   UNL     1       3.534   5.376  19.166  0.00  0.00    +0.000 N 
ATOM     27  H   UNL     1       2.359   6.222  21.256  0.00  0.00    +0.000 HD
ATOM     28  H   UNL     1       3.064   4.629  19.654  0.00  0.00    +0.000 HD
BRANCH  26  29
ATOM     29  C   UNL     1       4.480   4.977  18.154  0.00  0.00    +0.000 A 
ATOM     30  C   UNL     1       4.108   4.433  16.915  0.00  0.00    +0.000 A 
ATOM     31  C   UNL     1       5.057   4.075  15.949  0.00  0.00    +0.000 A 
ATOM     32  C   UNL     1       6.413   4.255  16.197  0.00  0.00    +0.000 A 
ATOM     33  C   UNL     1       6.812   4.794  17.418  0.00  0.00    +0.000 A 
ATOM     34  C   UNL     1       5.856   5.151  18.386  0.00  0.00    +0.000 A 
ENDBRANCH  26  29
ENDBRANCH   7  23
TORSDOF 5
ENDMDL
MODEL 4
REMARK VINA RESULT:      -8.1      3.478      9.317
REMARK  Name = 
REMARK  5 active torsions:
REMARK  status: ('A' for Active; 'I' for Inactive)
REMARK    1  A    between atoms: N_1  and  S_2
REMARK    2  A    between atoms: S_2  and  C_5
REMARK    3  A    between atoms: C_9  and  C_10
REMARK    4  A    between atoms: C_16  and  N_17
REMARK    5  A    between atoms: N_20  and  C_21
REMARK                            x       y       z     vdW  Elec       q    Type
REMARK                         _______ _______ _______ _____ _____    ______ ____
ROOT
ATOM      1  C   UNL     1      -0.138  13.311  21.072  0.00  0.00    +0.000 A 
ATOM      2  N   UNL     1      -1.129  13.820  21.834  0.00  0.00    +0.000 NA
ATOM      3  N   UNL     1      -1.477  12.863  22.664  0.00  0.00    +0.000 N 
ATOM      4  C   UNL     1      -0.821  11.694  22.480  0.00  0.00    +0.000 A 
ATOM      5  C   UNL     1      -1.029  10.502  23.159  0.00  0.00    +0.000 A 
ATOM      6  C   UNL     1      -0.196   9.437  22.861  0.00  0.00    +0.000 A 
ATOM      7  C   UNL     1       0.815   9.514  21.901  0.00  0.00    +0.000 A 
ATOM      8  C   UNL     1       1.003  10.771  21.210  0.00  0.00    +0.000 A 
ATOM      9  C   UNL     1       0.135  11.909  21.481  0.00  0.00    +0.000 A 
ATOM     10  H   UNL     1      -2.189  13.066  23.357  0.00  0.00    +0.000 HD
ENDROOT
BRANCH   1  15
ATOM     11  C   UNL     1       2.273  15.493  19.081  0.00  0.00    +0.000 A 
ATOM     12  C   UNL     1       1.416  16.384  18.446  0.00  0.00    +0.000 A 
ATOM     13  C   UNL     1       0.044  16.249  18.617  0.00  0.00    +0.000 A 
ATOM     14  C   UNL     1      -0.505  15.221  19.418  0.00  0.00    +0.000 A 
ATOM     15  C   UNL     1       0.322  14.287  20.043  0.00  0.00    +0.000 A 
ATOM     16  C   UNL     1       1.733  14.443  19.843  0.00  0.00    +0.000 A 
BRANCH  11  17
ATOM     17  S   UNL     1       4.032  15.702  18.908  0.00  0.00    +0.000 S 
ATOM     18  O   UNL     1       4.697  14.990  19.973  0.00  0.00    +0.000 OA
ATOM     19  O   UNL     1       4.311  17.090  18.623  0.00  0.00    +0.000 OA
BRANCH  17  20
ATOM     20  N   UNL     1       4.374  14.883  17.469  0.00  0.00    +0.000 NA
ATOM     21  H   UNL     1       4.127  15.489  16.683  0.00  0.00    +0.000 HD
ATOM     22  H   UNL     1       3.860  14.003  17.403  0.00  0.00    +0.000 HD
ENDBRANCH  17  20
ENDBRANCH  11  17
ENDBRANCH   1  15
BRANCH   7  23
ATOM     23  N   UNL     1       1.638   8.335  21.699  0.00  0.00    +0.000 N 
ATOM     24  C   UNL     1       1.812   7.725  20.434  0.00  0.00    +0.000 C 
ATOM     25  O   UNL     1       1.452   8.251  19.385  0.00  0.00    +0.000 OA
ATOM     26  N   UNL     1       2.426   6.470  20.470  0.00  0.00    +0.000 N 
ATOM     27  H   UNL     1       2.294   8.090  22.426  0.00  0.00    +0.000 HD
ATOM     28  H   UNL     1       2.435   5.984  21.354  0.00  0.00    +0.000 HD
BRANCH  26  29
ATOM     29  C   UNL     1       2.803   5.695  19.316  0.00  0.00    +0.000 A 
ATOM     30  C   UNL     1       1.980   4.721  18.730  0.00  0.00    +0.000 A 
ATOM     31  C   UNL     1       2.375   4.002  17.597  0.00  0.00    +0.000 A 
ATOM     32  C   UNL     1       3.613   4.240  17.009  0.00  0.00    +0.000 A 
ATOM     33  C   UNL     1       4.452   5.202  17.568  0.00  0.00    +0.000 A 
ATOM     34  C   UNL     1       4.052   5.922  18.708  0.00  0.00    +0.000 A 
ENDBRANCH  26  29
ENDBRANCH   7  23
TORSDOF 5
ENDMDL
MODEL 5
REMARK VINA RESULT:      -8.1      4.268      5.281
REMARK  Name = 
REMARK  5 active torsions:
REMARK  status: ('A' for Active; 'I' for Inactive)
REMARK    1  A    between atoms: N_1  and  S_2
REMARK    2  A    between atoms: S_2  and  C_5
REMARK    3  A    between atoms: C_9  and  C_10
REMARK    4  A    between atoms: C_16  and  N_17
REMARK    5  A    between atoms: N_20  and  C_21
REMARK                            x       y       z     vdW  Elec       q    Type
REMARK                         _______ _______ _______ _____ _____    ______ ____
ROOT
ATOM      1  C   UNL     1       1.755   8.489  19.269  0.00  0.00    +0.000 A 
ATOM      2  N   UNL     1       2.178   8.843  18.037  0.00  0.00    +0.000 NA
ATOM      3  N   UNL     1       1.697  10.046  17.819  0.00  0.00    +0.000 N 
ATOM      4  C   UNL     1       0.910  10.525  18.810  0.00  0.00    +0.000 A 
ATOM      5  C   UNL     1       0.218  11.727  18.823  0.00  0.00    +0.000 A 
ATOM      6  C   UNL     1      -0.480  12.057  19.972  0.00  0.00    +0.000 A 
ATOM      7  C   UNL     1      -0.526  11.225  21.093  0.00  0.00    +0.000 A 
ATOM      8  C   UNL     1       0.205   9.978  21.046  0.00  0.00    +0.000 A 
ATOM      9  C   UNL     1       0.935   9.585  19.847  0.00  0.00    +0.000 A 
ATOM     10  H   UNL     1       1.943  10.510  16.952  0.00  0.00    +0.000 HD
ENDROOT
BRANCH   1  15
ATOM     11  C   UNL     1       3.382   5.067  18.857  0.00  0.00    +0.000 A 
ATOM     12  C   UNL     1       2.818   4.339  19.900  0.00  0.00    +0.000 A 
ATOM     13  C   UNL     1       1.945   4.971  20.776  0.00  0.00    +0.000 A 
ATOM     14  C   UNL     1       1.620   6.340  20.640  0.00  0.00    +0.000 A 
ATOM     15  C   UNL     1       2.194   7.111  19.628  0.00  0.00    +0.000 A 
ATOM     16  C   UNL     1       3.097   6.437  18.743  0.00  0.00    +0.000 A 
BRANCH  11  17
ATOM     17  S   UNL     1       4.454   4.242  17.701  0.00  0.00    +0.000 S 
ATOM     18  O   UNL     1       4.815   5.168  16.654  0.00  0.00    +0.000 OA
ATOM     19  O   UNL     1       3.914   2.934  17.414  0.00  0.00    +0.000 OA
BRANCH  17  20
ATOM     20  N   UNL     1       5.848   3.950  18.612  0.00  0.00    +0.000 NA
ATOM     21  H   UNL     1       5.567   3.644  19.547  0.00  0.00    +0.000 HD
ATOM     22  H   UNL     1       6.436   4.783  18.683  0.00  0.00    +0.000 HD
ENDBRANCH  17  20
ENDBRANCH  11  17
ENDBRANCH   1  15
BRANCH   7  23
ATOM     23  N   UNL     1      -1.270  11.698  22.247  0.00  0.00    +0.000 N 
ATOM     24  C   UNL     1      -2.527  12.341  22.142  0.00  0.00    +0.000 C 
ATOM     25  O   UNL     1      -3.176  12.370  21.099  0.00  0.00    +0.000 OA
ATOM     26  N   UNL     1      -2.974  12.944  23.320  0.00  0.00    +0.000 N 
ATOM     27  H   UNL     1      -1.005  11.345  23.154  0.00  0.00    +0.000 HD
ATOM     28  H   UNL     1      -2.288  13.127  24.036  0.00  0.00    +0.000 HD
BRANCH  26  29
ATOM     29  C   UNL     1      -4.260  13.571  23.497  0.00  0.00    +0.000 A 
ATOM     30  C   UNL     1      -4.494  14.937  23.281  0.00  0.00    +0.000 A 
ATOM     31  C   UNL     1      -5.763  15.506  23.446  0.00  0.00    +0.000 A 
ATOM     32  C   UNL     1      -6.842  14.717  23.831  0.00  0.00    +0.000 A 
ATOM     33  C   UNL     1      -6.639  13.357  24.052  0.00  0.00    +0.000 A 
ATOM     34  C   UNL     1      -5.362  12.789  23.886  0.00  0.00    +0.000 A 
ENDBRANCH  26  29
ENDBRANCH   7  23
TORSDOF 5
ENDMDL
MODEL 6
REMARK VINA RESULT:      -8.1      3.636      9.444
REMARK  Name = 
REMARK  5 active torsions:
REMARK  status: ('A' for Active; 'I' for Inactive)
REMARK    1  A    between atoms: N_1  and  S_2
REMARK    2  A    between atoms: S_2  and  C_5
REMARK    3  A    between atoms: C_9  and  C_10
REMARK    4  A    between atoms: C_16  and  N_17
REMARK    5  A    between atoms: N_20  and  C_21
REMARK                            x       y       z     vdW  Elec       q    Type
REMARK                         _______ _______ _______ _____ _____    ______ ____
ROOT
ATOM      1  C   UNL     1       2.057   6.685  19.986  0.00  0.00    +0.000 A 
ATOM      2  N   UNL     1       1.347   6.282  21.062  0.00  0.00    +0.000 NA
ATOM      3  N   UNL     1       1.608   5.003  21.210  0.00  0.00    +0.000 N 
ATOM      4  C   UNL     1       2.415   4.480  20.258  0.00  0.00    +0.000 A 
ATOM      5  C   UNL     1       2.801   3.155  20.125  0.00  0.00    +0.000 A 
ATOM      6  C   UNL     1       3.693   2.842  19.113  0.00  0.00    +0.000 A 
ATOM      7  C   UNL     1       4.193   3.796  18.225  0.00  0.00    +0.000 A 
ATOM      8  C   UNL     1       3.768   5.169  18.391  0.00  0.00    +0.000 A 
ATOM      9  C   UNL     1       2.816   5.535  19.431  0.00  0.00    +0.000 A 
ATOM     10  H   UNL     1       1.198   4.520  22.001  0.00  0.00    +0.000 HD
ENDROOT
BRANCH   1  15
ATOM     11  C   UNL     1       0.685  10.220  20.389  0.00  0.00    +0.000 A 
ATOM     12  C   UNL     1       0.875  10.761  19.122  0.00  0.00    +0.000 A 
ATOM     13  C   UNL     1       1.498   9.999  18.143  0.00  0.00    +0.000 A 
ATOM     14  C   UNL     1       1.953   8.685  18.403  0.00  0.00    +0.000 A 
ATOM     15  C   UNL     1       1.813   8.122  19.672  0.00  0.00    +0.000 A 
ATOM     16  C   UNL     1       1.174   8.932  20.667  0.00  0.00    +0.000 A 
BRANCH  11  17
ATOM     17  S   UNL     1      -0.165  11.176  21.626  0.00  0.00    +0.000 S 
ATOM     18  O   UNL     1       0.046  10.566  22.918  0.00  0.00    +0.000 OA
ATOM     19  O   UNL     1      -1.485  11.500  21.139  0.00  0.00    +0.000 OA
BRANCH  17  20
ATOM     20  N   UNL     1       0.676  12.642  21.622  0.00  0.00    +0.000 NA
ATOM     21  H   UNL     1       0.709  13.001  22.579  0.00  0.00    +0.000 HD
ATOM     22  H   UNL     1       0.235  13.330  21.009  0.00  0.00    +0.000 HD
ENDBRANCH  17  20
ENDBRANCH  11  17
ENDBRANCH   1  15
BRANCH   7  23
ATOM     23  N   UNL     1       5.143   3.346  17.223  0.00  0.00    +0.000 N 
ATOM     24  C   UNL     1       5.404   4.064  16.032  0.00  0.00    +0.000 C 
ATOM     25  O   UNL     1       5.006   5.211  15.844  0.00  0.00    +0.000 OA
ATOM     26  N   UNL     1       6.151   3.365  15.080  0.00  0.00    +0.000 N 
ATOM     27  H   UNL     1       5.809   2.638  17.492  0.00  0.00    +0.000 HD
ATOM     28  H   UNL     1       6.198   2.362  15.174  0.00  0.00    +0.000 HD
BRANCH  26  29
ATOM     29  C   UNL     1       6.630   3.910  13.835  0.00  0.00    +0.000 A 
ATOM     30  C   UNL     1       6.248   3.422  12.576  0.00  0.00    +0.000 A 
ATOM     31  C   UNL     1       6.722   3.991  11.387  0.00  0.00    +0.000 A 
ATOM     32  C   UNL     1       7.594   5.073  11.425  0.00  0.00    +0.000 A 
ATOM     33  C   UNL     1       7.990   5.580  12.661  0.00  0.00    +0.000 A 
ATOM     34  C   UNL     1       7.513   5.005  13.853  0.00  0.00    +0.000 A 
ENDBRANCH  26  29
ENDBRANCH   7  23
TORSDOF 5
ENDMDL
MODEL 7
REMARK VINA RESULT:      -8.1      4.940      9.900
REMARK  Name = 
REMARK  5 active torsions:
REMARK  status: ('A' for Active; 'I' for Inactive)
REMARK    1  A    between atoms: N_1  and  S_2
REMARK    2  A    between atoms: S_2  and  C_5
REMARK    3  A    between atoms: C_9  and  C_10
REMARK    4  A    between atoms: C_16  and  N_17
REMARK    5  A    between atoms: N_20  and  C_21
REMARK                            x       y       z     vdW  Elec       q    Type
REMARK                         _______ _______ _______ _____ _____    ______ ____
ROOT
ATOM      1  C   UNL     1      -1.509  11.102  19.781  0.00  0.00    +0.000 A 
ATOM      2  N   UNL     1      -1.831  11.954  20.777  0.00  0.00    +0.000 NA
ATOM      3  N   UNL     1      -1.066  11.627  21.795  0.00  0.00    +0.000 N 
ATOM      4  C   UNL     1      -0.271  10.554  21.579  0.00  0.00    +0.000 A 
ATOM      5  C   UNL     1       0.582   9.948  22.489  0.00  0.00    +0.000 A 
ATOM      6  C   UNL     1       1.361   8.895  22.040  0.00  0.00    +0.000 A 
ATOM      7  C   UNL     1       1.303   8.418  20.729  0.00  0.00    +0.000 A 
ATOM      8  C   UNL     1       0.401   9.071  19.807  0.00  0.00    +0.000 A 
ATOM      9  C   UNL     1      -0.450  10.169  20.245  0.00  0.00    +0.000 A 
ATOM     10  H   UNL     1      -1.128  12.186  22.638  0.00  0.00    +0.000 HD
ENDROOT
BRANCH   1  15
ATOM     11  C   UNL     1      -4.634  11.782  17.705  0.00  0.00    +0.000 A 
ATOM     12  C   UNL     1      -4.229  11.418  16.426  0.00  0.00    +0.000 A 
ATOM     13  C   UNL     1      -2.921  11.001  16.219  0.00  0.00    +0.000 A 
ATOM     14  C   UNL     1      -1.985  10.941  17.278  0.00  0.00    +0.000 A 
ATOM     15  C   UNL     1      -2.346  11.332  18.568  0.00  0.00    +0.000 A 
ATOM     16  C   UNL     1      -3.698  11.767  18.753  0.00  0.00    +0.000 A 
BRANCH  11  17
ATOM     17  S   UNL     1      -6.326  12.262  17.980  0.00  0.00    +0.000 S 
ATOM     18  O   UNL     1      -6.859  12.819  16.759  0.00  0.00    +0.000 OA
ATOM     19  O   UNL     1      -6.415  12.957  19.242  0.00  0.00    +0.000 OA
BRANCH  17  20
ATOM     20  N   UNL     1      -7.106  10.784  18.237  0.00  0.00    +0.000 NA
ATOM     21  H   UNL     1      -6.408  10.037  18.197  0.00  0.00    +0.000 HD
ATOM     22  H   UNL     1      -7.835  10.615  17.541  0.00  0.00    +0.000 HD
ENDBRANCH  17  20
ENDBRANCH  11  17
ENDBRANCH   1  15
BRANCH   7  23
ATOM     23  N   UNL     1       2.191   7.325  20.375  0.00  0.00    +0.000 N 
ATOM     24  C   UNL     1       2.741   7.169  19.080  0.00  0.00    +0.000 C 
ATOM     25  O   UNL     1       2.677   8.043  18.219  0.00  0.00    +0.000 OA
ATOM     26  N   UNL     1       3.364   5.939  18.854  0.00  0.00    +0.000 N 
ATOM     27  H   UNL     1       2.620   6.806  21.125  0.00  0.00    +0.000 HD
ATOM     28  H   UNL     1       3.138   5.183  19.482  0.00  0.00    +0.000 HD
BRANCH  26  29
ATOM     29  C   UNL     1       4.083   5.578  17.659  0.00  0.00    +0.000 A 
ATOM     30  C   UNL     1       4.660   6.514  16.787  0.00  0.00    +0.000 A 
ATOM     31  C   UNL     1       5.368   6.123  15.644  0.00  0.00    +0.000 A 
ATOM     32  C   UNL     1       5.524   4.775  15.341  0.00  0.00    +0.000 A 
ATOM     33  C   UNL     1       4.963   3.822  16.189  0.00  0.00    +0.000 A 
ATOM     34  C   UNL     1       4.251   4.219  17.336  0.00  0.00    +0.000 A 
ENDBRANCH  26  29
ENDBRANCH   7  23
TORSDOF 5
ENDMDL
MODEL 8
REMARK VINA RESULT:      -8.0      1.035      1.084
REMARK  Name = 
REMARK  5 active torsions:
REMARK  status: ('A' for Active; 'I' for Inactive)
REMARK    1  A    between atoms: N_1  and  S_2
REMARK    2  A    between atoms: S_2  and  C_5
REMARK    3  A    between atoms: C_9  and  C_10
REMARK    4  A    between atoms: C_16  and  N_17
REMARK    5  A    between atoms: N_20  and  C_21
REMARK                            x       y       z     vdW  Elec       q    Type
REMARK                         _______ _______ _______ _____ _____    ______ ____
ROOT
ATOM      1  C   UNL     1       2.567   5.976  19.495  0.00  0.00    +0.000 A 
ATOM      2  N   UNL     1       2.209   5.373  20.649  0.00  0.00    +0.000 NA
ATOM      3  N   UNL     1       1.514   6.261  21.322  0.00  0.00    +0.000 N 
ATOM      4  C   UNL     1       1.420   7.472  20.725  0.00  0.00    +0.000 A 
ATOM      5  C   UNL     1       0.811   8.610  21.232  0.00  0.00    +0.000 A 
ATOM      6  C   UNL     1       0.768   9.733  20.422  0.00  0.00    +0.000 A 
ATOM      7  C   UNL     1       1.326   9.764  19.143  0.00  0.00    +0.000 A 
ATOM      8  C   UNL     1       1.955   8.560  18.646  0.00  0.00    +0.000 A 
ATOM      9  C   UNL     1       2.039   7.364  19.474  0.00  0.00    +0.000 A 
ATOM     10  H   UNL     1       1.115   5.982  22.211  0.00  0.00    +0.000 HD
ENDROOT
BRANCH   1  15
ATOM     11  C   UNL     1       4.966   4.963  16.711  0.00  0.00    +0.000 A 
ATOM     12  C   UNL     1       4.789   3.585  16.649  0.00  0.00    +0.000 A 
ATOM     13  C   UNL     1       3.929   2.968  17.549  0.00  0.00    +0.000 A 
ATOM     14  C   UNL     1       3.231   3.706  18.532  0.00  0.00    +0.000 A 
ATOM     15  C   UNL     1       3.410   5.086  18.647  0.00  0.00    +0.000 A 
ATOM     16  C   UNL     1       4.310   5.696  17.713  0.00  0.00    +0.000 A 
BRANCH  11  17
ATOM     17  S   UNL     1       6.023   5.759  15.521  0.00  0.00    +0.000 S 
ATOM     18  O   UNL     1       7.337   5.924  16.097  0.00  0.00    +0.000 OA
ATOM     19  O   UNL     1       5.306   6.859  14.920  0.00  0.00    +0.000 OA
BRANCH  17  20
ATOM     20  N   UNL     1       6.158   4.602  14.295  0.00  0.00    +0.000 NA
ATOM     21  H   UNL     1       7.133   4.568  13.986  0.00  0.00    +0.000 HD
ATOM     22  H   UNL     1       5.551   4.818  13.502  0.00  0.00    +0.000 HD
ENDBRANCH  17  20
ENDBRANCH  11  17
ENDBRANCH   1  15
BRANCH   7  23
ATOM     23  N   UNL     1       1.191  10.994  18.383  0.00  0.00    +0.000 N 
ATOM     24  C   UNL     1       1.406  12.274  18.947  0.00  0.00    +0.000 C 
ATOM     25  O   UNL     1       1.915  12.439  20.053  0.00  0.00    +0.000 OA
ATOM     26  N   UNL     1       0.993  13.342  18.147  0.00  0.00    +0.000 N 
ATOM     27  H   UNL     1       1.184  10.926  17.377  0.00  0.00    +0.000 HD
ATOM     28  H   UNL     1       0.343  13.138  17.402  0.00  0.00    +0.000 HD
BRANCH  26  29
ATOM     29  C   UNL     1       1.194  14.736  18.450  0.00  0.00    +0.000 A 
ATOM     30  C   UNL     1       2.433  15.385  18.338  0.00  0.00    +0.000 A 
ATOM     31  C   UNL     1       2.585  16.746  18.625  0.00  0.00    +0.000 A 
ATOM     32  C   UNL     1       1.492  17.505  19.031  0.00  0.00    +0.000 A 
ATOM     33  C   UNL     1       0.249  16.888  19.151  0.00  0.00    +0.000 A 
ATOM     34  C   UNL     1       0.101  15.519  18.863  0.00  0.00    +0.000 A 
ENDBRANCH  26  29
ENDBRANCH   7  23
TORSDOF 5
ENDMDL
MODEL 9
REMARK VINA RESULT:      -8.0      3.682      9.453
REMARK  Name = 
REMARK  5 active torsions:
REMARK  status: ('A' for Active; 'I' for Inactive)
REMARK    1  A    between atoms: N_1  and  S_2
REMARK    2  A    between atoms: S_2  and  C_5
REMARK    3  A    between atoms: C_9  and  C_10
REMARK    4  A    between atoms: C_16  and  N_17
REMARK    5  A    between atoms: N_20  and  C_21
REMARK                            x       y       z     vdW  Elec       q    Type
REMARK                         _______ _______ _______ _____ _____    ______ ____
ROOT
ATOM      1  C   UNL     1       1.997   6.967  20.053  0.00  0.00    +0.000 A 
ATOM      2  N   UNL     1       1.267   6.584  21.122  0.00  0.00    +0.000 NA
ATOM      3  N   UNL     1       1.553   5.317  21.321  0.00  0.00    +0.000 N 
ATOM      4  C   UNL     1       2.398   4.782  20.411  0.00  0.00    +0.000 A 
ATOM      5  C   UNL     1       2.818   3.462  20.333  0.00  0.00    +0.000 A 
ATOM      6  C   UNL     1       3.745   3.137  19.357  0.00  0.00    +0.000 A 
ATOM      7  C   UNL     1       4.248   4.073  18.451  0.00  0.00    +0.000 A 
ATOM      8  C   UNL     1       3.788   5.439  18.559  0.00  0.00    +0.000 A 
ATOM      9  C   UNL     1       2.798   5.818  19.559  0.00  0.00    +0.000 A 
ATOM     10  H   UNL     1       1.131   4.851  22.117  0.00  0.00    +0.000 HD
ENDROOT
BRANCH   1  15
ATOM     11  C   UNL     1       0.597  10.502  20.338  0.00  0.00    +0.000 A 
ATOM     12  C   UNL     1       0.749  10.989  19.044  0.00  0.00    +0.000 A 
ATOM     13  C   UNL     1       1.356  10.191  18.083  0.00  0.00    +0.000 A 
ATOM     14  C   UNL     1       1.832   8.895  18.388  0.00  0.00    +0.000 A 
ATOM     15  C   UNL     1       1.729   8.386  19.684  0.00  0.00    +0.000 A 
ATOM     16  C   UNL     1       1.107   9.233  20.658  0.00  0.00    +0.000 A 
BRANCH  11  17
ATOM     17  S   UNL     1      -0.233  11.502  21.553  0.00  0.00    +0.000 S 
ATOM     18  O   UNL     1      -1.635  11.582  21.217  0.00  0.00    +0.000 OA
ATOM     19  O   UNL     1       0.562  12.681  21.810  0.00  0.00    +0.000 OA
BRANCH  17  20
ATOM     20  N   UNL     1      -0.109  10.575  22.961  0.00  0.00    +0.000 NA
ATOM     21  H   UNL     1       0.734  10.860  23.465  0.00  0.00    +0.000 HD
ATOM     22  H   UNL     1      -0.066   9.575  22.754  0.00  0.00    +0.000 HD
ENDBRANCH  17  20
ENDBRANCH  11  17
ENDBRANCH   1  15
BRANCH   7  23
ATOM     23  N   UNL     1       5.236   3.612  17.492  0.00  0.00    +0.000 N 
ATOM     24  C   UNL     1       5.415   4.212  16.223  0.00  0.00    +0.000 C 
ATOM     25  O   UNL     1       4.898   5.282  15.912  0.00  0.00    +0.000 OA
ATOM     26  N   UNL     1       6.228   3.490  15.345  0.00  0.00    +0.000 N 
ATOM     27  H   UNL     1       5.974   3.013  17.830  0.00  0.00    +0.000 HD
ATOM     28  H   UNL     1       6.381   2.514  15.552  0.00  0.00    +0.000 HD
BRANCH  26  29
ATOM     29  C   UNL     1       6.642   3.934  14.039  0.00  0.00    +0.000 A 
ATOM     30  C   UNL     1       7.561   4.974  13.827  0.00  0.00    +0.000 A 
ATOM     31  C   UNL     1       7.953   5.365  12.542  0.00  0.00    +0.000 A 
ATOM     32  C   UNL     1       7.437   4.721  11.423  0.00  0.00    +0.000 A 
ATOM     33  C   UNL     1       6.523   3.684  11.602  0.00  0.00    +0.000 A 
ATOM     34  C   UNL     1       6.130   3.295  12.895  0.00  0.00    +0.000 A 
ENDBRANCH  26  29
ENDBRANCH   7  23
TORSDOF 5
ENDMDL
