MODEL 1
REMARK VINA RESULT:      -6.5      0.000      0.000
REMARK  Name = 
REMARK  8 active torsions:
REMARK  status: ('A' for Active; 'I' for Inactive)
REMARK    1  A    between atoms: C_1  and  O_2
REMARK    2  A    between atoms: O_2  and  C_3
REMARK    3  A    between atoms: C_6  and  C_7
REMARK    4  A    between atoms: C_7  and  C_8
REMARK    5  A    between atoms: N_10  and  C_11
REMARK    6  A    between atoms: N_10  and  C_12
REMARK    7  A    between atoms: C_12  and  C_13
REMARK    8  A    between atoms: C_13  and  N_14
REMARK                            x       y       z     vdW  Elec       q    Type
REMARK                         _______ _______ _______ _____ _____    ______ ____
ROOT
ATOM      1  C   UNL     1       4.629   6.152  17.813  0.00  0.00    +0.000 C 
ATOM      2  O   UNL     1       5.233   7.013  17.161  0.00  0.00    +0.000 OA
ATOM      3  N   UNL     1       5.317   5.164  18.521  0.00  0.00    +0.000 N 
ATOM      4  C   UNL     1       6.775   5.246  18.537  0.00  0.00    +0.000 C 
ENDROOT
BRANCH   1   5
ATOM      5  C   UNL     1       3.106   6.185  17.814  0.00  0.00    +0.000 C 
BRANCH   5   9
ATOM      6  C   UNL     1       1.053   9.431  19.801  0.00  0.00    +0.000 A 
ATOM      7  C   UNL     1       1.355   9.531  18.444  0.00  0.00    +0.000 A 
ATOM      8  C   UNL     1       2.025   8.497  17.788  0.00  0.00    +0.000 A 
ATOM      9  C   UNL     1       2.443   7.360  18.490  0.00  0.00    +0.000 A 
ATOM     10  C   UNL     1       2.156   7.280  19.861  0.00  0.00    +0.000 A 
ATOM     11  C   UNL     1       1.467   8.308  20.511  0.00  0.00    +0.000 A 
BRANCH   6  13
ATOM     12  C   UNL     1      -0.808  10.874  19.648  0.00  0.00    +0.000 C 
ATOM     13  O   UNL     1       0.380  10.499  20.332  0.00  0.00    +0.000 OA
ENDBRANCH   6  13
ENDBRANCH   5   9
ENDBRANCH   1   5
BRANCH   3  14
ATOM     14  C   UNL     1       4.715   4.226  19.479  0.00  0.00    +0.000 C 
BRANCH  14  15
ATOM     15  C   UNL     1       3.986   3.029  18.841  0.00  0.00    +0.000 C 
BRANCH  15  16
ATOM     16  N   UNL     1       3.048   2.361  19.764  0.00  0.00    +0.000 NA
ATOM     17  C   UNL     1       1.827   1.887  19.094  0.00  0.00    +0.000 C 
ATOM     18  C   UNL     1       0.959   3.125  18.985  0.00  0.00    +0.000 C 
ATOM     19  C   UNL     1       1.218   3.841  20.298  0.00  0.00    +0.000 C 
ATOM     20  C   UNL     1       2.562   3.309  20.786  0.00  0.00    +0.000 C 
ENDBRANCH  15  16
ENDBRANCH  14  15
ENDBRANCH   3  14
TORSDOF 6
ENDMDL
MODEL 2
REMARK VINA RESULT:      -6.4      0.914      1.427
REMARK  Name = 
REMARK  8 active torsions:
REMARK  status: ('A' for Active; 'I' for Inactive)
REMARK    1  A    between atoms: C_1  and  O_2
REMARK    2  A    between atoms: O_2  and  C_3
REMARK    3  A    between atoms: C_6  and  C_7
REMARK    4  A    between atoms: C_7  and  C_8
REMARK    5  A    between atoms: N_10  and  C_11
REMARK    6  A    between atoms: N_10  and  C_12
REMARK    7  A    between atoms: C_12  and  C_13
REMARK    8  A    between atoms: C_13  and  N_14
REMARK                            x       y       z     vdW  Elec       q    Type
REMARK                         _______ _______ _______ _____ _____    ______ ____
ROOT
ATOM      1  C   UNL     1       4.909   6.140  17.527  0.00  0.00    +0.000 C 
ATOM      2  O   UNL     1       5.658   7.123  17.468  0.00  0.00    +0.000 OA
ATOM      3  N   UNL     1       5.405   4.869  17.829  0.00  0.00    +0.000 N 
ATOM      4  C   UNL     1       6.821   4.768  18.165  0.00  0.00    +0.000 C 
ENDROOT
BRANCH   1   5
ATOM      5  C   UNL     1       3.426   6.344  17.244  0.00  0.00    +0.000 C 
BRANCH   5   9
ATOM      6  C   UNL     1       1.320   8.862  20.059  0.00  0.00    +0.000 A 
ATOM      7  C   UNL     1       1.804   7.621  20.469  0.00  0.00    +0.000 A 
ATOM      8  C   UNL     1       2.479   6.791  19.572  0.00  0.00    +0.000 A 
ATOM      9  C   UNL     1       2.644   7.171  18.235  0.00  0.00    +0.000 A 
ATOM     10  C   UNL     1       2.132   8.412  17.826  0.00  0.00    +0.000 A 
ATOM     11  C   UNL     1       1.475   9.250  18.732  0.00  0.00    +0.000 A 
BRANCH   6  13
ATOM     12  C   UNL     1      -0.285   8.895  21.788  0.00  0.00    +0.000 C 
ATOM     13  O   UNL     1       0.691   9.595  21.030  0.00  0.00    +0.000 OA
ENDBRANCH   6  13
ENDBRANCH   5   9
ENDBRANCH   1   5
BRANCH   3  14
ATOM     14  C   UNL     1       4.587   3.683  18.120  0.00  0.00    +0.000 C 
BRANCH  14  15
ATOM     15  C   UNL     1       4.198   3.513  19.601  0.00  0.00    +0.000 C 
BRANCH  15  16
ATOM     16  N   UNL     1       3.216   2.436  19.824  0.00  0.00    +0.000 NA
ATOM     17  C   UNL     1       2.247   2.308  18.725  0.00  0.00    +0.000 C 
ATOM     18  C   UNL     1       1.229   3.398  18.999  0.00  0.00    +0.000 C 
ATOM     19  C   UNL     1       1.100   3.374  20.511  0.00  0.00    +0.000 C 
ATOM     20  C   UNL     1       2.388   2.726  21.011  0.00  0.00    +0.000 C 
ENDBRANCH  15  16
ENDBRANCH  14  15
ENDBRANCH   3  14
TORSDOF 6
ENDMDL
MODEL 3
REMARK VINA RESULT:      -6.3      1.846      3.737
REMARK  Name = 
REMARK  8 active torsions:
REMARK  status: ('A' for Active; 'I' for Inactive)
REMARK    1  A    between atoms: C_1  and  O_2
REMARK    2  A    between atoms: O_2  and  C_3
REMARK    3  A    between atoms: C_6  and  C_7
REMARK    4  A    between atoms: C_7  and  C_8
REMARK    5  A    between atoms: N_10  and  C_11
REMARK    6  A    between atoms: N_10  and  C_12
REMARK    7  A    between atoms: C_12  and  C_13
REMARK    8  A    between atoms: C_13  and  N_14
REMARK                            x       y       z     vdW  Elec       q    Type
REMARK                         _______ _______ _______ _____ _____    ______ ____
ROOT
ATOM      1  C   UNL     1       1.958   4.784  19.684  0.00  0.00    +0.000 C 
ATOM      2  O   UNL     1       1.079   4.596  20.534  0.00  0.00    +0.000 OA
ATOM      3  N   UNL     1       2.139   3.898  18.619  0.00  0.00    +0.000 N 
ATOM      4  C   UNL     1       1.188   2.797  18.498  0.00  0.00    +0.000 C 
ENDROOT
BRANCH   1   5
ATOM      5  C   UNL     1       2.857   6.005  19.835  0.00  0.00    +0.000 C 
BRANCH   5   9
ATOM      6  C   UNL     1       0.955   9.780  18.926  0.00  0.00    +0.000 A 
ATOM      7  C   UNL     1       1.651   9.099  17.929  0.00  0.00    +0.000 A 
ATOM      8  C   UNL     1       2.279   7.883  18.206  0.00  0.00    +0.000 A 
ATOM      9  C   UNL     1       2.256   7.348  19.499  0.00  0.00    +0.000 A 
ATOM     10  C   UNL     1       1.574   8.054  20.502  0.00  0.00    +0.000 A 
ATOM     11  C   UNL     1       0.929   9.261  20.217  0.00  0.00    +0.000 A 
BRANCH   6  13
ATOM     12  C   UNL     1      -1.029  11.049  18.776  0.00  0.00    +0.000 C 
ATOM     13  O   UNL     1       0.367  10.953  18.533  0.00  0.00    +0.000 OA
ENDBRANCH   6  13
ENDBRANCH   5   9
ENDBRANCH   1   5
BRANCH   3  14
ATOM     14  C   UNL     1       3.008   4.129  17.456  0.00  0.00    +0.000 C 
BRANCH  14  15
ATOM     15  C   UNL     1       4.470   3.683  17.644  0.00  0.00    +0.000 C 
BRANCH  15  16
ATOM     16  N   UNL     1       5.404   4.346  16.714  0.00  0.00    +0.000 NA
ATOM     17  C   UNL     1       6.737   4.557  17.297  0.00  0.00    +0.000 C 
ATOM     18  C   UNL     1       6.579   5.801  18.148  0.00  0.00    +0.000 C 
ATOM     19  C   UNL     1       5.656   6.671  17.314  0.00  0.00    +0.000 C 
ATOM     20  C   UNL     1       4.929   5.705  16.384  0.00  0.00    +0.000 C 
ENDBRANCH  15  16
ENDBRANCH  14  15
ENDBRANCH   3  14
TORSDOF 6
ENDMDL
MODEL 4
REMARK VINA RESULT:      -6.3      2.042      3.912
REMARK  Name = 
REMARK  8 active torsions:
REMARK  status: ('A' for Active; 'I' for Inactive)
REMARK    1  A    between atoms: C_1  and  O_2
REMARK    2  A    between atoms: O_2  and  C_3
REMARK    3  A    between atoms: C_6  and  C_7
REMARK    4  A    between atoms: C_7  and  C_8
REMARK    5  A    between atoms: N_10  and  C_11
REMARK    6  A    between atoms: N_10  and  C_12
REMARK    7  A    between atoms: C_12  and  C_13
REMARK    8  A    between atoms: C_13  and  N_14
REMARK                            x       y       z     vdW  Elec       q    Type
REMARK                         _______ _______ _______ _____ _____    ______ ____
ROOT
ATOM      1  C   UNL     1       1.989   4.239  19.741  0.00  0.00    +0.000 C 
ATOM      2  O   UNL     1       0.789   4.086  20.002  0.00  0.00    +0.000 OA
ATOM      3  N   UNL     1       2.680   3.322  18.946  0.00  0.00    +0.000 N 
ATOM      4  C   UNL     1       1.907   2.232  18.359  0.00  0.00    +0.000 C 
ENDROOT
BRANCH   1   5
ATOM      5  C   UNL     1       2.706   5.450  20.325  0.00  0.00    +0.000 C 
BRANCH   5   9
ATOM      6  C   UNL     1       1.367   9.290  18.855  0.00  0.00    +0.000 A 
ATOM      7  C   UNL     1       2.072   8.433  18.011  0.00  0.00    +0.000 A 
ATOM      8  C   UNL     1       2.519   7.194  18.470  0.00  0.00    +0.000 A 
ATOM      9  C   UNL     1       2.305   6.807  19.799  0.00  0.00    +0.000 A 
ATOM     10  C   UNL     1       1.616   7.686  20.647  0.00  0.00    +0.000 A 
ATOM     11  C   UNL     1       1.151   8.919  20.179  0.00  0.00    +0.000 A 
BRANCH   6  13
ATOM     12  C   UNL     1       1.083  11.618  19.117  0.00  0.00    +0.000 C 
ATOM     13  O   UNL     1       0.965  10.471  18.288  0.00  0.00    +0.000 OA
ENDBRANCH   6  13
ENDBRANCH   5   9
ENDBRANCH   1   5
BRANCH   3  14
ATOM     14  C   UNL     1       4.037   3.508  18.414  0.00  0.00    +0.000 C 
BRANCH  14  15
ATOM     15  C   UNL     1       4.097   4.020  16.962  0.00  0.00    +0.000 C 
BRANCH  15  16
ATOM     16  N   UNL     1       4.941   5.220  16.803  0.00  0.00    +0.000 NA
ATOM     17  C   UNL     1       5.537   5.326  15.463  0.00  0.00    +0.000 C 
ATOM     18  C   UNL     1       6.733   4.397  15.512  0.00  0.00    +0.000 C 
ATOM     19  C   UNL     1       7.274   4.610  16.914  0.00  0.00    +0.000 C 
ATOM     20  C   UNL     1       6.100   5.163  17.716  0.00  0.00    +0.000 C 
ENDBRANCH  15  16
ENDBRANCH  14  15
ENDBRANCH   3  14
TORSDOF 6
ENDMDL
MODEL 5
REMARK VINA RESULT:      -6.3      1.987      3.910
REMARK  Name = 
REMARK  8 active torsions:
REMARK  status: ('A' for Active; 'I' for Inactive)
REMARK    1  A    between atoms: C_1  and  O_2
REMARK    2  A    between atoms: O_2  and  C_3
REMARK    3  A    between atoms: C_6  and  C_7
REMARK    4  A    between atoms: C_7  and  C_8
REMARK    5  A    between atoms: N_10  and  C_11
REMARK    6  A    between atoms: N_10  and  C_12
REMARK    7  A    between atoms: C_12  and  C_13
REMARK    8  A    between atoms: C_13  and  N_14
REMARK                            x       y       z     vdW  Elec       q    Type
REMARK                         _______ _______ _______ _____ _____    ______ ____
ROOT
ATOM      1  C   UNL     1       2.218   4.379  19.809  0.00  0.00    +0.000 C 
ATOM      2  O   UNL     1       1.002   4.367  20.033  0.00  0.00    +0.000 OA
ATOM      3  N   UNL     1       2.881   3.240  19.346  0.00  0.00    +0.000 N 
ATOM      4  C   UNL     1       2.065   2.068  19.046  0.00  0.00    +0.000 C 
ENDROOT
BRANCH   1   5
ATOM      5  C   UNL     1       2.987   5.669  20.068  0.00  0.00    +0.000 C 
BRANCH   5   9
ATOM      6  C   UNL     1       1.299   9.432  18.765  0.00  0.00    +0.000 A 
ATOM      7  C   UNL     1       1.131   9.018  20.086  0.00  0.00    +0.000 A 
ATOM      8  C   UNL     1       1.661   7.803  20.522  0.00  0.00    +0.000 A 
ATOM      9  C   UNL     1       2.334   6.959  19.631  0.00  0.00    +0.000 A 
ATOM     10  C   UNL     1       2.478   7.373  18.298  0.00  0.00    +0.000 A 
ATOM     11  C   UNL     1       1.963   8.600  17.869  0.00  0.00    +0.000 A 
BRANCH   6  13
ATOM     12  C   UNL     1       1.047  11.700  19.366  0.00  0.00    +0.000 C 
ATOM     13  O   UNL     1       0.750  10.649  18.458  0.00  0.00    +0.000 OA
ENDBRANCH   6  13
ENDBRANCH   5   9
ENDBRANCH   1   5
BRANCH   3  14
ATOM     14  C   UNL     1       4.268   3.200  18.861  0.00  0.00    +0.000 C 
BRANCH  14  15
ATOM     15  C   UNL     1       4.445   3.572  17.377  0.00  0.00    +0.000 C 
BRANCH  15  16
ATOM     16  N   UNL     1       5.752   4.191  17.085  0.00  0.00    +0.000 NA
ATOM     17  C   UNL     1       5.762   5.643  17.317  0.00  0.00    +0.000 C 
ATOM     18  C   UNL     1       5.122   6.224  16.072  0.00  0.00    +0.000 C 
ATOM     19  C   UNL     1       5.667   5.341  14.964  0.00  0.00    +0.000 C 
ATOM     20  C   UNL     1       6.087   4.047  15.654  0.00  0.00    +0.000 C 
ENDBRANCH  15  16
ENDBRANCH  14  15
ENDBRANCH   3  14
TORSDOF 6
ENDMDL
MODEL 6
REMARK VINA RESULT:      -6.2      1.852      3.798
REMARK  Name = 
REMARK  8 active torsions:
REMARK  status: ('A' for Active; 'I' for Inactive)
REMARK    1  A    between atoms: C_1  and  O_2
REMARK    2  A    between atoms: O_2  and  C_3
REMARK    3  A    between atoms: C_6  and  C_7
REMARK    4  A    between atoms: C_7  and  C_8
REMARK    5  A    between atoms: N_10  and  C_11
REMARK    6  A    between atoms: N_10  and  C_12
REMARK    7  A    between atoms: C_12  and  C_13
REMARK    8  A    between atoms: C_13  and  N_14
REMARK                            x       y       z     vdW  Elec       q    Type
REMARK                         _______ _______ _______ _____ _____    ______ ____
ROOT
ATOM      1  C   UNL     1       2.179   3.864  19.365  0.00  0.00    +0.000 C 
ATOM      2  O   UNL     1       1.077   3.696  18.829  0.00  0.00    +0.000 OA
ATOM      3  N   UNL     1       3.255   3.017  19.091  0.00  0.00    +0.000 N 
ATOM      4  C   UNL     1       3.053   1.988  18.076  0.00  0.00    +0.000 C 
ENDROOT
BRANCH   1   5
ATOM      5  C   UNL     1       2.333   5.015  20.352  0.00  0.00    +0.000 C 
BRANCH   5   9
ATOM      6  C   UNL     1       1.736   9.009  18.807  0.00  0.00    +0.000 A 
ATOM      7  C   UNL     1       2.359   8.047  18.014  0.00  0.00    +0.000 A 
ATOM      8  C   UNL     1       2.567   6.754  18.499  0.00  0.00    +0.000 A 
ATOM      9  C   UNL     1       2.194   6.415  19.805  0.00  0.00    +0.000 A 
ATOM     10  C   UNL     1       1.591   7.397  20.603  0.00  0.00    +0.000 A 
ATOM     11  C   UNL     1       1.364   8.685  20.108  0.00  0.00    +0.000 A 
BRANCH   6  13
ATOM     12  C   UNL     1       0.826  11.181  18.973  0.00  0.00    +0.000 C 
ATOM     13  O   UNL     1       1.571  10.235  18.218  0.00  0.00    +0.000 OA
ENDBRANCH   6  13
ENDBRANCH   5   9
ENDBRANCH   1   5
BRANCH   3  14
ATOM     14  C   UNL     1       4.645   3.242  19.512  0.00  0.00    +0.000 C 
BRANCH  14  15
ATOM     15  C   UNL     1       5.332   4.453  18.852  0.00  0.00    +0.000 C 
BRANCH  15  16
ATOM     16  N   UNL     1       5.840   4.167  17.497  0.00  0.00    +0.000 NA
ATOM     17  C   UNL     1       7.182   4.718  17.262  0.00  0.00    +0.000 C 
ATOM     18  C   UNL     1       6.934   6.179  16.943  0.00  0.00    +0.000 C 
ATOM     19  C   UNL     1       5.663   6.137  16.114  0.00  0.00    +0.000 C 
ATOM     20  C   UNL     1       4.992   4.816  16.478  0.00  0.00    +0.000 C 
ENDBRANCH  15  16
ENDBRANCH  14  15
ENDBRANCH   3  14
TORSDOF 6
ENDMDL
MODEL 7
REMARK VINA RESULT:      -6.2      2.050      4.008
REMARK  Name = 
REMARK  8 active torsions:
REMARK  status: ('A' for Active; 'I' for Inactive)
REMARK    1  A    between atoms: C_1  and  O_2
REMARK    2  A    between atoms: O_2  and  C_3
REMARK    3  A    between atoms: C_6  and  C_7
REMARK    4  A    between atoms: C_7  and  C_8
REMARK    5  A    between atoms: N_10  and  C_11
REMARK    6  A    between atoms: N_10  and  C_12
REMARK    7  A    between atoms: C_12  and  C_13
REMARK    8  A    between atoms: C_13  and  N_14
REMARK                            x       y       z     vdW  Elec       q    Type
REMARK                         _______ _______ _______ _____ _____    ______ ____
ROOT
ATOM      1  C   UNL     1       1.985   4.165  19.725  0.00  0.00    +0.000 C 
ATOM      2  O   UNL     1       0.800   3.943  20.003  0.00  0.00    +0.000 OA
ATOM      3  N   UNL     1       2.711   3.298  18.905  0.00  0.00    +0.000 N 
ATOM      4  C   UNL     1       1.989   2.176  18.314  0.00  0.00    +0.000 C 
ENDROOT
BRANCH   1   5
ATOM      5  C   UNL     1       2.644   5.405  20.315  0.00  0.00    +0.000 C 
BRANCH   5   9
ATOM      6  C   UNL     1       1.476   9.289  18.816  0.00  0.00    +0.000 A 
ATOM      7  C   UNL     1       1.184   8.940  20.134  0.00  0.00    +0.000 A 
ATOM      8  C   UNL     1       1.546   7.688  20.632  0.00  0.00    +0.000 A 
ATOM      9  C   UNL     1       2.170   6.745  19.806  0.00  0.00    +0.000 A 
ATOM     10  C   UNL     1       2.437   7.097  18.475  0.00  0.00    +0.000 A 
ATOM     11  C   UNL     1       2.092   8.360  17.983  0.00  0.00    +0.000 A 
BRANCH   6  13
ATOM     12  C   UNL     1      -0.295  10.835  18.601  0.00  0.00    +0.000 C 
ATOM     13  O   UNL     1       1.088  10.550  18.444  0.00  0.00    +0.000 OA
ENDBRANCH   6  13
ENDBRANCH   5   9
ENDBRANCH   1   5
BRANCH   3  14
ATOM     14  C   UNL     1       4.047   3.566  18.353  0.00  0.00    +0.000 C 
BRANCH  14  15
ATOM     15  C   UNL     1       4.056   4.046  16.889  0.00  0.00    +0.000 C 
BRANCH  15  16
ATOM     16  N   UNL     1       4.919   5.222  16.669  0.00  0.00    +0.000 NA
ATOM     17  C   UNL     1       5.504   5.258  15.320  0.00  0.00    +0.000 C 
ATOM     18  C   UNL     1       6.684   4.310  15.400  0.00  0.00    +0.000 C 
ATOM     19  C   UNL     1       7.242   4.577  16.786  0.00  0.00    +0.000 C 
ATOM     20  C   UNL     1       6.086   5.186  17.573  0.00  0.00    +0.000 C 
ENDBRANCH  15  16
ENDBRANCH  14  15
ENDBRANCH   3  14
TORSDOF 6
ENDMDL
MODEL 8
REMARK VINA RESULT:      -6.2      2.040      3.902
REMARK  Name = 
REMARK  8 active torsions:
REMARK  status: ('A' for Active; 'I' for Inactive)
REMARK    1  A    between atoms: C_1  and  O_2
REMARK    2  A    between atoms: O_2  and  C_3
REMARK    3  A    between atoms: C_6  and  C_7
REMARK    4  A    between atoms: C_7  and  C_8
REMARK    5  A    between atoms: N_10  and  C_11
REMARK    6  A    between atoms: N_10  and  C_12
REMARK    7  A    between atoms: C_12  and  C_13
REMARK    8  A    between atoms: C_13  and  N_14
REMARK                            x       y       z     vdW  Elec       q    Type
REMARK                         _______ _______ _______ _____ _____    ______ ____
ROOT
ATOM      1  C   UNL     1       2.108   4.770  19.599  0.00  0.00    +0.000 C 
ATOM      2  O   UNL     1       1.254   4.501  20.453  0.00  0.00    +0.000 OA
ATOM      3  N   UNL     1       2.309   3.945  18.490  0.00  0.00    +0.000 N 
ATOM      4  C   UNL     1       1.406   2.809  18.331  0.00  0.00    +0.000 C 
ENDROOT
BRANCH   1   5
ATOM      5  C   UNL     1       2.955   6.021  19.795  0.00  0.00    +0.000 C 
BRANCH   5   9
ATOM      6  C   UNL     1       0.936   9.737  18.893  0.00  0.00    +0.000 A 
ATOM      7  C   UNL     1       1.660   9.084  17.897  0.00  0.00    +0.000 A 
ATOM      8  C   UNL     1       2.326   7.888  18.172  0.00  0.00    +0.000 A 
ATOM      9  C   UNL     1       2.312   7.346  19.463  0.00  0.00    +0.000 A 
ATOM     10  C   UNL     1       1.600   8.024  20.464  0.00  0.00    +0.000 A 
ATOM     11  C   UNL     1       0.918   9.211  20.181  0.00  0.00    +0.000 A 
BRANCH   6  13
ATOM     12  C   UNL     1      -1.082  10.956  18.769  0.00  0.00    +0.000 C 
ATOM     13  O   UNL     1       0.312  10.893  18.501  0.00  0.00    +0.000 OA
ENDBRANCH   6  13
ENDBRANCH   5   9
ENDBRANCH   1   5
BRANCH   3  14
ATOM     14  C   UNL     1       3.145   4.271  17.326  0.00  0.00    +0.000 C 
BRANCH  14  15
ATOM     15  C   UNL     1       4.627   3.875  17.464  0.00  0.00    +0.000 C 
BRANCH  15  16
ATOM     16  N   UNL     1       5.549   5.018  17.321  0.00  0.00    +0.000 NA
ATOM     17  C   UNL     1       5.156   5.939  16.244  0.00  0.00    +0.000 C 
ATOM     18  C   UNL     1       5.664   5.273  14.981  0.00  0.00    +0.000 C 
ATOM     19  C   UNL     1       6.993   4.683  15.416  0.00  0.00    +0.000 C 
ATOM     20  C   UNL     1       6.896   4.553  16.933  0.00  0.00    +0.000 C 
ENDBRANCH  15  16
ENDBRANCH  14  15
ENDBRANCH   3  14
TORSDOF 6
ENDMDL
MODEL 9
REMARK VINA RESULT:      -6.2      1.872      3.932
REMARK  Name = 
REMARK  8 active torsions:
REMARK  status: ('A' for Active; 'I' for Inactive)
REMARK    1  A    between atoms: C_1  and  O_2
REMARK    2  A    between atoms: O_2  and  C_3
REMARK    3  A    between atoms: C_6  and  C_7
REMARK    4  A    between atoms: C_7  and  C_8
REMARK    5  A    between atoms: N_10  and  C_11
REMARK    6  A    between atoms: N_10  and  C_12
REMARK    7  A    between atoms: C_12  and  C_13
REMARK    8  A    between atoms: C_13  and  N_14
REMARK                            x       y       z     vdW  Elec       q    Type
REMARK                         _______ _______ _______ _____ _____    ______ ____
ROOT
ATOM      1  C   UNL     1       2.296   4.665  19.471  0.00  0.00    +0.000 C 
ATOM      2  O   UNL     1       1.462   4.386  20.341  0.00  0.00    +0.000 OA
ATOM      3  N   UNL     1       2.548   3.800  18.403  0.00  0.00    +0.000 N 
ATOM      4  C   UNL     1       1.719   2.603  18.305  0.00  0.00    +0.000 C 
ENDROOT
BRANCH   1   5
ATOM      5  C   UNL     1       3.062   5.976  19.601  0.00  0.00    +0.000 C 
BRANCH   5   9
ATOM      6  C   UNL     1       0.974   9.725  19.065  0.00  0.00    +0.000 A 
ATOM      7  C   UNL     1       0.986   9.112  20.318  0.00  0.00    +0.000 A 
ATOM      8  C   UNL     1       1.647   7.898  20.507  0.00  0.00    +0.000 A 
ATOM      9  C   UNL     1       2.274   7.253  19.434  0.00  0.00    +0.000 A 
ATOM     10  C   UNL     1       2.236   7.865  18.173  0.00  0.00    +0.000 A 
ATOM     11  C   UNL     1       1.590   9.092  17.990  0.00  0.00    +0.000 A 
BRANCH   6  13
ATOM     12  C   UNL     1      -0.907  10.907  18.269  0.00  0.00    +0.000 C 
ATOM     13  O   UNL     1       0.308  10.921  19.005  0.00  0.00    +0.000 OA
ENDBRANCH   6  13
ENDBRANCH   5   9
ENDBRANCH   1   5
BRANCH   3  14
ATOM     14  C   UNL     1       3.361   4.120  17.221  0.00  0.00    +0.000 C 
BRANCH  14  15
ATOM     15  C   UNL     1       4.858   3.785  17.356  0.00  0.00    +0.000 C 
BRANCH  15  16
ATOM     16  N   UNL     1       5.710   4.541  16.419  0.00  0.00    +0.000 NA
ATOM     17  C   UNL     1       7.093   4.687  16.895  0.00  0.00    +0.000 C 
ATOM     18  C   UNL     1       7.028   5.835  17.883  0.00  0.00    +0.000 C 
ATOM     19  C   UNL     1       6.042   6.789  17.235  0.00  0.00    +0.000 C 
ATOM     20  C   UNL     1       5.222   5.928  16.279  0.00  0.00    +0.000 C 
ENDBRANCH  15  16
ENDBRANCH  14  15
ENDBRANCH   3  14
TORSDOF 6
ENDMDL
