MODEL 1
REMARK VINA RESULT:      -8.6      0.000      0.000
REMARK  Name = 
REMARK  6 active torsions:
REMARK  status: ('A' for Active; 'I' for Inactive)
REMARK    1  A    between atoms: C_1  and  O_2
REMARK    2  A    between atoms: O_2  and  C_3
REMARK    3  A    between atoms: C_6  and  C_7
REMARK    4  A    between atoms: C_15  and  C_16
REMARK    5  A    between atoms: C_16  and  C_18
REMARK    6  A    between atoms: C_24  and  C_26
REMARK                            x       y       z     vdW  Elec       q    Type
REMARK                         _______ _______ _______ _____ _____    ______ ____
ROOT
ATOM      1  C   UNL     1      -1.689  11.619  22.873  0.00  0.00    +0.000 A 
ATOM      2  C   UNL     1      -2.828  11.930  23.625  0.00  0.00    +0.000 A 
ATOM      3  N   UNL     1      -3.966  12.477  23.154  0.00  0.00    +0.000 NA
ATOM      4  C   UNL     1      -4.045  12.760  21.835  0.00  0.00    +0.000 A 
ATOM      5  C   UNL     1      -2.945  12.495  21.019  0.00  0.00    +0.000 A 
ATOM      6  N   UNL     1      -2.812  12.695  19.666  0.00  0.00    +0.000 N 
ATOM      7  C   UNL     1      -1.563  12.348  19.262  0.00  0.00    +0.000 A 
ATOM      8  C   UNL     1      -0.832  11.916  20.361  0.00  0.00    +0.000 A 
ATOM      9  C   UNL     1      -1.737  11.956  21.495  0.00  0.00    +0.000 A 
ATOM     10  H   UNL     1      -3.561  13.064  19.089  0.00  0.00    +0.000 HD
ENDROOT
BRANCH   4  11
ATOM     11  C   UNL     1      -5.276  13.371  21.337  0.00  0.00    +0.000 A 
ATOM     12  C   UNL     1      -5.480  14.762  21.106  0.00  0.00    +0.000 A 
ATOM     13  C   UNL     1      -6.759  14.873  20.626  0.00  0.00    +0.000 A 
ATOM     14  N   UNL     1      -7.260  13.606  20.599  0.00  0.00    +0.000 N 
ATOM     15  N   UNL     1      -6.388  12.670  21.023  0.00  0.00    +0.000 NA
ATOM     16  H   UNL     1      -8.180  13.301  20.301  0.00  0.00    +0.000 HD
ENDBRANCH   4  11
BRANCH   1  18
ATOM     17  C   UNL     1      -0.492   9.602  23.231  0.00  0.00    +0.000 C 
ATOM     18  O   UNL     1      -0.576  11.017  23.394  0.00  0.00    +0.000 OA
ENDBRANCH   1  18
BRANCH   8  19
ATOM     19  C   UNL     1       0.579  11.538  20.210  0.00  0.00    +0.000 C 
ATOM     20  O   UNL     1       1.373  11.625  21.152  0.00  0.00    +0.000 OA
BRANCH  19  21
ATOM     21  C   UNL     1       1.189  11.095  18.890  0.00  0.00    +0.000 C 
ATOM     22  O   UNL     1       1.294  11.912  17.985  0.00  0.00    +0.000 OA
ATOM     23  N   UNL     1       1.557   9.751  18.798  0.00  0.00    +0.000 N 
ATOM     24  C   UNL     1       2.141   9.251  17.549  0.00  0.00    +0.000 C 
ATOM     25  C   UNL     1       3.203   8.162  17.806  0.00  0.00    +0.000 C 
ATOM     26  N   UNL     1       2.718   7.155  18.761  0.00  0.00    +0.000 N 
ATOM     27  C   UNL     1       2.786   5.805  18.424  0.00  0.00    +0.000 C 
ATOM     28  O   UNL     1       3.342   5.414  17.397  0.00  0.00    +0.000 OA
ATOM     29  C   UNL     1       2.255   7.738  20.027  0.00  0.00    +0.000 C 
ATOM     30  C   UNL     1       1.112   8.719  19.744  0.00  0.00    +0.000 C 
BRANCH  27  31
ATOM     31  C   UNL     1       2.193   4.766  19.315  0.00  0.00    +0.000 A 
ATOM     32  C   UNL     1       1.249   3.838  18.861  0.00  0.00    +0.000 A 
ATOM     33  C   UNL     1       0.651   2.946  19.754  0.00  0.00    +0.000 A 
ATOM     34  C   UNL     1       1.063   2.913  21.084  0.00  0.00    +0.000 A 
ATOM     35  C   UNL     1       2.079   3.761  21.521  0.00  0.00    +0.000 A 
ATOM     36  C   UNL     1       2.640   4.691  20.641  0.00  0.00    +0.000 A 
ENDBRANCH  27  31
ENDBRANCH  19  21
ENDBRANCH   8  19
TORSDOF 5
ENDMDL
MODEL 2
REMARK VINA RESULT:      -8.5      0.580      1.056
REMARK  Name = 
REMARK  6 active torsions:
REMARK  status: ('A' for Active; 'I' for Inactive)
REMARK    1  A    between atoms: C_1  and  O_2
REMARK    2  A    between atoms: O_2  and  C_3
REMARK    3  A    between atoms: C_6  and  C_7
REMARK    4  A    between atoms: C_15  and  C_16
REMARK    5  A    between atoms: C_16  and  C_18
REMARK    6  A    between atoms: C_24  and  C_26
REMARK                            x       y       z     vdW  Elec       q    Type
REMARK                         _______ _______ _______ _____ _____    ______ ____
ROOT
ATOM      1  C   UNL     1      -1.665  11.687  22.756  0.00  0.00    +0.000 A 
ATOM      2  C   UNL     1      -2.811  12.001  23.496  0.00  0.00    +0.000 A 
ATOM      3  N   UNL     1      -3.950  12.531  23.009  0.00  0.00    +0.000 NA
ATOM      4  C   UNL     1      -4.023  12.790  21.684  0.00  0.00    +0.000 A 
ATOM      5  C   UNL     1      -2.916  12.520  20.880  0.00  0.00    +0.000 A 
ATOM      6  N   UNL     1      -2.776  12.697  19.525  0.00  0.00    +0.000 N 
ATOM      7  C   UNL     1      -1.522  12.353  19.134  0.00  0.00    +0.000 A 
ATOM      8  C   UNL     1      -0.794  11.946  20.245  0.00  0.00    +0.000 A 
ATOM      9  C   UNL     1      -1.707  11.998  21.373  0.00  0.00    +0.000 A 
ATOM     10  H   UNL     1      -3.524  13.049  18.936  0.00  0.00    +0.000 HD
ENDROOT
BRANCH   4  11
ATOM     11  C   UNL     1      -5.255  13.382  21.168  0.00  0.00    +0.000 A 
ATOM     12  C   UNL     1      -6.400  12.662  20.720  0.00  0.00    +0.000 A 
ATOM     13  C   UNL     1      -7.313  13.615  20.349  0.00  0.00    +0.000 A 
ATOM     14  N   UNL     1      -6.708  14.817  20.565  0.00  0.00    +0.000 N 
ATOM     15  N   UNL     1      -5.460  14.714  21.061  0.00  0.00    +0.000 NA
ATOM     16  H   UNL     1      -7.083  15.746  20.403  0.00  0.00    +0.000 HD
ENDBRANCH   4  11
BRANCH   1  18
ATOM     17  C   UNL     1      -0.478   9.680  23.202  0.00  0.00    +0.000 C 
ATOM     18  O   UNL     1      -0.550  11.103  23.295  0.00  0.00    +0.000 OA
ENDBRANCH   1  18
BRANCH   8  19
ATOM     19  C   UNL     1       0.621  11.576  20.109  0.00  0.00    +0.000 C 
ATOM     20  O   UNL     1       1.416  11.720  21.043  0.00  0.00    +0.000 OA
BRANCH  19  21
ATOM     21  C   UNL     1       1.232  11.073  18.811  0.00  0.00    +0.000 C 
ATOM     22  O   UNL     1       1.341  11.849  17.872  0.00  0.00    +0.000 OA
ATOM     23  N   UNL     1       1.597   9.726  18.781  0.00  0.00    +0.000 N 
ATOM     24  C   UNL     1       2.182   9.168  17.556  0.00  0.00    +0.000 C 
ATOM     25  C   UNL     1       3.240   8.090  17.865  0.00  0.00    +0.000 C 
ATOM     26  N   UNL     1       2.751   7.127  18.863  0.00  0.00    +0.000 N 
ATOM     27  C   UNL     1       2.816   5.763  18.587  0.00  0.00    +0.000 C 
ATOM     28  O   UNL     1       3.373   5.326  17.580  0.00  0.00    +0.000 OA
ATOM     29  C   UNL     1       2.287   7.768  20.100  0.00  0.00    +0.000 C 
ATOM     30  C   UNL     1       1.147   8.738  19.771  0.00  0.00    +0.000 C 
BRANCH  27  31
ATOM     31  C   UNL     1       2.219   4.767  19.522  0.00  0.00    +0.000 A 
ATOM     32  C   UNL     1       2.723   4.550  20.809  0.00  0.00    +0.000 A 
ATOM     33  C   UNL     1       2.192   3.540  21.614  0.00  0.00    +0.000 A 
ATOM     34  C   UNL     1       1.093   2.807  21.175  0.00  0.00    +0.000 A 
ATOM     35  C   UNL     1       0.516   3.089  19.938  0.00  0.00    +0.000 A 
ATOM     36  C   UNL     1       1.080   4.063  19.109  0.00  0.00    +0.000 A 
ENDBRANCH  27  31
ENDBRANCH  19  21
ENDBRANCH   8  19
TORSDOF 5
ENDMDL
MODEL 3
REMARK VINA RESULT:      -8.2      1.401      2.472
REMARK  Name = 
REMARK  6 active torsions:
REMARK  status: ('A' for Active; 'I' for Inactive)
REMARK    1  A    between atoms: C_1  and  O_2
REMARK    2  A    between atoms: O_2  and  C_3
REMARK    3  A    between atoms: C_6  and  C_7
REMARK    4  A    between atoms: C_15  and  C_16
REMARK    5  A    between atoms: C_16  and  C_18
REMARK    6  A    between atoms: C_24  and  C_26
REMARK                            x       y       z     vdW  Elec       q    Type
REMARK                         _______ _______ _______ _____ _____    ______ ____
ROOT
ATOM      1  C   UNL     1      -2.785  11.302  18.595  0.00  0.00    +0.000 A 
ATOM      2  C   UNL     1      -4.138  11.391  18.245  0.00  0.00    +0.000 A 
ATOM      3  N   UNL     1      -5.087  12.074  18.915  0.00  0.00    +0.000 NA
ATOM      4  C   UNL     1      -4.729  12.747  20.031  0.00  0.00    +0.000 A 
ATOM      5  C   UNL     1      -3.401  12.694  20.455  0.00  0.00    +0.000 A 
ATOM      6  N   UNL     1      -2.823  13.301  21.544  0.00  0.00    +0.000 N 
ATOM      7  C   UNL     1      -1.512  12.959  21.631  0.00  0.00    +0.000 A 
ATOM      8  C   UNL     1      -1.197  12.096  20.589  0.00  0.00    +0.000 A 
ATOM      9  C   UNL     1      -2.402  11.962  19.791  0.00  0.00    +0.000 A 
ATOM     10  H   UNL     1      -3.342  13.903  22.177  0.00  0.00    +0.000 HD
ENDROOT
BRANCH   4  11
ATOM     11  C   UNL     1      -5.769  13.468  20.761  0.00  0.00    +0.000 A 
ATOM     12  C   UNL     1      -7.166  13.425  20.479  0.00  0.00    +0.000 A 
ATOM     13  C   UNL     1      -7.757  14.228  21.420  0.00  0.00    +0.000 A 
ATOM     14  N   UNL     1      -6.742  14.713  22.189  0.00  0.00    +0.000 N 
ATOM     15  N   UNL     1      -5.523  14.273  21.818  0.00  0.00    +0.000 NA
ATOM     16  H   UNL     1      -6.802  15.341  22.983  0.00  0.00    +0.000 HD
ENDBRANCH   4  11
BRANCH   1  18
ATOM     17  C   UNL     1      -2.335   9.973  16.681  0.00  0.00    +0.000 C 
ATOM     18  O   UNL     1      -1.851  10.634  17.850  0.00  0.00    +0.000 OA
ENDBRANCH   1  18
BRANCH   8  19
ATOM     19  C   UNL     1       0.151  11.522  20.485  0.00  0.00    +0.000 C 
ATOM     20  O   UNL     1       0.858  11.356  21.484  0.00  0.00    +0.000 OA
BRANCH  19  21
ATOM     21  C   UNL     1       0.808  11.168  19.161  0.00  0.00    +0.000 C 
ATOM     22  O   UNL     1       0.885  12.027  18.293  0.00  0.00    +0.000 OA
ATOM     23  N   UNL     1       1.250   9.851  19.022  0.00  0.00    +0.000 N 
ATOM     24  C   UNL     1       1.883   9.435  17.766  0.00  0.00    +0.000 C 
ATOM     25  C   UNL     1       2.997   8.395  18.001  0.00  0.00    +0.000 C 
ATOM     26  N   UNL     1       2.550   7.324  18.903  0.00  0.00    +0.000 N 
ATOM     27  C   UNL     1       2.697   5.995  18.513  0.00  0.00    +0.000 C 
ATOM     28  O   UNL     1       3.292   5.677  17.483  0.00  0.00    +0.000 OA
ATOM     29  C   UNL     1       2.033   7.828  20.182  0.00  0.00    +0.000 C 
ATOM     30  C   UNL     1       0.844   8.758  19.916  0.00  0.00    +0.000 C 
BRANCH  27  31
ATOM     31  C   UNL     1       2.145   4.890  19.349  0.00  0.00    +0.000 A 
ATOM     32  C   UNL     1       2.397   4.790  20.722  0.00  0.00    +0.000 A 
ATOM     33  C   UNL     1       1.938   3.686  21.445  0.00  0.00    +0.000 A 
ATOM     34  C   UNL     1       1.147   2.726  20.820  0.00  0.00    +0.000 A 
ATOM     35  C   UNL     1       0.801   2.873  19.478  0.00  0.00    +0.000 A 
ATOM     36  C   UNL     1       1.304   3.949  18.740  0.00  0.00    +0.000 A 
ENDBRANCH  27  31
ENDBRANCH  19  21
ENDBRANCH   8  19
TORSDOF 5
ENDMDL
MODEL 4
REMARK VINA RESULT:      -8.2      2.594      3.703
REMARK  Name = 
REMARK  6 active torsions:
REMARK  status: ('A' for Active; 'I' for Inactive)
REMARK    1  A    between atoms: C_1  and  O_2
REMARK    2  A    between atoms: O_2  and  C_3
REMARK    3  A    between atoms: C_6  and  C_7
REMARK    4  A    between atoms: C_15  and  C_16
REMARK    5  A    between atoms: C_16  and  C_18
REMARK    6  A    between atoms: C_24  and  C_26
REMARK                            x       y       z     vdW  Elec       q    Type
REMARK                         _______ _______ _______ _____ _____    ______ ____
ROOT
ATOM      1  C   UNL     1      -1.593  12.179  20.771  0.00  0.00    +0.000 A 
ATOM      2  C   UNL     1      -2.691  13.011  21.023  0.00  0.00    +0.000 A 
ATOM      3  N   UNL     1      -3.824  13.073  20.297  0.00  0.00    +0.000 NA
ATOM      4  C   UNL     1      -3.942  12.266  19.219  0.00  0.00    +0.000 A 
ATOM      5  C   UNL     1      -2.884  11.418  18.891  0.00  0.00    +0.000 A 
ATOM      6  N   UNL     1      -2.794  10.520  17.855  0.00  0.00    +0.000 N 
ATOM      7  C   UNL     1      -1.576   9.921  17.857  0.00  0.00    +0.000 A 
ATOM      8  C   UNL     1      -0.821  10.430  18.907  0.00  0.00    +0.000 A 
ATOM      9  C   UNL     1      -1.680  11.361  19.615  0.00  0.00    +0.000 A 
ATOM     10  H   UNL     1      -3.551  10.364  17.195  0.00  0.00    +0.000 HD
ENDROOT
BRANCH   4  11
ATOM     11  C   UNL     1      -5.166  12.355  18.427  0.00  0.00    +0.000 A 
ATOM     12  C   UNL     1      -6.419  12.855  18.885  0.00  0.00    +0.000 A 
ATOM     13  C   UNL     1      -7.266  12.770  17.810  0.00  0.00    +0.000 A 
ATOM     14  N   UNL     1      -6.530  12.235  16.795  0.00  0.00    +0.000 N 
ATOM     15  N   UNL     1      -5.252  11.971  17.134  0.00  0.00    +0.000 NA
ATOM     16  H   UNL     1      -6.826  12.027  15.848  0.00  0.00    +0.000 HD
ENDBRANCH   4  11
BRANCH   1  18
ATOM     17  C   UNL     1       0.410  13.229  21.488  0.00  0.00    +0.000 C 
ATOM     18  O   UNL     1      -0.485  12.120  21.571  0.00  0.00    +0.000 OA
ENDBRANCH   1  18
BRANCH   8  19
ATOM     19  C   UNL     1       0.568   9.993  19.099  0.00  0.00    +0.000 C 
ATOM     20  O   UNL     1       1.471  10.368  18.345  0.00  0.00    +0.000 OA
BRANCH  19  21
ATOM     21  C   UNL     1       0.991   9.000  20.170  0.00  0.00    +0.000 C 
ATOM     22  O   UNL     1       0.627   9.186  21.324  0.00  0.00    +0.000 OA
ATOM     23  N   UNL     1       1.810   7.951  19.751  0.00  0.00    +0.000 N 
ATOM     24  C   UNL     1       2.267   6.961  20.733  0.00  0.00    +0.000 C 
ATOM     25  C   UNL     1       2.379   5.551  20.119  0.00  0.00    +0.000 C 
ATOM     26  N   UNL     1       3.087   5.581  18.830  0.00  0.00    +0.000 N 
ATOM     27  C   UNL     1       4.166   4.726  18.623  0.00  0.00    +0.000 C 
ATOM     28  O   UNL     1       4.483   3.861  19.441  0.00  0.00    +0.000 OA
ATOM     29  C   UNL     1       2.492   6.520  17.870  0.00  0.00    +0.000 C 
ATOM     30  C   UNL     1       2.516   7.933  18.463  0.00  0.00    +0.000 C 
BRANCH  27  31
ATOM     31  C   UNL     1       4.980   4.814  17.377  0.00  0.00    +0.000 A 
ATOM     32  C   UNL     1       4.688   4.061  16.234  0.00  0.00    +0.000 A 
ATOM     33  C   UNL     1       5.534   4.106  15.124  0.00  0.00    +0.000 A 
ATOM     34  C   UNL     1       6.623   4.974  15.114  0.00  0.00    +0.000 A 
ATOM     35  C   UNL     1       6.859   5.808  16.205  0.00  0.00    +0.000 A 
ATOM     36  C   UNL     1       6.045   5.725  17.338  0.00  0.00    +0.000 A 
ENDBRANCH  27  31
ENDBRANCH  19  21
ENDBRANCH   8  19
TORSDOF 5
ENDMDL
MODEL 5
REMARK VINA RESULT:      -8.1      3.618      5.948
REMARK  Name = 
REMARK  6 active torsions:
REMARK  status: ('A' for Active; 'I' for Inactive)
REMARK    1  A    between atoms: C_1  and  O_2
REMARK    2  A    between atoms: O_2  and  C_3
REMARK    3  A    between atoms: C_6  and  C_7
REMARK    4  A    between atoms: C_15  and  C_16
REMARK    5  A    between atoms: C_16  and  C_18
REMARK    6  A    between atoms: C_24  and  C_26
REMARK                            x       y       z     vdW  Elec       q    Type
REMARK                         _______ _______ _______ _____ _____    ______ ____
ROOT
ATOM      1  C   UNL     1       0.400  13.194  20.698  0.00  0.00    +0.000 A 
ATOM      2  C   UNL     1       0.694  14.444  21.255  0.00  0.00    +0.000 A 
ATOM      3  N   UNL     1       1.693  15.265  20.878  0.00  0.00    +0.000 NA
ATOM      4  C   UNL     1       2.501  14.874  19.868  0.00  0.00    +0.000 A 
ATOM      5  C   UNL     1       2.283  13.633  19.271  0.00  0.00    +0.000 A 
ATOM      6  N   UNL     1       2.971  13.046  18.235  0.00  0.00    +0.000 N 
ATOM      7  C   UNL     1       2.470  11.810  17.981  0.00  0.00    +0.000 A 
ATOM      8  C   UNL     1       1.432  11.548  18.866  0.00  0.00    +0.000 A 
ATOM      9  C   UNL     1       1.268  12.746  19.669  0.00  0.00    +0.000 A 
ATOM     10  H   UNL     1       3.746  13.502  17.762  0.00  0.00    +0.000 HD
ENDROOT
BRANCH   4  11
ATOM     11  C   UNL     1       3.593  15.763  19.480  0.00  0.00    +0.000 A 
ATOM     12  C   UNL     1       4.371  16.563  20.367  0.00  0.00    +0.000 A 
ATOM     13  C   UNL     1       5.284  17.211  19.576  0.00  0.00    +0.000 A 
ATOM     14  N   UNL     1       5.027  16.806  18.300  0.00  0.00    +0.000 N 
ATOM     15  N   UNL     1       4.009  15.929  18.204  0.00  0.00    +0.000 NA
ATOM     16  H   UNL     1       5.504  17.080  17.448  0.00  0.00    +0.000 HD
ENDBRANCH   4  11
BRANCH   1  18
ATOM     17  C   UNL     1      -1.951  13.016  20.968  0.00  0.00    +0.000 C 
ATOM     18  O   UNL     1      -0.660  12.419  21.087  0.00  0.00    +0.000 OA
ENDBRANCH   1  18
BRANCH   8  19
ATOM     19  C   UNL     1       0.754  10.246  18.847  0.00  0.00    +0.000 C 
ATOM     20  O   UNL     1      -0.051   9.953  17.957  0.00  0.00    +0.000 OA
BRANCH  19  21
ATOM     21  C   UNL     1       0.917   9.202  19.940  0.00  0.00    +0.000 C 
ATOM     22  O   UNL     1       0.388   9.397  21.026  0.00  0.00    +0.000 OA
ATOM     23  N   UNL     1       1.706   8.094  19.625  0.00  0.00    +0.000 N 
ATOM     24  C   UNL     1       1.918   7.052  20.636  0.00  0.00    +0.000 C 
ATOM     25  C   UNL     1       2.014   5.649  20.004  0.00  0.00    +0.000 C 
ATOM     26  N   UNL     1       2.920   5.643  18.846  0.00  0.00    +0.000 N 
ATOM     27  C   UNL     1       3.947   4.703  18.786  0.00  0.00    +0.000 C 
ATOM     28  O   UNL     1       4.057   3.801  19.617  0.00  0.00    +0.000 OA
ATOM     29  C   UNL     1       2.566   6.645  17.833  0.00  0.00    +0.000 C 
ATOM     30  C   UNL     1       2.607   8.040  18.465  0.00  0.00    +0.000 C 
BRANCH  27  31
ATOM     31  C   UNL     1       4.956   4.745  17.689  0.00  0.00    +0.000 A 
ATOM     32  C   UNL     1       4.817   4.000  16.513  0.00  0.00    +0.000 A 
ATOM     33  C   UNL     1       5.833   3.997  15.555  0.00  0.00    +0.000 A 
ATOM     34  C   UNL     1       6.950   4.812  15.724  0.00  0.00    +0.000 A 
ATOM     35  C   UNL     1       7.046   5.640  16.841  0.00  0.00    +0.000 A 
ATOM     36  C   UNL     1       6.055   5.603  17.826  0.00  0.00    +0.000 A 
ENDBRANCH  27  31
ENDBRANCH  19  21
ENDBRANCH   8  19
TORSDOF 5
ENDMDL
MODEL 6
REMARK VINA RESULT:      -8.0      2.419      3.573
REMARK  Name = 
REMARK  6 active torsions:
REMARK  status: ('A' for Active; 'I' for Inactive)
REMARK    1  A    between atoms: C_1  and  O_2
REMARK    2  A    between atoms: O_2  and  C_3
REMARK    3  A    between atoms: C_6  and  C_7
REMARK    4  A    between atoms: C_15  and  C_16
REMARK    5  A    between atoms: C_16  and  C_18
REMARK    6  A    between atoms: C_24  and  C_26
REMARK                            x       y       z     vdW  Elec       q    Type
REMARK                         _______ _______ _______ _____ _____    ______ ____
ROOT
ATOM      1  C   UNL     1      -1.958  12.537  20.937  0.00  0.00    +0.000 A 
ATOM      2  C   UNL     1      -3.078  13.352  21.144  0.00  0.00    +0.000 A 
ATOM      3  N   UNL     1      -4.194  13.373  20.390  0.00  0.00    +0.000 NA
ATOM      4  C   UNL     1      -4.270  12.538  19.329  0.00  0.00    +0.000 A 
ATOM      5  C   UNL     1      -3.188  11.706  19.046  0.00  0.00    +0.000 A 
ATOM      6  N   UNL     1      -3.055  10.785  18.034  0.00  0.00    +0.000 N 
ATOM      7  C   UNL     1      -1.825  10.212  18.080  0.00  0.00    +0.000 A 
ATOM      8  C   UNL     1      -1.106  10.761  19.134  0.00  0.00    +0.000 A 
ATOM      9  C   UNL     1      -2.001  11.690  19.799  0.00  0.00    +0.000 A 
ATOM     10  H   UNL     1      -3.792  10.598  17.361  0.00  0.00    +0.000 HD
ENDROOT
BRANCH   4  11
ATOM     11  C   UNL     1      -5.477  12.583  18.506  0.00  0.00    +0.000 A 
ATOM     12  C   UNL     1      -6.761  13.027  18.936  0.00  0.00    +0.000 A 
ATOM     13  C   UNL     1      -7.576  12.916  17.839  0.00  0.00    +0.000 A 
ATOM     14  N   UNL     1      -6.792  12.420  16.840  0.00  0.00    +0.000 N 
ATOM     15  N   UNL     1      -5.514  12.206  17.209  0.00  0.00    +0.000 NA
ATOM     16  H   UNL     1      -7.056  12.208  15.884  0.00  0.00    +0.000 HD
ENDBRANCH   4  11
BRANCH   1  18
ATOM     17  C   UNL     1      -1.063  13.060  23.071  0.00  0.00    +0.000 C 
ATOM     18  O   UNL     1      -0.868  12.520  21.765  0.00  0.00    +0.000 OA
ENDBRANCH   1  18
BRANCH   8  19
ATOM     19  C   UNL     1       0.286  10.358  19.370  0.00  0.00    +0.000 C 
ATOM     20  O   UNL     1       1.206  10.780  18.663  0.00  0.00    +0.000 OA
BRANCH  19  21
ATOM     21  C   UNL     1       0.696   9.347  20.429  0.00  0.00    +0.000 C 
ATOM     22  O   UNL     1       0.343   9.529  21.586  0.00  0.00    +0.000 OA
ATOM     23  N   UNL     1       1.492   8.285  19.995  0.00  0.00    +0.000 N 
ATOM     24  C   UNL     1       1.935   7.278  20.965  0.00  0.00    +0.000 C 
ATOM     25  C   UNL     1       2.016   5.872  20.336  0.00  0.00    +0.000 C 
ATOM     26  N   UNL     1       2.716   5.901  19.044  0.00  0.00    +0.000 N 
ATOM     27  C   UNL     1       3.778   5.026  18.821  0.00  0.00    +0.000 C 
ATOM     28  O   UNL     1       4.082   4.148  19.629  0.00  0.00    +0.000 OA
ATOM     29  C   UNL     1       2.135   6.860  18.096  0.00  0.00    +0.000 C 
ATOM     30  C   UNL     1       2.190   8.267  18.702  0.00  0.00    +0.000 C 
BRANCH  27  31
ATOM     31  C   UNL     1       4.586   5.111  17.571  0.00  0.00    +0.000 A 
ATOM     32  C   UNL     1       5.466   6.169  17.318  0.00  0.00    +0.000 A 
ATOM     33  C   UNL     1       6.131   6.256  16.092  0.00  0.00    +0.000 A 
ATOM     34  C   UNL     1       5.991   5.237  15.152  0.00  0.00    +0.000 A 
ATOM     35  C   UNL     1       5.201   4.126  15.440  0.00  0.00    +0.000 A 
ATOM     36  C   UNL     1       4.494   4.064  16.644  0.00  0.00    +0.000 A 
ENDBRANCH  27  31
ENDBRANCH  19  21
ENDBRANCH   8  19
TORSDOF 5
ENDMDL
MODEL 7
REMARK VINA RESULT:      -7.9      2.823      9.716
REMARK  Name = 
REMARK  6 active torsions:
REMARK  status: ('A' for Active; 'I' for Inactive)
REMARK    1  A    between atoms: C_1  and  O_2
REMARK    2  A    between atoms: O_2  and  C_3
REMARK    3  A    between atoms: C_6  and  C_7
REMARK    4  A    between atoms: C_15  and  C_16
REMARK    5  A    between atoms: C_16  and  C_18
REMARK    6  A    between atoms: C_24  and  C_26
REMARK                            x       y       z     vdW  Elec       q    Type
REMARK                         _______ _______ _______ _____ _____    ______ ____
ROOT
ATOM      1  C   UNL     1       2.919   4.635  20.205  0.00  0.00    +0.000 A 
ATOM      2  C   UNL     1       3.641   3.651  19.519  0.00  0.00    +0.000 A 
ATOM      3  N   UNL     1       4.284   3.812  18.346  0.00  0.00    +0.000 NA
ATOM      4  C   UNL     1       4.250   5.027  17.754  0.00  0.00    +0.000 A 
ATOM      5  C   UNL     1       3.536   6.057  18.367  0.00  0.00    +0.000 A 
ATOM      6  N   UNL     1       3.376   7.357  17.949  0.00  0.00    +0.000 N 
ATOM      7  C   UNL     1       2.568   8.029  18.809  0.00  0.00    +0.000 A 
ATOM      8  C   UNL     1       2.164   7.168  19.821  0.00  0.00    +0.000 A 
ATOM      9  C   UNL     1       2.831   5.903  19.573  0.00  0.00    +0.000 A 
ATOM     10  H   UNL     1       3.808   7.719  17.105  0.00  0.00    +0.000 HD
ENDROOT
BRANCH   4  11
ATOM     11  C   UNL     1       4.934   5.185  16.473  0.00  0.00    +0.000 A 
ATOM     12  C   UNL     1       5.279   4.131  15.578  0.00  0.00    +0.000 A 
ATOM     13  C   UNL     1       5.881   4.739  14.506  0.00  0.00    +0.000 A 
ATOM     14  N   UNL     1       5.887   6.073  14.788  0.00  0.00    +0.000 N 
ATOM     15  N   UNL     1       5.322   6.379  15.972  0.00  0.00    +0.000 NA
ATOM     16  H   UNL     1       6.254   6.831  14.223  0.00  0.00    +0.000 HD
ENDBRANCH   4  11
BRANCH   1  18
ATOM     17  C   UNL     1       2.132   3.072  21.806  0.00  0.00    +0.000 C 
ATOM     18  O   UNL     1       2.324   4.432  21.421  0.00  0.00    +0.000 OA
ENDBRANCH   1  18
BRANCH   8  19
ATOM     19  C   UNL     1       1.229   7.629  20.856  0.00  0.00    +0.000 C 
ATOM     20  O   UNL     1       0.305   6.913  21.253  0.00  0.00    +0.000 OA
BRANCH  19  21
ATOM     21  C   UNL     1       1.268   9.026  21.455  0.00  0.00    +0.000 C 
ATOM     22  O   UNL     1       2.123   9.286  22.291  0.00  0.00    +0.000 OA
ATOM     23  N   UNL     1       0.281   9.913  21.021  0.00  0.00    +0.000 N 
ATOM     24  C   UNL     1       0.249  11.275  21.565  0.00  0.00    +0.000 C 
ATOM     25  C   UNL     1      -0.219  12.303  20.515  0.00  0.00    +0.000 C 
ATOM     26  N   UNL     1      -1.426  11.842  19.814  0.00  0.00    +0.000 N 
ATOM     27  C   UNL     1      -2.538  12.678  19.744  0.00  0.00    +0.000 C 
ATOM     28  O   UNL     1      -2.509  13.840  20.152  0.00  0.00    +0.000 OA
ATOM     29  C   UNL     1      -1.266  10.515  19.205  0.00  0.00    +0.000 C 
ATOM     30  C   UNL     1      -0.928   9.494  20.298  0.00  0.00    +0.000 C 
BRANCH  27  31
ATOM     31  C   UNL     1      -3.817  12.198  19.147  0.00  0.00    +0.000 A 
ATOM     32  C   UNL     1      -3.887  11.657  17.859  0.00  0.00    +0.000 A 
ATOM     33  C   UNL     1      -5.122  11.308  17.306  0.00  0.00    +0.000 A 
ATOM     34  C   UNL     1      -6.280  11.409  18.072  0.00  0.00    +0.000 A 
ATOM     35  C   UNL     1      -6.205  11.846  19.394  0.00  0.00    +0.000 A 
ATOM     36  C   UNL     1      -4.978  12.245  19.930  0.00  0.00    +0.000 A 
ENDBRANCH  27  31
ENDBRANCH  19  21
ENDBRANCH   8  19
TORSDOF 5
ENDMDL
MODEL 8
REMARK VINA RESULT:      -7.9      3.447      5.245
REMARK  Name = 
REMARK  6 active torsions:
REMARK  status: ('A' for Active; 'I' for Inactive)
REMARK    1  A    between atoms: C_1  and  O_2
REMARK    2  A    between atoms: O_2  and  C_3
REMARK    3  A    between atoms: C_6  and  C_7
REMARK    4  A    between atoms: C_15  and  C_16
REMARK    5  A    between atoms: C_16  and  C_18
REMARK    6  A    between atoms: C_24  and  C_26
REMARK                            x       y       z     vdW  Elec       q    Type
REMARK                         _______ _______ _______ _____ _____    ______ ____
ROOT
ATOM      1  C   UNL     1      -1.295  12.842  19.793  0.00  0.00    +0.000 A 
ATOM      2  C   UNL     1      -1.636  14.130  20.224  0.00  0.00    +0.000 A 
ATOM      3  N   UNL     1      -0.813  15.196  20.265  0.00  0.00    +0.000 NA
ATOM      4  C   UNL     1       0.465  15.039  19.854  0.00  0.00    +0.000 A 
ATOM      5  C   UNL     1       0.887  13.781  19.424  0.00  0.00    +0.000 A 
ATOM      6  N   UNL     1       2.125  13.403  18.963  0.00  0.00    +0.000 N 
ATOM      7  C   UNL     1       2.136  12.073  18.688  0.00  0.00    +0.000 A 
ATOM      8  C   UNL     1       0.888  11.537  18.979  0.00  0.00    +0.000 A 
ATOM      9  C   UNL     1       0.056  12.648  19.405  0.00  0.00    +0.000 A 
ATOM     10  H   UNL     1       2.898  14.054  18.867  0.00  0.00    +0.000 HD
ENDROOT
BRANCH   4  11
ATOM     11  C   UNL     1       1.354  16.197  19.921  0.00  0.00    +0.000 A 
ATOM     12  C   UNL     1       1.110  17.392  20.658  0.00  0.00    +0.000 A 
ATOM     13  C   UNL     1       2.208  18.185  20.450  0.00  0.00    +0.000 A 
ATOM     14  N   UNL     1       3.029  17.478  19.622  0.00  0.00    +0.000 N 
ATOM     15  N   UNL     1       2.542  16.268  19.282  0.00  0.00    +0.000 NA
ATOM     16  H   UNL     1       3.933  17.750  19.253  0.00  0.00    +0.000 HD
ENDBRANCH   4  11
BRANCH   1  18
ATOM     17  C   UNL     1      -2.783  11.571  18.450  0.00  0.00    +0.000 C 
ATOM     18  O   UNL     1      -2.185  11.804  19.725  0.00  0.00    +0.000 OA
ENDBRANCH   1  18
BRANCH   8  19
ATOM     19  C   UNL     1       0.648  10.096  18.829  0.00  0.00    +0.000 C 
ATOM     20  O   UNL     1       0.157   9.630  17.795  0.00  0.00    +0.000 OA
BRANCH  19  21
ATOM     21  C   UNL     1       0.899   9.087  19.937  0.00  0.00    +0.000 C 
ATOM     22  O   UNL     1       0.402   9.284  21.038  0.00  0.00    +0.000 OA
ATOM     23  N   UNL     1       1.726   8.009  19.616  0.00  0.00    +0.000 N 
ATOM     24  C   UNL     1       2.022   7.001  20.641  0.00  0.00    +0.000 C 
ATOM     25  C   UNL     1       2.159   5.589  20.037  0.00  0.00    +0.000 C 
ATOM     26  N   UNL     1       3.021   5.596  18.846  0.00  0.00    +0.000 N 
ATOM     27  C   UNL     1       4.086   4.703  18.767  0.00  0.00    +0.000 C 
ATOM     28  O   UNL     1       4.268   3.826  19.613  0.00  0.00    +0.000 OA
ATOM     29  C   UNL     1       2.583   6.558  17.825  0.00  0.00    +0.000 C 
ATOM     30  C   UNL     1       2.584   7.968  18.425  0.00  0.00    +0.000 C 
BRANCH  27  31
ATOM     31  C   UNL     1       5.051   4.764  17.632  0.00  0.00    +0.000 A 
ATOM     32  C   UNL     1       4.886   4.009  16.466  0.00  0.00    +0.000 A 
ATOM     33  C   UNL     1       5.864   4.026  15.469  0.00  0.00    +0.000 A 
ATOM     34  C   UNL     1       6.965   4.870  15.591  0.00  0.00    +0.000 A 
ATOM     35  C   UNL     1       7.083   5.707  16.699  0.00  0.00    +0.000 A 
ATOM     36  C   UNL     1       6.132   5.650  17.722  0.00  0.00    +0.000 A 
ENDBRANCH  27  31
ENDBRANCH  19  21
ENDBRANCH   8  19
TORSDOF 5
ENDMDL
MODEL 9
REMARK VINA RESULT:      -7.8      3.446      5.410
REMARK  Name = 
REMARK  6 active torsions:
REMARK  status: ('A' for Active; 'I' for Inactive)
REMARK    1  A    between atoms: C_1  and  O_2
REMARK    2  A    between atoms: O_2  and  C_3
REMARK    3  A    between atoms: C_6  and  C_7
REMARK    4  A    between atoms: C_15  and  C_16
REMARK    5  A    between atoms: C_16  and  C_18
REMARK    6  A    between atoms: C_24  and  C_26
REMARK                            x       y       z     vdW  Elec       q    Type
REMARK                         _______ _______ _______ _____ _____    ______ ____
ROOT
ATOM      1  C   UNL     1      -0.226  12.523  21.506  0.00  0.00    +0.000 A 
ATOM      2  C   UNL     1      -0.156  13.719  22.230  0.00  0.00    +0.000 A 
ATOM      3  N   UNL     1       0.661  14.759  21.969  0.00  0.00    +0.000 NA
ATOM      4  C   UNL     1       1.499  14.669  20.913  0.00  0.00    +0.000 A 
ATOM      5  C   UNL     1       1.501  13.502  20.149  0.00  0.00    +0.000 A 
ATOM      6  N   UNL     1       2.257  13.202  19.041  0.00  0.00    +0.000 N 
ATOM      7  C   UNL     1       1.991  11.940  18.619  0.00  0.00    +0.000 A 
ATOM      8  C   UNL     1       1.046  11.368  19.461  0.00  0.00    +0.000 A 
ATOM      9  C   UNL     1       0.682  12.392  20.423  0.00  0.00    +0.000 A 
ATOM     10  H   UNL     1       2.920  13.857  18.635  0.00  0.00    +0.000 HD
ENDROOT
BRANCH   4  11
ATOM     11  C   UNL     1       2.394  15.794  20.650  0.00  0.00    +0.000 A 
ATOM     12  C   UNL     1       2.727  16.826  21.574  0.00  0.00    +0.000 A 
ATOM     13  C   UNL     1       3.604  17.646  20.912  0.00  0.00    +0.000 A 
ATOM     14  N   UNL     1       3.750  17.109  19.667  0.00  0.00    +0.000 N 
ATOM     15  N   UNL     1       3.031  15.986  19.474  0.00  0.00    +0.000 NA
ATOM     16  H   UNL     1       4.323  17.448  18.903  0.00  0.00    +0.000 HD
ENDBRANCH   4  11
BRANCH   1  18
ATOM     17  C   UNL     1      -1.722  11.557  23.073  0.00  0.00    +0.000 C 
ATOM     18  O   UNL     1      -1.110  11.516  21.785  0.00  0.00    +0.000 OA
ENDBRANCH   1  18
BRANCH   8  19
ATOM     19  C   UNL     1       0.623   9.976  19.263  0.00  0.00    +0.000 C 
ATOM     20  O   UNL     1      -0.013   9.633  18.262  0.00  0.00    +0.000 OA
BRANCH  19  21
ATOM     21  C   UNL     1       0.856   8.877  20.288  0.00  0.00    +0.000 C 
ATOM     22  O   UNL     1       0.337   8.981  21.392  0.00  0.00    +0.000 OA
ATOM     23  N   UNL     1       1.692   7.831  19.895  0.00  0.00    +0.000 N 
ATOM     24  C   UNL     1       1.970   6.742  20.838  0.00  0.00    +0.000 C 
ATOM     25  C   UNL     1       2.123   5.385  20.121  0.00  0.00    +0.000 C 
ATOM     26  N   UNL     1       3.008   5.492  18.952  0.00  0.00    +0.000 N 
ATOM     27  C   UNL     1       4.077   4.609  18.821  0.00  0.00    +0.000 C 
ATOM     28  O   UNL     1       4.245   3.665  19.594  0.00  0.00    +0.000 OA
ATOM     29  C   UNL     1       2.588   6.535  18.006  0.00  0.00    +0.000 C 
ATOM     30  C   UNL     1       2.574   7.890  18.722  0.00  0.00    +0.000 C 
BRANCH  27  31
ATOM     31  C   UNL     1       5.064   4.766  17.714  0.00  0.00    +0.000 A 
ATOM     32  C   UNL     1       6.196   5.581  17.828  0.00  0.00    +0.000 A 
ATOM     33  C   UNL     1       7.041   5.772  16.733  0.00  0.00    +0.000 A 
ATOM     34  C   UNL     1       6.812   5.077  15.548  0.00  0.00    +0.000 A 
ATOM     35  C   UNL     1       5.748   4.180  15.461  0.00  0.00    +0.000 A 
ATOM     36  C   UNL     1       4.871   4.029  16.538  0.00  0.00    +0.000 A 
ENDBRANCH  27  31
ENDBRANCH  19  21
ENDBRANCH   8  19
TORSDOF 5
ENDMDL
