MODEL 1
REMARK VINA RESULT:      -8.2      0.000      0.000
REMARK  Name = 
REMARK  9 active torsions:
REMARK  status: ('A' for Active; 'I' for Inactive)
REMARK    1  A    between atoms: C_1  and  C_2
REMARK    2  A    between atoms: C_5  and  S_6
REMARK    3  A    between atoms: S_6  and  C_9
REMARK    4  A    between atoms: C_9  and  C_10
REMARK    5  A    between atoms: C_10  and  C_23
REMARK    6  A    between atoms: N_11  and  N_12
REMARK    7  A    between atoms: N_12  and  C_13
REMARK    8  A    between atoms: C_16  and  S_17
REMARK    9  A    between atoms: S_17  and  N_18
REMARK                            x       y       z     vdW  Elec       q    Type
REMARK                         _______ _______ _______ _____ _____    ______ ____
ROOT
ATOM      1  C   UNL     1       2.533   5.735  19.797  0.00  0.00    +0.000 C 
ATOM      2  N   UNL     1       1.854   6.595  20.520  0.00  0.00    +0.000 NA
ENDROOT
BRANCH   1   3
ATOM      3  C   UNL     1       1.893   4.375  19.770  0.00  0.00    +0.000 A 
ATOM      4  C   UNL     1       1.562   3.435  20.810  0.00  0.00    +0.000 A 
ATOM      5  C   UNL     1       1.032   2.237  20.385  0.00  0.00    +0.000 A 
ATOM      6  S   UNL     1       0.855   2.212  18.702  0.00  0.00    +0.000 S 
ATOM      7  C   UNL     1       1.508   3.787  18.565  0.00  0.00    +0.000 A 
ENDBRANCH   1   3
BRANCH   2   8
ATOM      8  N   UNL     1       2.269   7.902  20.572  0.00  0.00    +0.000 N 
ATOM      9  H   UNL     1       2.571   8.182  21.516  0.00  0.00    +0.000 HD
BRANCH   8  10
ATOM     10  C   UNL     1       1.284   8.871  20.191  0.00  0.00    +0.000 A 
ATOM     11  C   UNL     1       0.377   9.431  21.105  0.00  0.00    +0.000 A 
ATOM     12  C   UNL     1      -0.583  10.360  20.698  0.00  0.00    +0.000 A 
ATOM     13  C   UNL     1      -0.643  10.748  19.362  0.00  0.00    +0.000 A 
ATOM     14  C   UNL     1       0.245  10.207  18.429  0.00  0.00    +0.000 A 
ATOM     15  C   UNL     1       1.213   9.283  18.849  0.00  0.00    +0.000 A 
BRANCH  13  16
ATOM     16  S   UNL     1      -1.889  11.895  18.837  0.00  0.00    +0.000 S 
ATOM     17  O   UNL     1      -3.060  11.170  18.423  0.00  0.00    +0.000 OA
ATOM     18  O   UNL     1      -1.947  12.999  19.770  0.00  0.00    +0.000 OA
BRANCH  16  19
ATOM     19  N   UNL     1      -1.206  12.513  17.433  0.00  0.00    +0.000 NA
ATOM     20  H   UNL     1      -1.435  13.506  17.347  0.00  0.00    +0.000 HD
ATOM     21  H   UNL     1      -0.204  12.321  17.418  0.00  0.00    +0.000 HD
ENDBRANCH  16  19
ENDBRANCH  13  16
ENDBRANCH   8  10
ENDBRANCH   2   8
BRANCH   1  22
ATOM     22  C   UNL     1       3.813   6.184  19.088  0.00  0.00    +0.000 C 
BRANCH  22  23
ATOM     23  S   UNL     1       5.115   5.024  19.113  0.00  0.00    +0.000 S 
ATOM     24  O   UNL     1       4.591   3.809  19.711  0.00  0.00    +0.000 OA
ATOM     25  O   UNL     1       6.293   5.693  19.636  0.00  0.00    +0.000 OA
BRANCH  23  30
ATOM     26  C   UNL     1       6.678   4.109  13.364  0.00  0.00    +0.000 C 
ATOM     27  C   UNL     1       6.281   4.288  14.798  0.00  0.00    +0.000 A 
ATOM     28  C   UNL     1       4.950   4.116  15.203  0.00  0.00    +0.000 A 
ATOM     29  C   UNL     1       4.595   4.263  16.543  0.00  0.00    +0.000 A 
ATOM     30  C   UNL     1       5.583   4.572  17.475  0.00  0.00    +0.000 A 
ATOM     31  C   UNL     1       6.907   4.789  17.076  0.00  0.00    +0.000 A 
ATOM     32  C   UNL     1       7.254   4.646  15.738  0.00  0.00    +0.000 A 
ENDBRANCH  23  30
ENDBRANCH  22  23
ENDBRANCH   1  22
TORSDOF 8
ENDMDL
MODEL 2
REMARK VINA RESULT:      -8.1      1.612      2.166
REMARK  Name = 
REMARK  9 active torsions:
REMARK  status: ('A' for Active; 'I' for Inactive)
REMARK    1  A    between atoms: C_1  and  C_2
REMARK    2  A    between atoms: C_5  and  S_6
REMARK    3  A    between atoms: S_6  and  C_9
REMARK    4  A    between atoms: C_9  and  C_10
REMARK    5  A    between atoms: C_10  and  C_23
REMARK    6  A    between atoms: N_11  and  N_12
REMARK    7  A    between atoms: N_12  and  C_13
REMARK    8  A    between atoms: C_16  and  S_17
REMARK    9  A    between atoms: S_17  and  N_18
REMARK                            x       y       z     vdW  Elec       q    Type
REMARK                         _______ _______ _______ _____ _____    ______ ____
ROOT
ATOM      1  C   UNL     1       3.104   5.550  19.299  0.00  0.00    +0.000 C 
ATOM      2  N   UNL     1       2.241   6.319  18.676  0.00  0.00    +0.000 NA
ENDROOT
BRANCH   1   3
ATOM      3  C   UNL     1       2.491   4.259  19.765  0.00  0.00    +0.000 A 
ATOM      4  C   UNL     1       1.986   3.111  19.057  0.00  0.00    +0.000 A 
ATOM      5  C   UNL     1       1.427   2.126  19.840  0.00  0.00    +0.000 A 
ATOM      6  S   UNL     1       1.536   2.517  21.483  0.00  0.00    +0.000 S 
ATOM      7  C   UNL     1       2.306   4.002  21.123  0.00  0.00    +0.000 A 
ENDBRANCH   1   3
BRANCH   2   8
ATOM      8  N   UNL     1       2.672   7.496  18.118  0.00  0.00    +0.000 N 
ATOM      9  H   UNL     1       3.683   7.644  18.244  0.00  0.00    +0.000 HD
BRANCH   8  10
ATOM     10  C   UNL     1       2.052   8.680  18.637  0.00  0.00    +0.000 A 
ATOM     11  C   UNL     1       2.029   9.895  17.933  0.00  0.00    +0.000 A 
ATOM     12  C   UNL     1       1.432  11.036  18.475  0.00  0.00    +0.000 A 
ATOM     13  C   UNL     1       0.843  10.972  19.735  0.00  0.00    +0.000 A 
ATOM     14  C   UNL     1       0.853   9.778  20.461  0.00  0.00    +0.000 A 
ATOM     15  C   UNL     1       1.444   8.635  19.903  0.00  0.00    +0.000 A 
BRANCH  13  16
ATOM     16  S   UNL     1       0.124  12.431  20.441  0.00  0.00    +0.000 S 
ATOM     17  O   UNL     1       0.259  12.384  21.872  0.00  0.00    +0.000 OA
ATOM     18  O   UNL     1       0.515  13.585  19.660  0.00  0.00    +0.000 OA
BRANCH  16  19
ATOM     19  N   UNL     1      -1.507  12.190  20.122  0.00  0.00    +0.000 NA
ATOM     20  H   UNL     1      -1.745  12.599  19.215  0.00  0.00    +0.000 HD
ATOM     21  H   UNL     1      -1.734  11.198  20.195  0.00  0.00    +0.000 HD
ENDBRANCH  16  19
ENDBRANCH  13  16
ENDBRANCH   8  10
ENDBRANCH   2   8
BRANCH   1  22
ATOM     22  C   UNL     1       4.554   6.011  19.456  0.00  0.00    +0.000 C 
BRANCH  22  23
ATOM     23  S   UNL     1       5.756   4.842  18.975  0.00  0.00    +0.000 S 
ATOM     24  O   UNL     1       5.286   3.543  19.421  0.00  0.00    +0.000 OA
ATOM     25  O   UNL     1       7.057   5.362  19.358  0.00  0.00    +0.000 OA
BRANCH  23  30
ATOM     26  C   UNL     1       6.305   3.842  13.057  0.00  0.00    +0.000 C 
ATOM     27  C   UNL     1       6.164   4.139  14.519  0.00  0.00    +0.000 A 
ATOM     28  C   UNL     1       7.175   4.814  15.217  0.00  0.00    +0.000 A 
ATOM     29  C   UNL     1       7.025   5.105  16.572  0.00  0.00    +0.000 A 
ATOM     30  C   UNL     1       5.850   4.726  17.219  0.00  0.00    +0.000 A 
ATOM     31  C   UNL     1       4.853   4.014  16.543  0.00  0.00    +0.000 A 
ATOM     32  C   UNL     1       5.011   3.722  15.194  0.00  0.00    +0.000 A 
ENDBRANCH  23  30
ENDBRANCH  22  23
ENDBRANCH   1  22
TORSDOF 8
ENDMDL
MODEL 3
REMARK VINA RESULT:      -8.0      3.144      9.650
REMARK  Name = 
REMARK  9 active torsions:
REMARK  status: ('A' for Active; 'I' for Inactive)
REMARK    1  A    between atoms: C_1  and  C_2
REMARK    2  A    between atoms: C_5  and  S_6
REMARK    3  A    between atoms: S_6  and  C_9
REMARK    4  A    between atoms: C_9  and  C_10
REMARK    5  A    between atoms: C_10  and  C_23
REMARK    6  A    between atoms: N_11  and  N_12
REMARK    7  A    between atoms: N_12  and  C_13
REMARK    8  A    between atoms: C_16  and  S_17
REMARK    9  A    between atoms: S_17  and  N_18
REMARK                            x       y       z     vdW  Elec       q    Type
REMARK                         _______ _______ _______ _____ _____    ______ ____
ROOT
ATOM      1  C   UNL     1      -0.261   9.713  19.684  0.00  0.00    +0.000 C 
ATOM      2  N   UNL     1       0.899   9.452  19.127  0.00  0.00    +0.000 NA
ENDROOT
BRANCH   1   3
ATOM      3  C   UNL     1      -1.242  10.311  18.714  0.00  0.00    +0.000 A 
ATOM      4  C   UNL     1      -2.201  11.379  18.836  0.00  0.00    +0.000 A 
ATOM      5  C   UNL     1      -2.988  11.602  17.728  0.00  0.00    +0.000 A 
ATOM      6  S   UNL     1      -2.567  10.563  16.461  0.00  0.00    +0.000 S 
ATOM      7  C   UNL     1      -1.358   9.818  17.415  0.00  0.00    +0.000 A 
ENDBRANCH   1   3
BRANCH   2   8
ATOM      8  N   UNL     1       1.871   8.826  19.865  0.00  0.00    +0.000 N 
ATOM      9  H   UNL     1       2.779   9.311  19.814  0.00  0.00    +0.000 HD
BRANCH   8  10
ATOM     10  C   UNL     1       2.150   7.472  19.485  0.00  0.00    +0.000 A 
ATOM     11  C   UNL     1       2.745   7.135  18.259  0.00  0.00    +0.000 A 
ATOM     12  C   UNL     1       2.986   5.803  17.911  0.00  0.00    +0.000 A 
ATOM     13  C   UNL     1       2.637   4.787  18.796  0.00  0.00    +0.000 A 
ATOM     14  C   UNL     1       2.041   5.091  20.023  0.00  0.00    +0.000 A 
ATOM     15  C   UNL     1       1.813   6.431  20.368  0.00  0.00    +0.000 A 
BRANCH  13  16
ATOM     16  S   UNL     1       2.904   3.095  18.337  0.00  0.00    +0.000 S 
ATOM     17  O   UNL     1       2.827   2.266  19.510  0.00  0.00    +0.000 OA
ATOM     18  O   UNL     1       2.163   2.804  17.129  0.00  0.00    +0.000 OA
BRANCH  16  19
ATOM     19  N   UNL     1       4.522   3.119  17.892  0.00  0.00    +0.000 NA
ATOM     20  H   UNL     1       4.818   4.083  17.716  0.00  0.00    +0.000 HD
ATOM     21  H   UNL     1       5.086   2.641  18.596  0.00  0.00    +0.000 HD
ENDBRANCH  16  19
ENDBRANCH  13  16
ENDBRANCH   8  10
ENDBRANCH   2   8
BRANCH   1  22
ATOM     22  C   UNL     1      -0.483   9.384  21.161  0.00  0.00    +0.000 C 
BRANCH  22  23
ATOM     23  S   UNL     1       0.008  10.631  22.277  0.00  0.00    +0.000 S 
ATOM     24  O   UNL     1       1.147  11.307  21.683  0.00  0.00    +0.000 OA
ATOM     25  O   UNL     1       0.069  10.040  23.602  0.00  0.00    +0.000 OA
BRANCH  23  30
ATOM     26  C   UNL     1      -3.914  15.097  23.279  0.00  0.00    +0.000 C 
ATOM     27  C   UNL     1      -2.973  13.964  23.002  0.00  0.00    +0.000 A 
ATOM     28  C   UNL     1      -3.198  12.692  23.547  0.00  0.00    +0.000 A 
ATOM     29  C   UNL     1      -2.330  11.639  23.266  0.00  0.00    +0.000 A 
ATOM     30  C   UNL     1      -1.241  11.866  22.426  0.00  0.00    +0.000 A 
ATOM     31  C   UNL     1      -0.981  13.142  21.911  0.00  0.00    +0.000 A 
ATOM     32  C   UNL     1      -1.848  14.188  22.199  0.00  0.00    +0.000 A 
ENDBRANCH  23  30
ENDBRANCH  22  23
ENDBRANCH   1  22
TORSDOF 8
ENDMDL
MODEL 4
REMARK VINA RESULT:      -8.0      2.983      9.415
REMARK  Name = 
REMARK  9 active torsions:
REMARK  status: ('A' for Active; 'I' for Inactive)
REMARK    1  A    between atoms: C_1  and  C_2
REMARK    2  A    between atoms: C_5  and  S_6
REMARK    3  A    between atoms: S_6  and  C_9
REMARK    4  A    between atoms: C_9  and  C_10
REMARK    5  A    between atoms: C_10  and  C_23
REMARK    6  A    between atoms: N_11  and  N_12
REMARK    7  A    between atoms: N_12  and  C_13
REMARK    8  A    between atoms: C_16  and  S_17
REMARK    9  A    between atoms: S_17  and  N_18
REMARK                            x       y       z     vdW  Elec       q    Type
REMARK                         _______ _______ _______ _____ _____    ______ ____
ROOT
ATOM      1  C   UNL     1       0.309  10.271  18.558  0.00  0.00    +0.000 C 
ATOM      2  N   UNL     1       1.053   9.458  17.844  0.00  0.00    +0.000 NA
ENDROOT
BRANCH   1   3
ATOM      3  C   UNL     1      -1.107  10.344  18.058  0.00  0.00    +0.000 A 
ATOM      4  C   UNL     1      -1.784   9.703  16.960  0.00  0.00    +0.000 A 
ATOM      5  C   UNL     1      -3.095  10.076  16.769  0.00  0.00    +0.000 A 
ATOM      6  S   UNL     1      -3.592  11.184  17.947  0.00  0.00    +0.000 S 
ATOM      7  C   UNL     1      -2.046  11.166  18.679  0.00  0.00    +0.000 A 
ENDBRANCH   1   3
BRANCH   2   8
ATOM      8  N   UNL     1       2.348   9.222  18.229  0.00  0.00    +0.000 N 
ATOM      9  H   UNL     1       3.033   9.575  17.544  0.00  0.00    +0.000 HD
BRANCH   8  10
ATOM     10  C   UNL     1       2.687   7.842  18.420  0.00  0.00    +0.000 A 
ATOM     11  C   UNL     1       2.213   7.088  19.505  0.00  0.00    +0.000 A 
ATOM     12  C   UNL     1       2.576   5.749  19.672  0.00  0.00    +0.000 A 
ATOM     13  C   UNL     1       3.419   5.144  18.744  0.00  0.00    +0.000 A 
ATOM     14  C   UNL     1       3.909   5.869  17.655  0.00  0.00    +0.000 A 
ATOM     15  C   UNL     1       3.529   7.210  17.489  0.00  0.00    +0.000 A 
BRANCH  13  16
ATOM     16  S   UNL     1       3.915   3.458  18.979  0.00  0.00    +0.000 S 
ATOM     17  O   UNL     1       5.189   3.424  19.645  0.00  0.00    +0.000 OA
ATOM     18  O   UNL     1       2.780   2.683  19.431  0.00  0.00    +0.000 OA
BRANCH  16  19
ATOM     19  N   UNL     1       4.205   2.970  17.399  0.00  0.00    +0.000 NA
ATOM     20  H   UNL     1       5.124   2.522  17.339  0.00  0.00    +0.000 HD
ATOM     21  H   UNL     1       3.441   2.380  17.069  0.00  0.00    +0.000 HD
ENDBRANCH  16  19
ENDBRANCH  13  16
ENDBRANCH   8  10
ENDBRANCH   2   8
BRANCH   1  22
ATOM     22  C   UNL     1       0.918  10.995  19.761  0.00  0.00    +0.000 C 
BRANCH  22  23
ATOM     23  S   UNL     1       0.453  10.360  21.317  0.00  0.00    +0.000 S 
ATOM     24  O   UNL     1       1.669  10.213  22.096  0.00  0.00    +0.000 OA
ATOM     25  O   UNL     1      -0.454   9.249  21.088  0.00  0.00    +0.000 OA
BRANCH  23  30
ATOM     26  C   UNL     1      -3.359  14.257  23.889  0.00  0.00    +0.000 C 
ATOM     27  C   UNL     1      -2.375  13.306  23.278  0.00  0.00    +0.000 A 
ATOM     28  C   UNL     1      -1.361  13.768  22.427  0.00  0.00    +0.000 A 
ATOM     29  C   UNL     1      -0.437  12.880  21.881  0.00  0.00    +0.000 A 
ATOM     30  C   UNL     1      -0.529  11.526  22.202  0.00  0.00    +0.000 A 
ATOM     31  C   UNL     1      -1.563  11.047  23.015  0.00  0.00    +0.000 A 
ATOM     32  C   UNL     1      -2.483  11.938  23.552  0.00  0.00    +0.000 A 
ENDBRANCH  23  30
ENDBRANCH  22  23
ENDBRANCH   1  22
TORSDOF 8
ENDMDL
MODEL 5
REMARK VINA RESULT:      -8.0      2.062      2.693
REMARK  Name = 
REMARK  9 active torsions:
REMARK  status: ('A' for Active; 'I' for Inactive)
REMARK    1  A    between atoms: C_1  and  C_2
REMARK    2  A    between atoms: C_5  and  S_6
REMARK    3  A    between atoms: S_6  and  C_9
REMARK    4  A    between atoms: C_9  and  C_10
REMARK    5  A    between atoms: C_10  and  C_23
REMARK    6  A    between atoms: N_11  and  N_12
REMARK    7  A    between atoms: N_12  and  C_13
REMARK    8  A    between atoms: C_16  and  S_17
REMARK    9  A    between atoms: S_17  and  N_18
REMARK                            x       y       z     vdW  Elec       q    Type
REMARK                         _______ _______ _______ _____ _____    ______ ____
ROOT
ATOM      1  C   UNL     1       2.926   5.254  18.919  0.00  0.00    +0.000 C 
ATOM      2  N   UNL     1       2.557   6.366  19.513  0.00  0.00    +0.000 NA
ENDROOT
BRANCH   1   3
ATOM      3  C   UNL     1       2.450   4.028  19.646  0.00  0.00    +0.000 A 
ATOM      4  C   UNL     1       2.092   2.708  19.194  0.00  0.00    +0.000 A 
ATOM      5  C   UNL     1       1.627   1.850  20.166  0.00  0.00    +0.000 A 
ATOM      6  S   UNL     1       1.655   2.585  21.691  0.00  0.00    +0.000 S 
ATOM      7  C   UNL     1       2.263   4.039  21.027  0.00  0.00    +0.000 A 
ENDBRANCH   1   3
BRANCH   2   8
ATOM      8  N   UNL     1       2.846   7.569  18.922  0.00  0.00    +0.000 N 
ATOM      9  H   UNL     1       3.644   8.045  19.366  0.00  0.00    +0.000 HD
BRANCH   8  10
ATOM     10  C   UNL     1       1.781   8.530  18.942  0.00  0.00    +0.000 A 
ATOM     11  C   UNL     1       1.164   8.954  20.129  0.00  0.00    +0.000 A 
ATOM     12  C   UNL     1       0.116   9.878  20.112  0.00  0.00    +0.000 A 
ATOM     13  C   UNL     1      -0.324  10.397  18.898  0.00  0.00    +0.000 A 
ATOM     14  C   UNL     1       0.269   9.993  17.700  0.00  0.00    +0.000 A 
ATOM     15  C   UNL     1       1.328   9.073  17.727  0.00  0.00    +0.000 A 
BRANCH  13  16
ATOM     16  S   UNL     1      -1.682  11.538  18.873  0.00  0.00    +0.000 S 
ATOM     17  O   UNL     1      -2.836  10.892  18.309  0.00  0.00    +0.000 OA
ATOM     18  O   UNL     1      -1.728  12.256  20.129  0.00  0.00    +0.000 OA
BRANCH  16  19
ATOM     19  N   UNL     1      -1.166  12.649  17.725  0.00  0.00    +0.000 NA
ATOM     20  H   UNL     1      -0.395  12.251  17.182  0.00  0.00    +0.000 HD
ATOM     21  H   UNL     1      -1.954  12.952  17.153  0.00  0.00    +0.000 HD
ENDBRANCH  16  19
ENDBRANCH  13  16
ENDBRANCH   8  10
ENDBRANCH   2   8
BRANCH   1  22
ATOM     22  C   UNL     1       3.733   5.321  17.620  0.00  0.00    +0.000 C 
BRANCH  22  23
ATOM     23  S   UNL     1       5.369   4.728  17.737  0.00  0.00    +0.000 S 
ATOM     24  O   UNL     1       5.654   4.023  16.500  0.00  0.00    +0.000 OA
ATOM     25  O   UNL     1       5.518   4.094  19.035  0.00  0.00    +0.000 OA
BRANCH  23  30
ATOM     26  C   UNL     1       8.991   9.492  18.447  0.00  0.00    +0.000 C 
ATOM     27  C   UNL     1       8.108   8.302  18.225  0.00  0.00    +0.000 A 
ATOM     28  C   UNL     1       7.014   8.372  17.350  0.00  0.00    +0.000 A 
ATOM     29  C   UNL     1       6.211   7.254  17.132  0.00  0.00    +0.000 A 
ATOM     30  C   UNL     1       6.518   6.063  17.788  0.00  0.00    +0.000 A 
ATOM     31  C   UNL     1       7.581   5.993  18.696  0.00  0.00    +0.000 A 
ATOM     32  C   UNL     1       8.374   7.113  18.912  0.00  0.00    +0.000 A 
ENDBRANCH  23  30
ENDBRANCH  22  23
ENDBRANCH   1  22
TORSDOF 8
ENDMDL
MODEL 6
REMARK VINA RESULT:      -7.9      1.421      1.848
REMARK  Name = 
REMARK  9 active torsions:
REMARK  status: ('A' for Active; 'I' for Inactive)
REMARK    1  A    between atoms: C_1  and  C_2
REMARK    2  A    between atoms: C_5  and  S_6
REMARK    3  A    between atoms: S_6  and  C_9
REMARK    4  A    between atoms: C_9  and  C_10
REMARK    5  A    between atoms: C_10  and  C_23
REMARK    6  A    between atoms: N_11  and  N_12
REMARK    7  A    between atoms: N_12  and  C_13
REMARK    8  A    between atoms: C_16  and  S_17
REMARK    9  A    between atoms: S_17  and  N_18
REMARK                            x       y       z     vdW  Elec       q    Type
REMARK                         _______ _______ _______ _____ _____    ______ ____
ROOT
ATOM      1  C   UNL     1       3.011   5.588  19.136  0.00  0.00    +0.000 C 
ATOM      2  N   UNL     1       2.220   6.441  18.526  0.00  0.00    +0.000 NA
ENDROOT
BRANCH   1   3
ATOM      3  C   UNL     1       2.329   4.282  19.432  0.00  0.00    +0.000 A 
ATOM      4  C   UNL     1       2.082   3.570  20.660  0.00  0.00    +0.000 A 
ATOM      5  C   UNL     1       1.472   2.343  20.526  0.00  0.00    +0.000 A 
ATOM      6  S   UNL     1       1.115   2.013  18.905  0.00  0.00    +0.000 S 
ATOM      7  C   UNL     1       1.799   3.500  18.407  0.00  0.00    +0.000 A 
ENDBRANCH   1   3
BRANCH   2   8
ATOM      8  N   UNL     1       2.726   7.648  18.115  0.00  0.00    +0.000 N 
ATOM      9  H   UNL     1       3.715   7.771  18.377  0.00  0.00    +0.000 HD
BRANCH   8  10
ATOM     10  C   UNL     1       2.054   8.801  18.640  0.00  0.00    +0.000 A 
ATOM     11  C   UNL     1       1.369   8.788  19.865  0.00  0.00    +0.000 A 
ATOM     12  C   UNL     1       0.709   9.924  20.340  0.00  0.00    +0.000 A 
ATOM     13  C   UNL     1       0.734  11.097  19.591  0.00  0.00    +0.000 A 
ATOM     14  C   UNL     1       1.406  11.141  18.367  0.00  0.00    +0.000 A 
ATOM     15  C   UNL     1       2.075   9.998  17.904  0.00  0.00    +0.000 A 
BRANCH  13  16
ATOM     16  S   UNL     1      -0.139  12.528  20.172  0.00  0.00    +0.000 S 
ATOM     17  O   UNL     1       0.324  13.689  19.462  0.00  0.00    +0.000 OA
ATOM     18  O   UNL     1      -1.544  12.208  20.310  0.00  0.00    +0.000 OA
BRANCH  16  19
ATOM     19  N   UNL     1       0.457  12.672  21.735  0.00  0.00    +0.000 NA
ATOM     20  H   UNL     1      -0.309  12.893  22.377  0.00  0.00    +0.000 HD
ATOM     21  H   UNL     1       0.974  11.831  21.991  0.00  0.00    +0.000 HD
ENDBRANCH  16  19
ENDBRANCH  13  16
ENDBRANCH   8  10
ENDBRANCH   2   8
BRANCH   1  22
ATOM     22  C   UNL     1       4.457   5.982  19.443  0.00  0.00    +0.000 C 
BRANCH  22  23
ATOM     23  S   UNL     1       5.656   4.802  18.984  0.00  0.00    +0.000 S 
ATOM     24  O   UNL     1       5.149   3.502  19.388  0.00  0.00    +0.000 OA
ATOM     25  O   UNL     1       6.951   5.292  19.422  0.00  0.00    +0.000 OA
BRANCH  23  30
ATOM     26  C   UNL     1       6.418   3.906  13.073  0.00  0.00    +0.000 C 
ATOM     27  C   UNL     1       6.223   4.177  14.533  0.00  0.00    +0.000 A 
ATOM     28  C   UNL     1       7.204   4.849  15.277  0.00  0.00    +0.000 A 
ATOM     29  C   UNL     1       7.004   5.117  16.630  0.00  0.00    +0.000 A 
ATOM     30  C   UNL     1       5.812   4.716  17.230  0.00  0.00    +0.000 A 
ATOM     31  C   UNL     1       4.845   4.006  16.509  0.00  0.00    +0.000 A 
ATOM     32  C   UNL     1       5.053   3.738  15.162  0.00  0.00    +0.000 A 
ENDBRANCH  23  30
ENDBRANCH  22  23
ENDBRANCH   1  22
TORSDOF 8
ENDMDL
MODEL 7
REMARK VINA RESULT:      -7.9      0.500      1.364
REMARK  Name = 
REMARK  9 active torsions:
REMARK  status: ('A' for Active; 'I' for Inactive)
REMARK    1  A    between atoms: C_1  and  C_2
REMARK    2  A    between atoms: C_5  and  S_6
REMARK    3  A    between atoms: S_6  and  C_9
REMARK    4  A    between atoms: C_9  and  C_10
REMARK    5  A    between atoms: C_10  and  C_23
REMARK    6  A    between atoms: N_11  and  N_12
REMARK    7  A    between atoms: N_12  and  C_13
REMARK    8  A    between atoms: C_16  and  S_17
REMARK    9  A    between atoms: S_17  and  N_18
REMARK                            x       y       z     vdW  Elec       q    Type
REMARK                         _______ _______ _______ _____ _____    ______ ____
ROOT
ATOM      1  C   UNL     1       2.577   5.784  19.911  0.00  0.00    +0.000 C 
ATOM      2  N   UNL     1       1.797   6.604  20.578  0.00  0.00    +0.000 NA
ENDROOT
BRANCH   1   3
ATOM      3  C   UNL     1       2.027   4.386  19.856  0.00  0.00    +0.000 A 
ATOM      4  C   UNL     1       1.943   3.335  20.838  0.00  0.00    +0.000 A 
ATOM      5  C   UNL     1       1.423   2.141  20.390  0.00  0.00    +0.000 A 
ATOM      6  S   UNL     1       0.956   2.250  18.767  0.00  0.00    +0.000 S 
ATOM      7  C   UNL     1       1.475   3.877  18.681  0.00  0.00    +0.000 A 
ENDBRANCH   1   3
BRANCH   2   8
ATOM      8  N   UNL     1       2.123   7.935  20.644  0.00  0.00    +0.000 N 
ATOM      9  H   UNL     1       2.209   8.272  21.613  0.00  0.00    +0.000 HD
BRANCH   8  10
ATOM     10  C   UNL     1       1.188   8.825  20.020  0.00  0.00    +0.000 A 
ATOM     11  C   UNL     1       1.238   9.141  18.653  0.00  0.00    +0.000 A 
ATOM     12  C   UNL     1       0.321  10.026  18.079  0.00  0.00    +0.000 A 
ATOM     13  C   UNL     1      -0.666  10.604  18.872  0.00  0.00    +0.000 A 
ATOM     14  C   UNL     1      -0.741  10.310  20.236  0.00  0.00    +0.000 A 
ATOM     15  C   UNL     1       0.177   9.411  20.801  0.00  0.00    +0.000 A 
BRANCH  13  16
ATOM     16  S   UNL     1      -1.803  11.760  18.153  0.00  0.00    +0.000 S 
ATOM     17  O   UNL     1      -2.290  11.236  16.905  0.00  0.00    +0.000 OA
ATOM     18  O   UNL     1      -2.686  12.266  19.182  0.00  0.00    +0.000 OA
BRANCH  16  19
ATOM     19  N   UNL     1      -0.782  13.031  17.755  0.00  0.00    +0.000 NA
ATOM     20  H   UNL     1      -1.125  13.498  16.911  0.00  0.00    +0.000 HD
ATOM     21  H   UNL     1      -0.676  13.658  18.554  0.00  0.00    +0.000 HD
ENDBRANCH  16  19
ENDBRANCH  13  16
ENDBRANCH   8  10
ENDBRANCH   2   8
BRANCH   1  22
ATOM     22  C   UNL     1       3.869   6.310  19.283  0.00  0.00    +0.000 C 
BRANCH  22  23
ATOM     23  S   UNL     1       5.124   5.119  19.073  0.00  0.00    +0.000 S 
ATOM     24  O   UNL     1       4.567   3.839  19.474  0.00  0.00    +0.000 OA
ATOM     25  O   UNL     1       6.340   5.648  19.665  0.00  0.00    +0.000 OA
BRANCH  23  30
ATOM     26  C   UNL     1       6.528   3.846  13.351  0.00  0.00    +0.000 C 
ATOM     27  C   UNL     1       6.192   4.210  14.765  0.00  0.00    +0.000 A 
ATOM     28  C   UNL     1       7.198   4.551  15.680  0.00  0.00    +0.000 A 
ATOM     29  C   UNL     1       6.874   4.909  16.987  0.00  0.00    +0.000 A 
ATOM     30  C   UNL     1       5.534   4.934  17.368  0.00  0.00    +0.000 A 
ATOM     31  C   UNL     1       4.523   4.554  16.477  0.00  0.00    +0.000 A 
ATOM     32  C   UNL     1       4.855   4.193  15.178  0.00  0.00    +0.000 A 
ENDBRANCH  23  30
ENDBRANCH  22  23
ENDBRANCH   1  22
TORSDOF 8
ENDMDL
MODEL 8
REMARK VINA RESULT:      -7.9      3.216      9.573
REMARK  Name = 
REMARK  9 active torsions:
REMARK  status: ('A' for Active; 'I' for Inactive)
REMARK    1  A    between atoms: C_1  and  C_2
REMARK    2  A    between atoms: C_5  and  S_6
REMARK    3  A    between atoms: S_6  and  C_9
REMARK    4  A    between atoms: C_9  and  C_10
REMARK    5  A    between atoms: C_10  and  C_23
REMARK    6  A    between atoms: N_11  and  N_12
REMARK    7  A    between atoms: N_12  and  C_13
REMARK    8  A    between atoms: C_16  and  S_17
REMARK    9  A    between atoms: S_17  and  N_18
REMARK                            x       y       z     vdW  Elec       q    Type
REMARK                         _______ _______ _______ _____ _____    ______ ____
ROOT
ATOM      1  C   UNL     1      -0.161   9.535  19.781  0.00  0.00    +0.000 C 
ATOM      2  N   UNL     1       0.976   9.134  19.260  0.00  0.00    +0.000 NA
ENDROOT
BRANCH   1   3
ATOM      3  C   UNL     1      -1.044  10.219  18.775  0.00  0.00    +0.000 A 
ATOM      4  C   UNL     1      -1.810  11.438  18.823  0.00  0.00    +0.000 A 
ATOM      5  C   UNL     1      -2.566  11.712  17.705  0.00  0.00    +0.000 A 
ATOM      6  S   UNL     1      -2.344  10.531  16.514  0.00  0.00    +0.000 S 
ATOM      7  C   UNL     1      -1.261   9.663  17.515  0.00  0.00    +0.000 A 
ENDBRANCH   1   3
BRANCH   2   8
ATOM      8  N   UNL     1       1.853   8.419  20.036  0.00  0.00    +0.000 N 
ATOM      9  H   UNL     1       2.790   8.846  20.068  0.00  0.00    +0.000 HD
BRANCH   8  10
ATOM     10  C   UNL     1       2.074   7.065  19.617  0.00  0.00    +0.000 A 
ATOM     11  C   UNL     1       2.554   6.735  18.340  0.00  0.00    +0.000 A 
ATOM     12  C   UNL     1       2.740   5.404  17.958  0.00  0.00    +0.000 A 
ATOM     13  C   UNL     1       2.453   4.382  18.858  0.00  0.00    +0.000 A 
ATOM     14  C   UNL     1       1.972   4.680  20.136  0.00  0.00    +0.000 A 
ATOM     15  C   UNL     1       1.798   6.019  20.515  0.00  0.00    +0.000 A 
BRANCH  13  16
ATOM     16  S   UNL     1       2.649   2.692  18.358  0.00  0.00    +0.000 S 
ATOM     17  O   UNL     1       2.025   1.833  19.328  0.00  0.00    +0.000 OA
ATOM     18  O   UNL     1       2.391   2.579  16.939  0.00  0.00    +0.000 OA
BRANCH  16  19
ATOM     19  N   UNL     1       4.303   2.477  18.545  0.00  0.00    +0.000 NA
ATOM     20  H   UNL     1       4.482   1.615  19.068  0.00  0.00    +0.000 HD
ATOM     21  H   UNL     1       4.765   2.505  17.635  0.00  0.00    +0.000 HD
ENDBRANCH  16  19
ENDBRANCH  13  16
ENDBRANCH   8  10
ENDBRANCH   2   8
BRANCH   1  22
ATOM     22  C   UNL     1      -0.456   9.263  21.257  0.00  0.00    +0.000 C 
BRANCH  22  23
ATOM     23  S   UNL     1       0.198  10.438  22.368  0.00  0.00    +0.000 S 
ATOM     24  O   UNL     1       1.367  11.019  21.733  0.00  0.00    +0.000 OA
ATOM     25  O   UNL     1       0.263   9.817  23.680  0.00  0.00    +0.000 OA
BRANCH  23  30
ATOM     26  C   UNL     1      -3.975  14.778  22.646  0.00  0.00    +0.000 C 
ATOM     27  C   UNL     1      -2.909  13.726  22.606  0.00  0.00    +0.000 A 
ATOM     28  C   UNL     1      -1.708  13.945  21.915  0.00  0.00    +0.000 A 
ATOM     29  C   UNL     1      -0.712  12.970  21.902  0.00  0.00    +0.000 A 
ATOM     30  C   UNL     1      -0.923  11.779  22.595  0.00  0.00    +0.000 A 
ATOM     31  C   UNL     1      -2.135  11.531  23.251  0.00  0.00    +0.000 A 
ATOM     32  C   UNL     1      -3.125  12.506  23.255  0.00  0.00    +0.000 A 
ENDBRANCH  23  30
ENDBRANCH  22  23
ENDBRANCH   1  22
TORSDOF 8
ENDMDL
MODEL 9
REMARK VINA RESULT:      -7.9      0.581      1.101
REMARK  Name = 
REMARK  9 active torsions:
REMARK  status: ('A' for Active; 'I' for Inactive)
REMARK    1  A    between atoms: C_1  and  C_2
REMARK    2  A    between atoms: C_5  and  S_6
REMARK    3  A    between atoms: S_6  and  C_9
REMARK    4  A    between atoms: C_9  and  C_10
REMARK    5  A    between atoms: C_10  and  C_23
REMARK    6  A    between atoms: N_11  and  N_12
REMARK    7  A    between atoms: N_12  and  C_13
REMARK    8  A    between atoms: C_16  and  S_17
REMARK    9  A    between atoms: S_17  and  N_18
REMARK                            x       y       z     vdW  Elec       q    Type
REMARK                         _______ _______ _______ _____ _____    ______ ____
ROOT
ATOM      1  C   UNL     1       2.523   5.651  19.825  0.00  0.00    +0.000 C 
ATOM      2  N   UNL     1       1.862   6.484  20.596  0.00  0.00    +0.000 NA
ENDROOT
BRANCH   1   3
ATOM      3  C   UNL     1       1.881   4.294  19.762  0.00  0.00    +0.000 A 
ATOM      4  C   UNL     1       1.525   3.339  20.780  0.00  0.00    +0.000 A 
ATOM      5  C   UNL     1       1.003   2.148  20.325  0.00  0.00    +0.000 A 
ATOM      6  S   UNL     1       0.863   2.149  18.638  0.00  0.00    +0.000 S 
ATOM      7  C   UNL     1       1.522   3.725  18.541  0.00  0.00    +0.000 A 
ENDBRANCH   1   3
BRANCH   2   8
ATOM      8  N   UNL     1       2.279   7.788  20.687  0.00  0.00    +0.000 N 
ATOM      9  H   UNL     1       2.447   8.081  21.660  0.00  0.00    +0.000 HD
BRANCH   8  10
ATOM     10  C   UNL     1       1.368   8.759  20.156  0.00  0.00    +0.000 A 
ATOM     11  C   UNL     1       1.420   9.199  18.824  0.00  0.00    +0.000 A 
ATOM     12  C   UNL     1       0.528  10.162  18.343  0.00  0.00    +0.000 A 
ATOM     13  C   UNL     1      -0.437  10.692  19.194  0.00  0.00    +0.000 A 
ATOM     14  C   UNL     1      -0.512  10.276  20.525  0.00  0.00    +0.000 A 
ATOM     15  C   UNL     1       0.380   9.301  20.997  0.00  0.00    +0.000 A 
BRANCH  13  16
ATOM     16  S   UNL     1      -1.542  11.944  18.595  0.00  0.00    +0.000 S 
ATOM     17  O   UNL     1      -2.490  12.274  19.625  0.00  0.00    +0.000 OA
ATOM     18  O   UNL     1      -0.784  12.951  17.884  0.00  0.00    +0.000 OA
BRANCH  16  19
ATOM     19  N   UNL     1      -2.402  11.101  17.426  0.00  0.00    +0.000 NA
ATOM     20  H   UNL     1      -2.106  11.404  16.494  0.00  0.00    +0.000 HD
ATOM     21  H   UNL     1      -2.307  10.097  17.578  0.00  0.00    +0.000 HD
ENDBRANCH  16  19
ENDBRANCH  13  16
ENDBRANCH   8  10
ENDBRANCH   2   8
BRANCH   1  22
ATOM     22  C   UNL     1       3.785   6.127  19.103  0.00  0.00    +0.000 C 
BRANCH  22  23
ATOM     23  S   UNL     1       5.113   4.996  19.116  0.00  0.00    +0.000 S 
ATOM     24  O   UNL     1       4.622   3.772  19.724  0.00  0.00    +0.000 OA
ATOM     25  O   UNL     1       6.281   5.692  19.625  0.00  0.00    +0.000 OA
BRANCH  23  30
ATOM     26  C   UNL     1       6.664   4.100  13.361  0.00  0.00    +0.000 C 
ATOM     27  C   UNL     1       6.269   4.275  14.796  0.00  0.00    +0.000 A 
ATOM     28  C   UNL     1       4.932   4.135  15.197  0.00  0.00    +0.000 A 
ATOM     29  C   UNL     1       4.578   4.277  16.537  0.00  0.00    +0.000 A 
ATOM     30  C   UNL     1       5.572   4.549  17.475  0.00  0.00    +0.000 A 
ATOM     31  C   UNL     1       6.903   4.733  17.081  0.00  0.00    +0.000 A 
ATOM     32  C   UNL     1       7.248   4.596  15.743  0.00  0.00    +0.000 A 
ENDBRANCH  23  30
ENDBRANCH  22  23
ENDBRANCH   1  22
TORSDOF 8
ENDMDL
