MODEL 1
REMARK VINA RESULT:      -8.5      0.000      0.000
REMARK  Name = 
REMARK  8 active torsions:
REMARK  status: ('A' for Active; 'I' for Inactive)
REMARK    1  A    between atoms: C_1  and  C_2
REMARK    2  A    between atoms: C_6  and  C_7
REMARK    3  A    between atoms: C_7  and  N_8
REMARK    4  A    between atoms: C_9  and  C_11
REMARK    5  A    between atoms: C_11  and  C_12
REMARK    6  A    between atoms: C_12  and  N_13
REMARK    7  A    between atoms: C_18  and  S_19
REMARK    8  A    between atoms: S_19  and  N_22
REMARK                            x       y       z     vdW  Elec       q    Type
REMARK                         _______ _______ _______ _____ _____    ______ ____
ROOT
ATOM      1  N   UNL     1       1.447   6.673  20.560  0.00  0.00    +0.000 N 
ATOM      2  C   UNL     1       1.540   5.444  21.178  0.00  0.00    +0.000 A 
ATOM      3  C   UNL     1       2.480   4.695  20.504  0.00  0.00    +0.000 A 
ATOM      4  C   UNL     1       2.940   5.455  19.402  0.00  0.00    +0.000 A 
ATOM      5  C   UNL     1       3.875   5.192  18.372  0.00  0.00    +0.000 A 
ATOM      6  C   UNL     1       4.111   6.157  17.384  0.00  0.00    +0.000 A 
ATOM      7  C   UNL     1       3.469   7.396  17.452  0.00  0.00    +0.000 A 
ATOM      8  C   UNL     1       2.543   7.682  18.476  0.00  0.00    +0.000 A 
ATOM      9  C   UNL     1       2.283   6.694  19.447  0.00  0.00    +0.000 A 
ENDROOT
BRANCH   6  10
ATOM     10  S   UNL     1       5.427   5.884  16.196  0.00  0.00    +0.000 S 
ATOM     11  O   UNL     1       5.382   4.483  15.826  0.00  0.00    +0.000 OA
ATOM     12  O   UNL     1       5.305   6.918  15.190  0.00  0.00    +0.000 OA
BRANCH  10  13
ATOM     13  N   UNL     1       6.866   6.148  17.005  0.00  0.00    +0.000 NA
ATOM     14  C   UNL     1       7.518   5.135  17.835  0.00  0.00    +0.000 C 
ATOM     15  C   UNL     1       7.943   5.904  19.074  0.00  0.00    +0.000 C 
ATOM     16  C   UNL     1       8.288   7.283  18.535  0.00  0.00    +0.000 C 
ATOM     17  C   UNL     1       7.331   7.493  17.361  0.00  0.00    +0.000 C 
ENDBRANCH  10  13
ENDBRANCH   6  10
BRANCH   1  18
ATOM     18  C   UNL     1       0.547   7.746  20.996  0.00  0.00    +0.000 C 
BRANCH  18  19
ATOM     19  C   UNL     1       1.243   8.908  21.720  0.00  0.00    +0.000 C 
BRANCH  19  21
ATOM     20  N   UNL     1      -0.268  10.194  20.348  0.00  0.00    +0.000 N 
ATOM     21  C   UNL     1       0.781  10.267  21.241  0.00  0.00    +0.000 C 
ATOM     22  O   UNL     1       1.299  11.316  21.608  0.00  0.00    +0.000 OA
ATOM     23  H   UNL     1      -0.654   9.296  20.093  0.00  0.00    +0.000 HD
BRANCH  20  24
ATOM     24  C   UNL     1      -0.897  11.369  19.771  0.00  0.00    +0.000 C 
BRANCH  24  30
ATOM     25  C   UNL     1      -5.321  11.992  17.405  0.00  0.00    +0.000 C 
ATOM     26  C   UNL     1      -3.973  11.336  17.481  0.00  0.00    +0.000 A 
ATOM     27  C   UNL     1      -3.545  10.456  16.479  0.00  0.00    +0.000 A 
ATOM     28  C   UNL     1      -2.285   9.861  16.555  0.00  0.00    +0.000 A 
ATOM     29  C   UNL     1      -1.441  10.141  17.629  0.00  0.00    +0.000 A 
ATOM     30  C   UNL     1      -1.843  11.017  18.646  0.00  0.00    +0.000 A 
ATOM     31  C   UNL     1      -3.115  11.611  18.560  0.00  0.00    +0.000 A 
ENDBRANCH  24  30
ENDBRANCH  20  24
ENDBRANCH  19  21
ENDBRANCH  18  19
ENDBRANCH   1  18
TORSDOF 7
ENDMDL
MODEL 2
REMARK VINA RESULT:      -8.4      2.690      4.515
REMARK  Name = 
REMARK  8 active torsions:
REMARK  status: ('A' for Active; 'I' for Inactive)
REMARK    1  A    between atoms: C_1  and  C_2
REMARK    2  A    between atoms: C_6  and  C_7
REMARK    3  A    between atoms: C_7  and  N_8
REMARK    4  A    between atoms: C_9  and  C_11
REMARK    5  A    between atoms: C_11  and  C_12
REMARK    6  A    between atoms: C_12  and  N_13
REMARK    7  A    between atoms: C_18  and  S_19
REMARK    8  A    between atoms: S_19  and  N_22
REMARK                            x       y       z     vdW  Elec       q    Type
REMARK                         _______ _______ _______ _____ _____    ______ ____
ROOT
ATOM      1  N   UNL     1       1.023  10.028  19.603  0.00  0.00    +0.000 N 
ATOM      2  C   UNL     1       0.588   9.808  20.893  0.00  0.00    +0.000 A 
ATOM      3  C   UNL     1       1.028   8.563  21.287  0.00  0.00    +0.000 A 
ATOM      4  C   UNL     1       1.701   7.968  20.193  0.00  0.00    +0.000 A 
ATOM      5  C   UNL     1       2.331   6.712  20.016  0.00  0.00    +0.000 A 
ATOM      6  C   UNL     1       2.909   6.392  18.780  0.00  0.00    +0.000 A 
ATOM      7  C   UNL     1       2.914   7.335  17.748  0.00  0.00    +0.000 A 
ATOM      8  C   UNL     1       2.300   8.594  17.908  0.00  0.00    +0.000 A 
ATOM      9  C   UNL     1       1.690   8.897  19.142  0.00  0.00    +0.000 A 
ENDROOT
BRANCH   6  10
ATOM     10  S   UNL     1       3.861   4.880  18.629  0.00  0.00    +0.000 S 
ATOM     11  O   UNL     1       4.046   4.634  17.213  0.00  0.00    +0.000 OA
ATOM     12  O   UNL     1       5.002   5.013  19.510  0.00  0.00    +0.000 OA
BRANCH  10  13
ATOM     13  N   UNL     1       2.907   3.650  19.237  0.00  0.00    +0.000 NA
ATOM     14  C   UNL     1       1.603   3.295  18.678  0.00  0.00    +0.000 C 
ATOM     15  C   UNL     1       0.725   3.104  19.903  0.00  0.00    +0.000 C 
ATOM     16  C   UNL     1       1.681   2.528  20.937  0.00  0.00    +0.000 C 
ATOM     17  C   UNL     1       3.032   3.167  20.616  0.00  0.00    +0.000 C 
ENDBRANCH  10  13
ENDBRANCH   6  10
BRANCH   1  18
ATOM     18  C   UNL     1       0.751  11.252  18.842  0.00  0.00    +0.000 C 
BRANCH  18  19
ATOM     19  C   UNL     1      -0.677  11.796  18.998  0.00  0.00    +0.000 C 
BRANCH  19  21
ATOM     20  N   UNL     1      -2.839  11.849  17.928  0.00  0.00    +0.000 N 
ATOM     21  C   UNL     1      -1.672  11.126  18.077  0.00  0.00    +0.000 C 
ATOM     22  O   UNL     1      -1.458  10.049  17.531  0.00  0.00    +0.000 OA
ATOM     23  H   UNL     1      -2.948  12.735  18.401  0.00  0.00    +0.000 HD
BRANCH  20  24
ATOM     24  C   UNL     1      -3.930  11.419  17.073  0.00  0.00    +0.000 C 
BRANCH  24  30
ATOM     25  C   UNL     1      -7.453  11.065  20.682  0.00  0.00    +0.000 C 
ATOM     26  C   UNL     1      -6.977  11.661  19.390  0.00  0.00    +0.000 A 
ATOM     27  C   UNL     1      -7.734  12.635  18.727  0.00  0.00    +0.000 A 
ATOM     28  C   UNL     1      -7.276  13.190  17.531  0.00  0.00    +0.000 A 
ATOM     29  C   UNL     1      -6.058  12.781  16.989  0.00  0.00    +0.000 A 
ATOM     30  C   UNL     1      -5.280  11.808  17.630  0.00  0.00    +0.000 A 
ATOM     31  C   UNL     1      -5.752  11.255  18.834  0.00  0.00    +0.000 A 
ENDBRANCH  24  30
ENDBRANCH  20  24
ENDBRANCH  19  21
ENDBRANCH  18  19
ENDBRANCH   1  18
TORSDOF 7
ENDMDL
MODEL 3
REMARK VINA RESULT:      -8.3      3.290      4.962
REMARK  Name = 
REMARK  8 active torsions:
REMARK  status: ('A' for Active; 'I' for Inactive)
REMARK    1  A    between atoms: C_1  and  C_2
REMARK    2  A    between atoms: C_6  and  C_7
REMARK    3  A    between atoms: C_7  and  N_8
REMARK    4  A    between atoms: C_9  and  C_11
REMARK    5  A    between atoms: C_11  and  C_12
REMARK    6  A    between atoms: C_12  and  N_13
REMARK    7  A    between atoms: C_18  and  S_19
REMARK    8  A    between atoms: S_19  and  N_22
REMARK                            x       y       z     vdW  Elec       q    Type
REMARK                         _______ _______ _______ _____ _____    ______ ____
ROOT
ATOM      1  N   UNL     1       0.237  10.253  20.042  0.00  0.00    +0.000 N 
ATOM      2  C   UNL     1      -0.038   9.824  21.323  0.00  0.00    +0.000 A 
ATOM      3  C   UNL     1       0.662   8.658  21.544  0.00  0.00    +0.000 A 
ATOM      4  C   UNL     1       1.340   8.319  20.349  0.00  0.00    +0.000 A 
ATOM      5  C   UNL     1       2.179   7.237  19.991  0.00  0.00    +0.000 A 
ATOM      6  C   UNL     1       2.700   7.161  18.692  0.00  0.00    +0.000 A 
ATOM      7  C   UNL     1       2.438   8.183  17.775  0.00  0.00    +0.000 A 
ATOM      8  C   UNL     1       1.613   9.274  18.116  0.00  0.00    +0.000 A 
ATOM      9  C   UNL     1       1.064   9.327  19.413  0.00  0.00    +0.000 A 
ENDROOT
BRANCH   6  10
ATOM     10  S   UNL     1       3.905   5.889  18.309  0.00  0.00    +0.000 S 
ATOM     11  O   UNL     1       4.694   6.372  17.194  0.00  0.00    +0.000 OA
ATOM     12  O   UNL     1       4.540   5.522  19.559  0.00  0.00    +0.000 OA
BRANCH  10  13
ATOM     13  N   UNL     1       3.045   4.556  17.782  0.00  0.00    +0.000 NA
ATOM     14  C   UNL     1       1.583   4.494  17.782  0.00  0.00    +0.000 C 
ATOM     15  C   UNL     1       1.282   3.108  18.328  0.00  0.00    +0.000 C 
ATOM     16  C   UNL     1       2.427   2.261  17.795  0.00  0.00    +0.000 C 
ATOM     17  C   UNL     1       3.625   3.210  17.749  0.00  0.00    +0.000 C 
ENDBRANCH  10  13
ENDBRANCH   6  10
BRANCH   1  18
ATOM     18  C   UNL     1      -0.327  11.467  19.443  0.00  0.00    +0.000 C 
BRANCH  18  19
ATOM     19  C   UNL     1      -1.264  11.217  18.253  0.00  0.00    +0.000 C 
BRANCH  19  21
ATOM     20  N   UNL     1      -2.896  12.459  19.524  0.00  0.00    +0.000 N 
ATOM     21  C   UNL     1      -2.720  11.467  18.581  0.00  0.00    +0.000 C 
ATOM     22  O   UNL     1      -3.639  10.841  18.064  0.00  0.00    +0.000 OA
ATOM     23  H   UNL     1      -2.095  12.942  19.905  0.00  0.00    +0.000 HD
BRANCH  20  24
ATOM     24  C   UNL     1      -4.204  12.892  19.979  0.00  0.00    +0.000 C 
BRANCH  24  30
ATOM     25  C   UNL     1      -7.054  13.110  24.149  0.00  0.00    +0.000 C 
ATOM     26  C   UNL     1      -5.712  12.918  23.506  0.00  0.00    +0.000 A 
ATOM     27  C   UNL     1      -4.583  12.614  24.276  0.00  0.00    +0.000 A 
ATOM     28  C   UNL     1      -3.343  12.426  23.665  0.00  0.00    +0.000 A 
ATOM     29  C   UNL     1      -3.220  12.537  22.280  0.00  0.00    +0.000 A 
ATOM     30  C   UNL     1      -4.332  12.841  21.485  0.00  0.00    +0.000 A 
ATOM     31  C   UNL     1      -5.577  13.029  22.111  0.00  0.00    +0.000 A 
ENDBRANCH  24  30
ENDBRANCH  20  24
ENDBRANCH  19  21
ENDBRANCH  18  19
ENDBRANCH   1  18
TORSDOF 7
ENDMDL
MODEL 4
REMARK VINA RESULT:      -8.1      3.519      8.546
REMARK  Name = 
REMARK  8 active torsions:
REMARK  status: ('A' for Active; 'I' for Inactive)
REMARK    1  A    between atoms: C_1  and  C_2
REMARK    2  A    between atoms: C_6  and  C_7
REMARK    3  A    between atoms: C_7  and  N_8
REMARK    4  A    between atoms: C_9  and  C_11
REMARK    5  A    between atoms: C_11  and  C_12
REMARK    6  A    between atoms: C_12  and  N_13
REMARK    7  A    between atoms: C_18  and  S_19
REMARK    8  A    between atoms: S_19  and  N_22
REMARK                            x       y       z     vdW  Elec       q    Type
REMARK                         _______ _______ _______ _____ _____    ______ ____
ROOT
ATOM      1  N   UNL     1       2.237   6.956  19.550  0.00  0.00    +0.000 N 
ATOM      2  C   UNL     1       2.590   7.189  18.237  0.00  0.00    +0.000 A 
ATOM      3  C   UNL     1       2.209   8.472  17.913  0.00  0.00    +0.000 A 
ATOM      4  C   UNL     1       1.546   9.031  19.032  0.00  0.00    +0.000 A 
ATOM      5  C   UNL     1       0.937  10.288  19.263  0.00  0.00    +0.000 A 
ATOM      6  C   UNL     1       0.329  10.550  20.498  0.00  0.00    +0.000 A 
ATOM      7  C   UNL     1       0.379   9.593  21.516  0.00  0.00    +0.000 A 
ATOM      8  C   UNL     1       0.990   8.339  21.309  0.00  0.00    +0.000 A 
ATOM      9  C   UNL     1       1.569   8.070  20.053  0.00  0.00    +0.000 A 
ENDROOT
BRANCH   6  10
ATOM     10  S   UNL     1      -0.273  12.204  20.840  0.00  0.00    +0.000 S 
ATOM     11  O   UNL     1      -1.525  12.356  20.126  0.00  0.00    +0.000 OA
ATOM     12  O   UNL     1      -0.217  12.382  22.276  0.00  0.00    +0.000 OA
BRANCH  10  13
ATOM     13  N   UNL     1       0.828  13.264  20.166  0.00  0.00    +0.000 NA
ATOM     14  C   UNL     1       0.719  13.773  18.799  0.00  0.00    +0.000 C 
ATOM     15  C   UNL     1       2.137  13.673  18.263  0.00  0.00    +0.000 C 
ATOM     16  C   UNL     1       2.998  13.956  19.485  0.00  0.00    +0.000 C 
ATOM     17  C   UNL     1       2.203  13.389  20.661  0.00  0.00    +0.000 C 
ENDBRANCH  10  13
ENDBRANCH   6  10
BRANCH   1  18
ATOM     18  C   UNL     1       2.483   5.694  20.255  0.00  0.00    +0.000 C 
BRANCH  18  19
ATOM     19  C   UNL     1       1.505   4.564  19.902  0.00  0.00    +0.000 C 
BRANCH  19  21
ATOM     20  N   UNL     1       3.308   3.868  18.458  0.00  0.00    +0.000 N 
ATOM     21  C   UNL     1       1.961   3.730  18.725  0.00  0.00    +0.000 C 
ATOM     22  O   UNL     1       1.203   3.017  18.076  0.00  0.00    +0.000 OA
ATOM     23  H   UNL     1       3.880   4.467  19.038  0.00  0.00    +0.000 HD
BRANCH  20  24
ATOM     24  C   UNL     1       3.980   3.147  17.392  0.00  0.00    +0.000 C 
BRANCH  24  30
ATOM     25  C   UNL     1       7.382   6.878  17.658  0.00  0.00    +0.000 C 
ATOM     26  C   UNL     1       6.754   5.748  16.894  0.00  0.00    +0.000 A 
ATOM     27  C   UNL     1       7.231   5.385  15.629  0.00  0.00    +0.000 A 
ATOM     28  C   UNL     1       6.647   4.325  14.934  0.00  0.00    +0.000 A 
ATOM     29  C   UNL     1       5.585   3.619  15.496  0.00  0.00    +0.000 A 
ATOM     30  C   UNL     1       5.086   3.961  16.760  0.00  0.00    +0.000 A 
ATOM     31  C   UNL     1       5.682   5.031  17.451  0.00  0.00    +0.000 A 
ENDBRANCH  24  30
ENDBRANCH  20  24
ENDBRANCH  19  21
ENDBRANCH  18  19
ENDBRANCH   1  18
TORSDOF 7
ENDMDL
MODEL 5
REMARK VINA RESULT:      -8.1      1.682      2.706
REMARK  Name = 
REMARK  8 active torsions:
REMARK  status: ('A' for Active; 'I' for Inactive)
REMARK    1  A    between atoms: C_1  and  C_2
REMARK    2  A    between atoms: C_6  and  C_7
REMARK    3  A    between atoms: C_7  and  N_8
REMARK    4  A    between atoms: C_9  and  C_11
REMARK    5  A    between atoms: C_11  and  C_12
REMARK    6  A    between atoms: C_12  and  N_13
REMARK    7  A    between atoms: C_18  and  S_19
REMARK    8  A    between atoms: S_19  and  N_22
REMARK                            x       y       z     vdW  Elec       q    Type
REMARK                         _______ _______ _______ _____ _____    ______ ____
ROOT
ATOM      1  N   UNL     1       1.243   8.517  19.734  0.00  0.00    +0.000 N 
ATOM      2  C   UNL     1       1.507   9.283  18.617  0.00  0.00    +0.000 A 
ATOM      3  C   UNL     1       2.344   8.564  17.793  0.00  0.00    +0.000 A 
ATOM      4  C   UNL     1       2.659   7.345  18.440  0.00  0.00    +0.000 A 
ATOM      5  C   UNL     1       3.475   6.246  18.081  0.00  0.00    +0.000 A 
ATOM      6  C   UNL     1       3.610   5.163  18.961  0.00  0.00    +0.000 A 
ATOM      7  C   UNL     1       2.893   5.146  20.160  0.00  0.00    +0.000 A 
ATOM      8  C   UNL     1       2.067   6.227  20.531  0.00  0.00    +0.000 A 
ATOM      9  C   UNL     1       1.963   7.328  19.658  0.00  0.00    +0.000 A 
ENDROOT
BRANCH   6  10
ATOM     10  S   UNL     1       4.496   3.702  18.415  0.00  0.00    +0.000 S 
ATOM     11  O   UNL     1       4.963   3.020  19.605  0.00  0.00    +0.000 OA
ATOM     12  O   UNL     1       3.640   3.024  17.463  0.00  0.00    +0.000 OA
BRANCH  10  13
ATOM     13  N   UNL     1       5.838   4.240  17.578  0.00  0.00    +0.000 NA
ATOM     14  C   UNL     1       6.875   5.080  18.178  0.00  0.00    +0.000 C 
ATOM     15  C   UNL     1       7.145   6.132  17.116  0.00  0.00    +0.000 C 
ATOM     16  C   UNL     1       6.950   5.376  15.811  0.00  0.00    +0.000 C 
ATOM     17  C   UNL     1       5.861   4.347  16.115  0.00  0.00    +0.000 C 
ENDBRANCH  10  13
ENDBRANCH   6  10
BRANCH   1  18
ATOM     18  C   UNL     1       0.383   8.948  20.841  0.00  0.00    +0.000 C 
BRANCH  18  19
ATOM     19  C   UNL     1       0.850  10.227  21.551  0.00  0.00    +0.000 C 
BRANCH  19  21
ATOM     20  N   UNL     1      -0.908  11.421  20.410  0.00  0.00    +0.000 N 
ATOM     21  C   UNL     1       0.396  11.492  20.856  0.00  0.00    +0.000 C 
ATOM     22  O   UNL     1       1.121  12.468  20.703  0.00  0.00    +0.000 OA
ATOM     23  H   UNL     1      -1.455  10.589  20.577  0.00  0.00    +0.000 HD
BRANCH  20  24
ATOM     24  C   UNL     1      -1.573  12.522  19.736  0.00  0.00    +0.000 C 
BRANCH  24  30
ATOM     25  C   UNL     1      -2.805  10.518  15.262  0.00  0.00    +0.000 C 
ATOM     26  C   UNL     1      -3.221  11.048  16.602  0.00  0.00    +0.000 A 
ATOM     27  C   UNL     1      -4.565  11.037  16.994  0.00  0.00    +0.000 A 
ATOM     28  C   UNL     1      -4.938  11.522  18.248  0.00  0.00    +0.000 A 
ATOM     29  C   UNL     1      -3.973  12.020  19.122  0.00  0.00    +0.000 A 
ATOM     30  C   UNL     1      -2.621  12.045  18.757  0.00  0.00    +0.000 A 
ATOM     31  C   UNL     1      -2.257  11.554  17.491  0.00  0.00    +0.000 A 
ENDBRANCH  24  30
ENDBRANCH  20  24
ENDBRANCH  19  21
ENDBRANCH  18  19
ENDBRANCH   1  18
TORSDOF 7
ENDMDL
MODEL 6
REMARK VINA RESULT:      -8.0      3.103      4.030
REMARK  Name = 
REMARK  8 active torsions:
REMARK  status: ('A' for Active; 'I' for Inactive)
REMARK    1  A    between atoms: C_1  and  C_2
REMARK    2  A    between atoms: C_6  and  C_7
REMARK    3  A    between atoms: C_7  and  N_8
REMARK    4  A    between atoms: C_9  and  C_11
REMARK    5  A    between atoms: C_11  and  C_12
REMARK    6  A    between atoms: C_12  and  N_13
REMARK    7  A    between atoms: C_18  and  S_19
REMARK    8  A    between atoms: S_19  and  N_22
REMARK                            x       y       z     vdW  Elec       q    Type
REMARK                         _______ _______ _______ _____ _____    ______ ____
ROOT
ATOM      1  N   UNL     1       1.187   8.837  19.853  0.00  0.00    +0.000 N 
ATOM      2  C   UNL     1       1.402   9.644  18.756  0.00  0.00    +0.000 A 
ATOM      3  C   UNL     1       2.199   8.956  17.868  0.00  0.00    +0.000 A 
ATOM      4  C   UNL     1       2.539   7.713  18.453  0.00  0.00    +0.000 A 
ATOM      5  C   UNL     1       3.335   6.627  18.016  0.00  0.00    +0.000 A 
ATOM      6  C   UNL     1       3.507   5.512  18.846  0.00  0.00    +0.000 A 
ATOM      7  C   UNL     1       2.845   5.450  20.076  0.00  0.00    +0.000 A 
ATOM      8  C   UNL     1       2.040   6.517  20.525  0.00  0.00    +0.000 A 
ATOM      9  C   UNL     1       1.899   7.651  19.700  0.00  0.00    +0.000 A 
ENDROOT
BRANCH   6  10
ATOM     10  S   UNL     1       4.362   4.072  18.206  0.00  0.00    +0.000 S 
ATOM     11  O   UNL     1       5.265   3.617  19.244  0.00  0.00    +0.000 OA
ATOM     12  O   UNL     1       3.349   3.187  17.669  0.00  0.00    +0.000 OA
BRANCH  10  13
ATOM     13  N   UNL     1       5.291   4.598  16.920  0.00  0.00    +0.000 NA
ATOM     14  C   UNL     1       4.901   4.418  15.522  0.00  0.00    +0.000 C 
ATOM     15  C   UNL     1       6.182   3.960  14.846  0.00  0.00    +0.000 C 
ATOM     16  C   UNL     1       7.269   4.704  15.606  0.00  0.00    +0.000 C 
ATOM     17  C   UNL     1       6.736   4.820  17.034  0.00  0.00    +0.000 C 
ENDBRANCH  10  13
ENDBRANCH   6  10
BRANCH   1  18
ATOM     18  C   UNL     1       0.380   9.226  21.014  0.00  0.00    +0.000 C 
BRANCH  18  19
ATOM     19  C   UNL     1       0.244  10.742  21.219  0.00  0.00    +0.000 C 
BRANCH  19  21
ATOM     20  N   UNL     1      -1.322  12.281  22.217  0.00  0.00    +0.000 N 
ATOM     21  C   UNL     1      -0.622  11.107  22.404  0.00  0.00    +0.000 C 
ATOM     22  O   UNL     1      -0.681  10.427  23.423  0.00  0.00    +0.000 OA
ATOM     23  H   UNL     1      -1.234  12.789  21.349  0.00  0.00    +0.000 HD
BRANCH  20  24
ATOM     24  C   UNL     1      -2.238  12.820  23.206  0.00  0.00    +0.000 C 
BRANCH  24  30
ATOM     25  C   UNL     1      -7.190  13.133  24.175  0.00  0.00    +0.000 C 
ATOM     26  C   UNL     1      -6.070  12.982  23.188  0.00  0.00    +0.000 A 
ATOM     27  C   UNL     1      -6.329  12.903  21.814  0.00  0.00    +0.000 A 
ATOM     28  C   UNL     1      -5.278  12.774  20.905  0.00  0.00    +0.000 A 
ATOM     29  C   UNL     1      -3.961  12.727  21.358  0.00  0.00    +0.000 A 
ATOM     30  C   UNL     1      -3.671  12.803  22.727  0.00  0.00    +0.000 A 
ATOM     31  C   UNL     1      -4.738  12.932  23.634  0.00  0.00    +0.000 A 
ENDBRANCH  24  30
ENDBRANCH  20  24
ENDBRANCH  19  21
ENDBRANCH  18  19
ENDBRANCH   1  18
TORSDOF 7
ENDMDL
MODEL 7
REMARK VINA RESULT:      -8.0      2.326      3.081
REMARK  Name = 
REMARK  8 active torsions:
REMARK  status: ('A' for Active; 'I' for Inactive)
REMARK    1  A    between atoms: C_1  and  C_2
REMARK    2  A    between atoms: C_6  and  C_7
REMARK    3  A    between atoms: C_7  and  N_8
REMARK    4  A    between atoms: C_9  and  C_11
REMARK    5  A    between atoms: C_11  and  C_12
REMARK    6  A    between atoms: C_12  and  N_13
REMARK    7  A    between atoms: C_18  and  S_19
REMARK    8  A    between atoms: S_19  and  N_22
REMARK                            x       y       z     vdW  Elec       q    Type
REMARK                         _______ _______ _______ _____ _____    ______ ____
ROOT
ATOM      1  N   UNL     1       2.382   5.087  19.723  0.00  0.00    +0.000 N 
ATOM      2  C   UNL     1       2.593   3.851  20.298  0.00  0.00    +0.000 A 
ATOM      3  C   UNL     1       3.761   3.334  19.784  0.00  0.00    +0.000 A 
ATOM      4  C   UNL     1       4.259   4.243  18.820  0.00  0.00    +0.000 A 
ATOM      5  C   UNL     1       5.395   4.226  17.975  0.00  0.00    +0.000 A 
ATOM      6  C   UNL     1       5.618   5.289  17.089  0.00  0.00    +0.000 A 
ATOM      7  C   UNL     1       4.752   6.387  17.085  0.00  0.00    +0.000 A 
ATOM      8  C   UNL     1       3.621   6.427  17.926  0.00  0.00    +0.000 A 
ATOM      9  C   UNL     1       3.384   5.339  18.790  0.00  0.00    +0.000 A 
ENDROOT
BRANCH   6  10
ATOM     10  S   UNL     1       7.151   5.343  16.161  0.00  0.00    +0.000 S 
ATOM     11  O   UNL     1       7.686   6.682  16.302  0.00  0.00    +0.000 OA
ATOM     12  O   UNL     1       7.929   4.191  16.569  0.00  0.00    +0.000 OA
BRANCH  10  13
ATOM     13  N   UNL     1       6.748   5.123  14.554  0.00  0.00    +0.000 NA
ATOM     14  C   UNL     1       5.596   4.335  14.117  0.00  0.00    +0.000 C 
ATOM     15  C   UNL     1       6.140   3.512  12.962  0.00  0.00    +0.000 C 
ATOM     16  C   UNL     1       7.158   4.439  12.315  0.00  0.00    +0.000 C 
ATOM     17  C   UNL     1       7.729   5.258  13.473  0.00  0.00    +0.000 C 
ENDBRANCH  10  13
ENDBRANCH   6  10
BRANCH   1  18
ATOM     18  C   UNL     1       1.234   5.948  20.025  0.00  0.00    +0.000 C 
BRANCH  18  19
ATOM     19  C   UNL     1       1.425   6.865  21.242  0.00  0.00    +0.000 C 
BRANCH  19  21
ATOM     20  N   UNL     1       1.388   8.556  19.522  0.00  0.00    +0.000 N 
ATOM     21  C   UNL     1       1.426   8.335  20.883  0.00  0.00    +0.000 C 
ATOM     22  O   UNL     1       1.466   9.227  21.723  0.00  0.00    +0.000 OA
ATOM     23  H   UNL     1       1.348   7.774  18.883  0.00  0.00    +0.000 HD
BRANCH  20  24
ATOM     24  C   UNL     1       1.356   9.885  18.939  0.00  0.00    +0.000 C 
BRANCH  24  30
ATOM     25  C   UNL     1      -2.993   9.788  16.362  0.00  0.00    +0.000 C 
ATOM     26  C   UNL     1      -2.173  10.320  17.502  0.00  0.00    +0.000 A 
ATOM     27  C   UNL     1      -2.723  11.218  18.424  0.00  0.00    +0.000 A 
ATOM     28  C   UNL     1      -1.955  11.697  19.486  0.00  0.00    +0.000 A 
ATOM     29  C   UNL     1      -0.633  11.281  19.638  0.00  0.00    +0.000 A 
ATOM     30  C   UNL     1      -0.055  10.384  18.729  0.00  0.00    +0.000 A 
ATOM     31  C   UNL     1      -0.839   9.909  17.663  0.00  0.00    +0.000 A 
ENDBRANCH  24  30
ENDBRANCH  20  24
ENDBRANCH  19  21
ENDBRANCH  18  19
ENDBRANCH   1  18
TORSDOF 7
ENDMDL
MODEL 8
REMARK VINA RESULT:      -7.9      1.073      1.705
REMARK  Name = 
REMARK  8 active torsions:
REMARK  status: ('A' for Active; 'I' for Inactive)
REMARK    1  A    between atoms: C_1  and  C_2
REMARK    2  A    between atoms: C_6  and  C_7
REMARK    3  A    between atoms: C_7  and  N_8
REMARK    4  A    between atoms: C_9  and  C_11
REMARK    5  A    between atoms: C_11  and  C_12
REMARK    6  A    between atoms: C_12  and  N_13
REMARK    7  A    between atoms: C_18  and  S_19
REMARK    8  A    between atoms: S_19  and  N_22
REMARK                            x       y       z     vdW  Elec       q    Type
REMARK                         _______ _______ _______ _____ _____    ______ ____
ROOT
ATOM      1  N   UNL     1       1.419   8.290  20.017  0.00  0.00    +0.000 N 
ATOM      2  C   UNL     1       1.227   7.346  21.004  0.00  0.00    +0.000 A 
ATOM      3  C   UNL     1       1.998   6.246  20.700  0.00  0.00    +0.000 A 
ATOM      4  C   UNL     1       2.638   6.485  19.461  0.00  0.00    +0.000 A 
ATOM      5  C   UNL     1       3.517   5.713  18.664  0.00  0.00    +0.000 A 
ATOM      6  C   UNL     1       3.982   6.224  17.445  0.00  0.00    +0.000 A 
ATOM      7  C   UNL     1       3.624   7.516  17.049  0.00  0.00    +0.000 A 
ATOM      8  C   UNL     1       2.758   8.305  17.833  0.00  0.00    +0.000 A 
ATOM      9  C   UNL     1       2.266   7.771  19.041  0.00  0.00    +0.000 A 
ENDROOT
BRANCH   6  10
ATOM     10  S   UNL     1       5.235   5.315  16.540  0.00  0.00    +0.000 S 
ATOM     11  O   UNL     1       5.006   3.907  16.796  0.00  0.00    +0.000 OA
ATOM     12  O   UNL     1       5.230   5.829  15.186  0.00  0.00    +0.000 OA
BRANCH  10  13
ATOM     13  N   UNL     1       6.707   5.722  17.218  0.00  0.00    +0.000 NA
ATOM     14  C   UNL     1       7.459   4.828  18.098  0.00  0.00    +0.000 C 
ATOM     15  C   UNL     1       7.924   5.737  19.223  0.00  0.00    +0.000 C 
ATOM     16  C   UNL     1       8.166   7.067  18.526  0.00  0.00    +0.000 C 
ATOM     17  C   UNL     1       7.127   7.114  17.405  0.00  0.00    +0.000 C 
ENDBRANCH  10  13
ENDBRANCH   6  10
BRANCH   1  18
ATOM     18  C   UNL     1       0.765   9.602  19.996  0.00  0.00    +0.000 C 
BRANCH  18  19
ATOM     19  C   UNL     1       0.866  10.387  21.313  0.00  0.00    +0.000 C 
BRANCH  19  21
ATOM     20  N   UNL     1      -1.096  11.460  20.405  0.00  0.00    +0.000 N 
ATOM     21  C   UNL     1      -0.267  11.372  21.505  0.00  0.00    +0.000 C 
ATOM     22  O   UNL     1      -0.417  12.025  22.532  0.00  0.00    +0.000 OA
ATOM     23  H   UNL     1      -0.920  10.886  19.593  0.00  0.00    +0.000 HD
BRANCH  20  24
ATOM     24  C   UNL     1      -2.265  12.319  20.365  0.00  0.00    +0.000 C 
BRANCH  24  30
ATOM     25  C   UNL     1      -2.769  10.665  15.614  0.00  0.00    +0.000 C 
ATOM     26  C   UNL     1      -3.384  11.225  16.863  0.00  0.00    +0.000 A 
ATOM     27  C   UNL     1      -4.766  11.433  16.953  0.00  0.00    +0.000 A 
ATOM     28  C   UNL     1      -5.327  11.944  18.124  0.00  0.00    +0.000 A 
ATOM     29  C   UNL     1      -4.516  12.248  19.215  0.00  0.00    +0.000 A 
ATOM     30  C   UNL     1      -3.130  12.051  19.154  0.00  0.00    +0.000 A 
ATOM     31  C   UNL     1      -2.575  11.537  17.969  0.00  0.00    +0.000 A 
ENDBRANCH  24  30
ENDBRANCH  20  24
ENDBRANCH  19  21
ENDBRANCH  18  19
ENDBRANCH   1  18
TORSDOF 7
ENDMDL
MODEL 9
REMARK VINA RESULT:      -7.9      2.806      4.675
REMARK  Name = 
REMARK  8 active torsions:
REMARK  status: ('A' for Active; 'I' for Inactive)
REMARK    1  A    between atoms: C_1  and  C_2
REMARK    2  A    between atoms: C_6  and  C_7
REMARK    3  A    between atoms: C_7  and  N_8
REMARK    4  A    between atoms: C_9  and  C_11
REMARK    5  A    between atoms: C_11  and  C_12
REMARK    6  A    between atoms: C_12  and  N_13
REMARK    7  A    between atoms: C_18  and  S_19
REMARK    8  A    between atoms: S_19  and  N_22
REMARK                            x       y       z     vdW  Elec       q    Type
REMARK                         _______ _______ _______ _____ _____    ______ ____
ROOT
ATOM      1  N   UNL     1       0.709  10.332  19.458  0.00  0.00    +0.000 N 
ATOM      2  C   UNL     1       0.233  10.134  20.737  0.00  0.00    +0.000 A 
ATOM      3  C   UNL     1       0.713   8.924  21.190  0.00  0.00    +0.000 A 
ATOM      4  C   UNL     1       1.456   8.326  20.144  0.00  0.00    +0.000 A 
ATOM      5  C   UNL     1       2.149   7.097  20.035  0.00  0.00    +0.000 A 
ATOM      6  C   UNL     1       2.791   6.765  18.834  0.00  0.00    +0.000 A 
ATOM      7  C   UNL     1       2.794   7.673  17.771  0.00  0.00    +0.000 A 
ATOM      8  C   UNL     1       2.118   8.906  17.864  0.00  0.00    +0.000 A 
ATOM      9  C   UNL     1       1.445   9.219  19.062  0.00  0.00    +0.000 A 
ENDROOT
BRANCH   6  10
ATOM     10  S   UNL     1       3.816   5.295  18.771  0.00  0.00    +0.000 S 
ATOM     11  O   UNL     1       4.157   5.073  17.380  0.00  0.00    +0.000 OA
ATOM     12  O   UNL     1       4.854   5.464  19.767  0.00  0.00    +0.000 OA
BRANCH  10  13
ATOM     13  N   UNL     1       2.857   4.019  19.268  0.00  0.00    +0.000 NA
ATOM     14  C   UNL     1       1.485   3.818  18.802  0.00  0.00    +0.000 C 
ATOM     15  C   UNL     1       0.724   3.458  20.066  0.00  0.00    +0.000 C 
ATOM     16  C   UNL     1       1.743   2.677  20.882  0.00  0.00    +0.000 C 
ATOM     17  C   UNL     1       3.091   3.305  20.528  0.00  0.00    +0.000 C 
ENDBRANCH  10  13
ENDBRANCH   6  10
BRANCH   1  18
ATOM     18  C   UNL     1       0.412  11.516  18.646  0.00  0.00    +0.000 C 
BRANCH  18  19
ATOM     19  C   UNL     1      -0.969  12.138  18.904  0.00  0.00    +0.000 C 
BRANCH  19  21
ATOM     20  N   UNL     1      -3.252  11.399  18.652  0.00  0.00    +0.000 N 
ATOM     21  C   UNL     1      -2.048  11.582  18.001  0.00  0.00    +0.000 C 
ATOM     22  O   UNL     1      -1.860  11.317  16.819  0.00  0.00    +0.000 OA
ATOM     23  H   UNL     1      -3.342  11.646  19.627  0.00  0.00    +0.000 HD
BRANCH  20  24
ATOM     24  C   UNL     1      -4.441  10.901  17.986  0.00  0.00    +0.000 C 
BRANCH  24  30
ATOM     25  C   UNL     1      -7.393  14.642  16.296  0.00  0.00    +0.000 C 
ATOM     26  C   UNL     1      -7.076  13.613  17.342  0.00  0.00    +0.000 A 
ATOM     27  C   UNL     1      -7.909  13.439  18.454  0.00  0.00    +0.000 A 
ATOM     28  C   UNL     1      -7.610  12.472  19.414  0.00  0.00    +0.000 A 
ATOM     29  C   UNL     1      -6.479  11.669  19.271  0.00  0.00    +0.000 A 
ATOM     30  C   UNL     1      -5.627  11.821  18.169  0.00  0.00    +0.000 A 
ATOM     31  C   UNL     1      -5.938  12.800  17.208  0.00  0.00    +0.000 A 
ENDBRANCH  24  30
ENDBRANCH  20  24
ENDBRANCH  19  21
ENDBRANCH  18  19
ENDBRANCH   1  18
TORSDOF 7
ENDMDL
