MODEL 1
REMARK VINA RESULT:      -7.8      0.000      0.000
REMARK  Name = 
REMARK  4 active torsions:
REMARK  status: ('A' for Active; 'I' for Inactive)
REMARK    1  A    between atoms: N_3  and  C_4
REMARK    2  A    between atoms: C_7  and  O_8
REMARK    3  A    between atoms: O_8  and  C_9
REMARK    4  A    between atoms: C_23  and  C_25
REMARK                            x       y       z     vdW  Elec       q    Type
REMARK                         _______ _______ _______ _____ _____    ______ ____
ROOT
ATOM      1  O   UNL     1      -0.032   9.600  18.151  0.00  0.00    +0.000 OA
ATOM      2  C   UNL     1       0.518  10.022  19.168  0.00  0.00    +0.000 C 
ATOM      3  N   UNL     1       1.364   9.271  19.956  0.00  0.00    +0.000 N 
ATOM      4  N   UNL     1       0.264  11.308  19.631  0.00  0.00    +0.000 N 
ATOM      5  C   UNL     1      -0.829  12.043  18.995  0.00  0.00    +0.000 C 
ATOM      6  C   UNL     1      -0.319  13.272  18.263  0.00  0.00    +0.000 C 
ATOM      7  C   UNL     1       0.500  14.136  19.211  0.00  0.00    +0.000 C 
ATOM      8  C   UNL     1       1.677  13.357  19.861  0.00  0.00    +0.000 C 
ATOM      9  C   UNL     1       2.753  12.921  18.829  0.00  0.00    +0.000 C 
ATOM     10  C   UNL     1       3.486  14.105  18.201  0.00  0.00    +0.000 C 
ATOM     11  N   UNL     1       4.052  14.965  19.242  0.00  0.00    +0.000 N 
ATOM     12  C   UNL     1       5.414  15.280  19.168  0.00  0.00    +0.000 C 
ATOM     13  O   UNL     1       6.131  14.870  18.256  0.00  0.00    +0.000 OA
ATOM     14  C   UNL     1       3.072  15.463  20.211  0.00  0.00    +0.000 C 
ATOM     15  C   UNL     1       2.370  14.281  20.896  0.00  0.00    +0.000 C 
ATOM     16  C   UNL     1       1.101  12.090  20.556  0.00  0.00    +0.000 C 
ATOM     17  H   UNL     1       1.403   9.553  20.924  0.00  0.00    +0.000 HD
ENDROOT
BRANCH  12  18
ATOM     18  C   UNL     1       6.057  16.140  20.182  0.00  0.00    +0.000 A 
ATOM     19  C   UNL     1       6.186  15.761  21.517  0.00  0.00    +0.000 A 
ATOM     20  F   UNL     1       5.791  14.552  21.938  0.00  0.00    +0.000 F 
ATOM     21  C   UNL     1       6.723  16.631  22.466  0.00  0.00    +0.000 A 
ATOM     22  C   UNL     1       7.240  17.860  22.068  0.00  0.00    +0.000 A 
ATOM     23  C   UNL     1       7.219  18.207  20.718  0.00  0.00    +0.000 A 
ATOM     24  C   UNL     1       6.620  17.356  19.787  0.00  0.00    +0.000 A 
ATOM     25  F   UNL     1       6.591  17.756  18.508  0.00  0.00    +0.000 F 
ENDBRANCH  12  18
BRANCH   3  26
ATOM     26  C   UNL     1       1.792   7.953  19.669  0.00  0.00    +0.000 A 
ATOM     27  C   UNL     1       2.458   7.607  18.495  0.00  0.00    +0.000 A 
ATOM     28  C   UNL     1       2.821   6.280  18.248  0.00  0.00    +0.000 A 
ATOM     29  C   UNL     1       2.545   5.282  19.180  0.00  0.00    +0.000 A 
ATOM     30  C   UNL     1       1.873   5.620  20.352  0.00  0.00    +0.000 A 
ATOM     31  C   UNL     1       1.516   6.953  20.607  0.00  0.00    +0.000 A 
BRANCH  29  32
ATOM     32  O   UNL     1       2.890   4.025  18.792  0.00  0.00    +0.000 OA
BRANCH  32  33
ATOM     33  C   UNL     1       1.882   3.150  18.302  0.00  0.00    +0.000 C 
ATOM     34  F   UNL     1       2.318   2.220  17.433  0.00  0.00    +0.000 F 
ATOM     35  F   UNL     1       1.304   2.525  19.352  0.00  0.00    +0.000 F 
ATOM     36  F   UNL     1       0.933   3.891  17.686  0.00  0.00    +0.000 F 
ENDBRANCH  32  33
ENDBRANCH  29  32
ENDBRANCH   3  26
TORSDOF 4
ENDMDL
MODEL 2
REMARK VINA RESULT:      -7.8      0.373      1.122
REMARK  Name = 
REMARK  4 active torsions:
REMARK  status: ('A' for Active; 'I' for Inactive)
REMARK    1  A    between atoms: N_3  and  C_4
REMARK    2  A    between atoms: C_7  and  O_8
REMARK    3  A    between atoms: O_8  and  C_9
REMARK    4  A    between atoms: C_23  and  C_25
REMARK                            x       y       z     vdW  Elec       q    Type
REMARK                         _______ _______ _______ _____ _____    ______ ____
ROOT
ATOM      1  O   UNL     1      -0.105   9.708  18.257  0.00  0.00    +0.000 OA
ATOM      2  C   UNL     1       0.485  10.119  19.255  0.00  0.00    +0.000 C 
ATOM      3  N   UNL     1       1.335   9.347  20.020  0.00  0.00    +0.000 N 
ATOM      4  N   UNL     1       0.279  11.412  19.723  0.00  0.00    +0.000 N 
ATOM      5  C   UNL     1      -0.813  12.174  19.118  0.00  0.00    +0.000 C 
ATOM      6  C   UNL     1      -0.293  13.387  18.367  0.00  0.00    +0.000 C 
ATOM      7  C   UNL     1       0.576  14.231  19.288  0.00  0.00    +0.000 C 
ATOM      8  C   UNL     1       1.751  13.423  19.905  0.00  0.00    +0.000 C 
ATOM      9  C   UNL     1       2.784  12.957  18.842  0.00  0.00    +0.000 C 
ATOM     10  C   UNL     1       3.529  14.121  18.190  0.00  0.00    +0.000 C 
ATOM     11  N   UNL     1       4.147  14.968  19.210  0.00  0.00    +0.000 N 
ATOM     12  C   UNL     1       5.514  15.247  19.095  0.00  0.00    +0.000 C 
ATOM     13  O   UNL     1       6.193  14.817  18.163  0.00  0.00    +0.000 OA
ATOM     14  C   UNL     1       3.210  15.493  20.207  0.00  0.00    +0.000 C 
ATOM     15  C   UNL     1       2.498  14.331  20.916  0.00  0.00    +0.000 C 
ATOM     16  C   UNL     1       1.163  12.174  20.620  0.00  0.00    +0.000 C 
ATOM     17  H   UNL     1       1.410   9.630  20.986  0.00  0.00    +0.000 HD
ENDROOT
BRANCH  12  18
ATOM     18  C   UNL     1       6.209  16.091  20.087  0.00  0.00    +0.000 A 
ATOM     19  C   UNL     1       6.400  15.697  21.410  0.00  0.00    +0.000 A 
ATOM     20  F   UNL     1       6.018  14.485  21.836  0.00  0.00    +0.000 F 
ATOM     21  C   UNL     1       6.986  16.553  22.342  0.00  0.00    +0.000 A 
ATOM     22  C   UNL     1       7.490  17.784  21.934  0.00  0.00    +0.000 A 
ATOM     23  C   UNL     1       7.407  18.147  20.591  0.00  0.00    +0.000 A 
ATOM     24  C   UNL     1       6.760  17.309  19.680  0.00  0.00    +0.000 A 
ATOM     25  F   UNL     1       6.672  17.725  18.408  0.00  0.00    +0.000 F 
ENDBRANCH  12  18
BRANCH   3  26
ATOM     26  C   UNL     1       1.719   8.018  19.724  0.00  0.00    +0.000 A 
ATOM     27  C   UNL     1       1.541   6.957  20.611  0.00  0.00    +0.000 A 
ATOM     28  C   UNL     1       1.978   5.673  20.279  0.00  0.00    +0.000 A 
ATOM     29  C   UNL     1       2.579   5.421  19.047  0.00  0.00    +0.000 A 
ATOM     30  C   UNL     1       2.767   6.478  18.159  0.00  0.00    +0.000 A 
ATOM     31  C   UNL     1       2.320   7.767  18.486  0.00  0.00    +0.000 A 
BRANCH  29  32
ATOM     32  O   UNL     1       3.017   4.146  18.874  0.00  0.00    +0.000 OA
BRANCH  32  33
ATOM     33  C   UNL     1       2.296   3.276  18.011  0.00  0.00    +0.000 C 
ATOM     34  F   UNL     1       0.979   3.534  17.923  0.00  0.00    +0.000 F 
ATOM     35  F   UNL     1       2.835   3.350  16.773  0.00  0.00    +0.000 F 
ATOM     36  F   UNL     1       2.448   2.007  18.455  0.00  0.00    +0.000 F 
ENDBRANCH  32  33
ENDBRANCH  29  32
ENDBRANCH   3  26
TORSDOF 4
ENDMDL
MODEL 3
REMARK VINA RESULT:      -7.7      4.153      6.083
REMARK  Name = 
REMARK  4 active torsions:
REMARK  status: ('A' for Active; 'I' for Inactive)
REMARK    1  A    between atoms: N_3  and  C_4
REMARK    2  A    between atoms: C_7  and  O_8
REMARK    3  A    between atoms: O_8  and  C_9
REMARK    4  A    between atoms: C_23  and  C_25
REMARK                            x       y       z     vdW  Elec       q    Type
REMARK                         _______ _______ _______ _____ _____    ______ ____
ROOT
ATOM      1  O   UNL     1       1.038  15.199  19.297  0.00  0.00    +0.000 OA
ATOM      2  C   UNL     1       1.857  14.587  19.982  0.00  0.00    +0.000 C 
ATOM      3  N   UNL     1       1.768  13.243  20.273  0.00  0.00    +0.000 N 
ATOM      4  N   UNL     1       2.927  15.251  20.572  0.00  0.00    +0.000 N 
ATOM      5  C   UNL     1       2.914  16.712  20.526  0.00  0.00    +0.000 C 
ATOM      6  C   UNL     1       4.071  17.252  19.704  0.00  0.00    +0.000 C 
ATOM      7  C   UNL     1       5.384  16.691  20.229  0.00  0.00    +0.000 C 
ATOM      8  C   UNL     1       5.403  15.137  20.249  0.00  0.00    +0.000 C 
ATOM      9  C   UNL     1       5.346  14.517  18.825  0.00  0.00    +0.000 C 
ATOM     10  C   UNL     1       6.591  14.823  17.995  0.00  0.00    +0.000 C 
ATOM     11  N   UNL     1       7.798  14.414  18.715  0.00  0.00    +0.000 N 
ATOM     12  C   UNL     1       8.705  13.574  18.059  0.00  0.00    +0.000 C 
ATOM     13  O   UNL     1       8.522  13.190  16.903  0.00  0.00    +0.000 OA
ATOM     14  C   UNL     1       7.942  15.018  20.042  0.00  0.00    +0.000 C 
ATOM     15  C   UNL     1       6.724  14.667  20.910  0.00  0.00    +0.000 C 
ATOM     16  C   UNL     1       4.175  14.643  21.064  0.00  0.00    +0.000 C 
ATOM     17  H   UNL     1       2.214  12.965  21.135  0.00  0.00    +0.000 HD
ENDROOT
BRANCH  12  18
ATOM     18  C   UNL     1       9.943  13.116  18.720  0.00  0.00    +0.000 A 
ATOM     19  C   UNL     1      11.089  13.903  18.799  0.00  0.00    +0.000 A 
ATOM     20  F   UNL     1      11.103  15.160  18.332  0.00  0.00    +0.000 F 
ATOM     21  C   UNL     1      12.269  13.409  19.356  0.00  0.00    +0.000 A 
ATOM     22  C   UNL     1      12.284  12.148  19.944  0.00  0.00    +0.000 A 
ATOM     23  C   UNL     1      11.114  11.392  19.973  0.00  0.00    +0.000 A 
ATOM     24  C   UNL     1       9.957  11.871  19.354  0.00  0.00    +0.000 A 
ATOM     25  F   UNL     1       8.870  11.086  19.376  0.00  0.00    +0.000 F 
ENDBRANCH  12  18
BRANCH   3  26
ATOM     26  C   UNL     1       0.788  12.360  19.762  0.00  0.00    +0.000 A 
ATOM     27  C   UNL     1       1.096  11.253  18.972  0.00  0.00    +0.000 A 
ATOM     28  C   UNL     1       0.081  10.440  18.461  0.00  0.00    +0.000 A 
ATOM     29  C   UNL     1      -1.256  10.703  18.751  0.00  0.00    +0.000 A 
ATOM     30  C   UNL     1      -1.571  11.812  19.534  0.00  0.00    +0.000 A 
ATOM     31  C   UNL     1      -0.554  12.625  20.056  0.00  0.00    +0.000 A 
BRANCH  29  32
ATOM     32  O   UNL     1      -2.147   9.878  18.141  0.00  0.00    +0.000 OA
BRANCH  32  33
ATOM     33  C   UNL     1      -2.921  10.373  17.055  0.00  0.00    +0.000 C 
ATOM     34  F   UNL     1      -2.330  11.346  16.340  0.00  0.00    +0.000 F 
ATOM     35  F   UNL     1      -3.214   9.343  16.229  0.00  0.00    +0.000 F 
ATOM     36  F   UNL     1      -4.086  10.857  17.544  0.00  0.00    +0.000 F 
ENDBRANCH  32  33
ENDBRANCH  29  32
ENDBRANCH   3  26
TORSDOF 4
ENDMDL
MODEL 4
REMARK VINA RESULT:      -7.6      0.565      1.316
REMARK  Name = 
REMARK  4 active torsions:
REMARK  status: ('A' for Active; 'I' for Inactive)
REMARK    1  A    between atoms: N_3  and  C_4
REMARK    2  A    between atoms: C_7  and  O_8
REMARK    3  A    between atoms: O_8  and  C_9
REMARK    4  A    between atoms: C_23  and  C_25
REMARK                            x       y       z     vdW  Elec       q    Type
REMARK                         _______ _______ _______ _____ _____    ______ ____
ROOT
ATOM      1  O   UNL     1      -0.078   9.679  18.257  0.00  0.00    +0.000 OA
ATOM      2  C   UNL     1       0.490  10.069  19.277  0.00  0.00    +0.000 C 
ATOM      3  N   UNL     1       1.357   9.296  20.021  0.00  0.00    +0.000 N 
ATOM      4  N   UNL     1       0.237  11.335  19.791  0.00  0.00    +0.000 N 
ATOM      5  C   UNL     1      -0.873  12.085  19.204  0.00  0.00    +0.000 C 
ATOM      6  C   UNL     1      -0.386  13.342  18.507  0.00  0.00    +0.000 C 
ATOM      7  C   UNL     1       0.447  14.178  19.467  0.00  0.00    +0.000 C 
ATOM      8  C   UNL     1       1.641  13.385  20.066  0.00  0.00    +0.000 C 
ATOM      9  C   UNL     1       2.699  12.993  18.997  0.00  0.00    +0.000 C 
ATOM     10  C   UNL     1       3.412  14.204  18.397  0.00  0.00    +0.000 C 
ATOM     11  N   UNL     1       3.993  15.030  19.456  0.00  0.00    +0.000 N 
ATOM     12  C   UNL     1       5.351  15.357  19.367  0.00  0.00    +0.000 C 
ATOM     13  O   UNL     1       6.053  14.985  18.425  0.00  0.00    +0.000 OA
ATOM     14  C   UNL     1       3.031  15.486  20.462  0.00  0.00    +0.000 C 
ATOM     15  C   UNL     1       2.350  14.276  21.119  0.00  0.00    +0.000 C 
ATOM     16  C   UNL     1       1.088  12.090  20.726  0.00  0.00    +0.000 C 
ATOM     17  H   UNL     1       1.414   9.543  20.997  0.00  0.00    +0.000 HD
ENDROOT
BRANCH  12  18
ATOM     18  C   UNL     1       6.010  16.185  20.397  0.00  0.00    +0.000 A 
ATOM     19  C   UNL     1       5.791  17.555  20.515  0.00  0.00    +0.000 A 
ATOM     20  F   UNL     1       4.906  18.188  19.732  0.00  0.00    +0.000 F 
ATOM     21  C   UNL     1       6.493  18.322  21.445  0.00  0.00    +0.000 A 
ATOM     22  C   UNL     1       7.351  17.703  22.349  0.00  0.00    +0.000 A 
ATOM     23  C   UNL     1       7.496  16.318  22.317  0.00  0.00    +0.000 A 
ATOM     24  C   UNL     1       6.838  15.569  21.339  0.00  0.00    +0.000 A 
ATOM     25  F   UNL     1       7.044  14.244  21.328  0.00  0.00    +0.000 F 
ENDBRANCH  12  18
BRANCH   3  26
ATOM     26  C   UNL     1       1.787   7.992  19.678  0.00  0.00    +0.000 A 
ATOM     27  C   UNL     1       2.419   7.690  18.474  0.00  0.00    +0.000 A 
ATOM     28  C   UNL     1       2.786   6.376  18.173  0.00  0.00    +0.000 A 
ATOM     29  C   UNL     1       2.548   5.345  19.080  0.00  0.00    +0.000 A 
ATOM     30  C   UNL     1       1.909   5.639  20.283  0.00  0.00    +0.000 A 
ATOM     31  C   UNL     1       1.549   6.960  20.591  0.00  0.00    +0.000 A 
BRANCH  29  32
ATOM     32  O   UNL     1       2.891   4.105  18.642  0.00  0.00    +0.000 OA
BRANCH  32  33
ATOM     33  C   UNL     1       1.878   3.240  18.145  0.00  0.00    +0.000 C 
ATOM     34  F   UNL     1       2.312   2.293  17.294  0.00  0.00    +0.000 F 
ATOM     35  F   UNL     1       1.274   2.636  19.193  0.00  0.00    +0.000 F 
ATOM     36  F   UNL     1       0.950   3.988  17.506  0.00  0.00    +0.000 F 
ENDBRANCH  32  33
ENDBRANCH  29  32
ENDBRANCH   3  26
TORSDOF 4
ENDMDL
MODEL 5
REMARK VINA RESULT:      -7.6      4.194      6.085
REMARK  Name = 
REMARK  4 active torsions:
REMARK  status: ('A' for Active; 'I' for Inactive)
REMARK    1  A    between atoms: N_3  and  C_4
REMARK    2  A    between atoms: C_7  and  O_8
REMARK    3  A    between atoms: O_8  and  C_9
REMARK    4  A    between atoms: C_23  and  C_25
REMARK                            x       y       z     vdW  Elec       q    Type
REMARK                         _______ _______ _______ _____ _____    ______ ____
ROOT
ATOM      1  O   UNL     1       1.128  15.443  19.385  0.00  0.00    +0.000 OA
ATOM      2  C   UNL     1       1.927  14.789  20.055  0.00  0.00    +0.000 C 
ATOM      3  N   UNL     1       1.783  13.447  20.333  0.00  0.00    +0.000 N 
ATOM      4  N   UNL     1       3.030  15.399  20.641  0.00  0.00    +0.000 N 
ATOM      5  C   UNL     1       3.080  16.861  20.611  0.00  0.00    +0.000 C 
ATOM      6  C   UNL     1       4.251  17.359  19.783  0.00  0.00    +0.000 C 
ATOM      7  C   UNL     1       5.544  16.735  20.288  0.00  0.00    +0.000 C 
ATOM      8  C   UNL     1       5.495  15.183  20.291  0.00  0.00    +0.000 C 
ATOM      9  C   UNL     1       5.398  14.581  18.862  0.00  0.00    +0.000 C 
ATOM     10  C   UNL     1       6.648  14.841  18.023  0.00  0.00    +0.000 C 
ATOM     11  N   UNL     1       7.842  14.373  18.726  0.00  0.00    +0.000 N 
ATOM     12  C   UNL     1       8.705  13.501  18.052  0.00  0.00    +0.000 C 
ATOM     13  O   UNL     1       8.494  13.139  16.894  0.00  0.00    +0.000 OA
ATOM     14  C   UNL     1       8.025  14.955  20.058  0.00  0.00    +0.000 C 
ATOM     15  C   UNL     1       6.801  14.648  20.935  0.00  0.00    +0.000 C 
ATOM     16  C   UNL     1       4.255  14.733  21.114  0.00  0.00    +0.000 C 
ATOM     17  H   UNL     1       2.224  13.141  21.187  0.00  0.00    +0.000 HD
ENDROOT
BRANCH  12  18
ATOM     18  C   UNL     1       9.928  12.983  18.696  0.00  0.00    +0.000 A 
ATOM     19  C   UNL     1       9.956  11.784  19.404  0.00  0.00    +0.000 A 
ATOM     20  F   UNL     1       8.875  10.995  19.478  0.00  0.00    +0.000 F 
ATOM     21  C   UNL     1      11.106  11.365  20.073  0.00  0.00    +0.000 A 
ATOM     22  C   UNL     1      12.285  12.095  19.950  0.00  0.00    +0.000 A 
ATOM     23  C   UNL     1      12.303  13.238  19.153  0.00  0.00    +0.000 A 
ATOM     24  C   UNL     1      11.129  13.682  18.542  0.00  0.00    +0.000 A 
ATOM     25  F   UNL     1      11.192  14.810  17.821  0.00  0.00    +0.000 F 
ENDBRANCH  12  18
BRANCH   3  26
ATOM     26  C   UNL     1       0.760  12.612  19.822  0.00  0.00    +0.000 A 
ATOM     27  C   UNL     1      -0.585  12.763  20.157  0.00  0.00    +0.000 A 
ATOM     28  C   UNL     1      -1.546  11.883  19.653  0.00  0.00    +0.000 A 
ATOM     29  C   UNL     1      -1.183  10.853  18.787  0.00  0.00    +0.000 A 
ATOM     30  C   UNL     1       0.160  10.693  18.454  0.00  0.00    +0.000 A 
ATOM     31  C   UNL     1       1.125  11.581  18.951  0.00  0.00    +0.000 A 
BRANCH  29  32
ATOM     32  O   UNL     1      -2.200  10.029  18.420  0.00  0.00    +0.000 OA
BRANCH  32  33
ATOM     33  C   UNL     1      -3.012  10.382  17.307  0.00  0.00    +0.000 C 
ATOM     34  F   UNL     1      -2.542  11.403  16.569  0.00  0.00    +0.000 F 
ATOM     35  F   UNL     1      -3.150   9.298  16.511  0.00  0.00    +0.000 F 
ATOM     36  F   UNL     1      -4.240  10.721  17.763  0.00  0.00    +0.000 F 
ENDBRANCH  32  33
ENDBRANCH  29  32
ENDBRANCH   3  26
TORSDOF 4
ENDMDL
MODEL 6
REMARK VINA RESULT:      -7.6      4.503      6.235
REMARK  Name = 
REMARK  4 active torsions:
REMARK  status: ('A' for Active; 'I' for Inactive)
REMARK    1  A    between atoms: N_3  and  C_4
REMARK    2  A    between atoms: C_7  and  O_8
REMARK    3  A    between atoms: O_8  and  C_9
REMARK    4  A    between atoms: C_23  and  C_25
REMARK                            x       y       z     vdW  Elec       q    Type
REMARK                         _______ _______ _______ _____ _____    ______ ____
ROOT
ATOM      1  O   UNL     1       1.183  15.824  21.058  0.00  0.00    +0.000 OA
ATOM      2  C   UNL     1       1.956  14.911  21.347  0.00  0.00    +0.000 C 
ATOM      3  N   UNL     1       1.740  13.588  21.026  0.00  0.00    +0.000 N 
ATOM      4  N   UNL     1       3.103  15.160  22.092  0.00  0.00    +0.000 N 
ATOM      5  C   UNL     1       3.235  16.487  22.691  0.00  0.00    +0.000 C 
ATOM      6  C   UNL     1       4.416  17.243  22.110  0.00  0.00    +0.000 C 
ATOM      7  C   UNL     1       5.681  16.408  22.244  0.00  0.00    +0.000 C 
ATOM      8  C   UNL     1       5.544  15.010  21.581  0.00  0.00    +0.000 C 
ATOM      9  C   UNL     1       5.386  15.089  20.037  0.00  0.00    +0.000 C 
ATOM     10  C   UNL     1       6.632  15.633  19.340  0.00  0.00    +0.000 C 
ATOM     11  N   UNL     1       7.811  14.855  19.723  0.00  0.00    +0.000 N 
ATOM     12  C   UNL     1       8.610  14.324  18.704  0.00  0.00    +0.000 C 
ATOM     13  O   UNL     1       8.357  14.507  17.513  0.00  0.00    +0.000 OA
ATOM     14  C   UNL     1       8.052  14.797  21.167  0.00  0.00    +0.000 C 
ATOM     15  C   UNL     1       6.830  14.194  21.876  0.00  0.00    +0.000 C 
ATOM     16  C   UNL     1       4.296  14.302  22.181  0.00  0.00    +0.000 C 
ATOM     17  H   UNL     1       2.180  12.924  21.646  0.00  0.00    +0.000 HD
ENDROOT
BRANCH  12  18
ATOM     18  C   UNL     1       9.814  13.527  19.011  0.00  0.00    +0.000 A 
ATOM     19  C   UNL     1       9.806  12.134  19.045  0.00  0.00    +0.000 A 
ATOM     20  F   UNL     1       8.705  11.437  18.728  0.00  0.00    +0.000 F 
ATOM     21  C   UNL     1      10.939  11.413  19.422  0.00  0.00    +0.000 A 
ATOM     22  C   UNL     1      12.136  12.080  19.666  0.00  0.00    +0.000 A 
ATOM     23  C   UNL     1      12.189  13.465  19.527  0.00  0.00    +0.000 A 
ATOM     24  C   UNL     1      11.032  14.181  19.213  0.00  0.00    +0.000 A 
ATOM     25  F   UNL     1      11.130  15.515  19.132  0.00  0.00    +0.000 F 
ENDBRANCH  12  18
BRANCH   3  26
ATOM     26  C   UNL     1       0.662  13.101  20.249  0.00  0.00    +0.000 A 
ATOM     27  C   UNL     1      -0.375  12.336  20.779  0.00  0.00    +0.000 A 
ATOM     28  C   UNL     1      -1.393  11.849  19.955  0.00  0.00    +0.000 A 
ATOM     29  C   UNL     1      -1.403  12.137  18.592  0.00  0.00    +0.000 A 
ATOM     30  C   UNL     1      -0.365  12.894  18.054  0.00  0.00    +0.000 A 
ATOM     31  C   UNL     1       0.652  13.393  18.882  0.00  0.00    +0.000 A 
BRANCH  29  32
ATOM     32  O   UNL     1      -2.409  11.550  17.891  0.00  0.00    +0.000 OA
BRANCH  32  33
ATOM     33  C   UNL     1      -2.145  10.356  17.165  0.00  0.00    +0.000 C 
ATOM     34  F   UNL     1      -0.955   9.787  17.431  0.00  0.00    +0.000 F 
ATOM     35  F   UNL     1      -3.122   9.462  17.434  0.00  0.00    +0.000 F 
ATOM     36  F   UNL     1      -2.192  10.638  15.843  0.00  0.00    +0.000 F 
ENDBRANCH  32  33
ENDBRANCH  29  32
ENDBRANCH   3  26
TORSDOF 4
ENDMDL
MODEL 7
REMARK VINA RESULT:      -7.6      0.842      1.767
REMARK  Name = 
REMARK  4 active torsions:
REMARK  status: ('A' for Active; 'I' for Inactive)
REMARK    1  A    between atoms: N_3  and  C_4
REMARK    2  A    between atoms: C_7  and  O_8
REMARK    3  A    between atoms: O_8  and  C_9
REMARK    4  A    between atoms: C_23  and  C_25
REMARK                            x       y       z     vdW  Elec       q    Type
REMARK                         _______ _______ _______ _____ _____    ______ ____
ROOT
ATOM      1  O   UNL     1       0.008   9.638  18.076  0.00  0.00    +0.000 OA
ATOM      2  C   UNL     1       0.490  10.020  19.142  0.00  0.00    +0.000 C 
ATOM      3  N   UNL     1       1.315   9.252  19.935  0.00  0.00    +0.000 N 
ATOM      4  N   UNL     1       0.171  11.272  19.658  0.00  0.00    +0.000 N 
ATOM      5  C   UNL     1      -0.908  12.009  19.002  0.00  0.00    +0.000 C 
ATOM      6  C   UNL     1      -0.398  13.289  18.365  0.00  0.00    +0.000 C 
ATOM      7  C   UNL     1       0.342  14.123  19.400  0.00  0.00    +0.000 C 
ATOM      8  C   UNL     1       1.505  13.344  20.073  0.00  0.00    +0.000 C 
ATOM      9  C   UNL     1       2.648  12.995  19.079  0.00  0.00    +0.000 C 
ATOM     10  C   UNL     1       3.377  14.232  18.556  0.00  0.00    +0.000 C 
ATOM     11  N   UNL     1       3.859  15.050  19.670  0.00  0.00    +0.000 N 
ATOM     12  C   UNL     1       5.212  15.407  19.688  0.00  0.00    +0.000 C 
ATOM     13  O   UNL     1       5.990  15.067  18.796  0.00  0.00    +0.000 OA
ATOM     14  C   UNL     1       2.814  15.467  20.608  0.00  0.00    +0.000 C 
ATOM     15  C   UNL     1       2.113  14.230  21.191  0.00  0.00    +0.000 C 
ATOM     16  C   UNL     1       0.933  12.026  20.667  0.00  0.00    +0.000 C 
ATOM     17  H   UNL     1       1.294   9.482  20.917  0.00  0.00    +0.000 HD
ENDROOT
BRANCH  12  18
ATOM     18  C   UNL     1       5.773  16.228  20.780  0.00  0.00    +0.000 A 
ATOM     19  C   UNL     1       5.553  17.599  20.879  0.00  0.00    +0.000 A 
ATOM     20  F   UNL     1       4.751  18.240  20.016  0.00  0.00    +0.000 F 
ATOM     21  C   UNL     1       6.167  18.360  21.874  0.00  0.00    +0.000 A 
ATOM     22  C   UNL     1       6.930  17.734  22.856  0.00  0.00    +0.000 A 
ATOM     23  C   UNL     1       7.068  16.348  22.834  0.00  0.00    +0.000 A 
ATOM     24  C   UNL     1       6.503  15.605  21.796  0.00  0.00    +0.000 A 
ATOM     25  F   UNL     1       6.701  14.279  21.801  0.00  0.00    +0.000 F 
ENDBRANCH  12  18
BRANCH   3  26
ATOM     26  C   UNL     1       1.799   7.964  19.603  0.00  0.00    +0.000 A 
ATOM     27  C   UNL     1       1.604   6.845  20.411  0.00  0.00    +0.000 A 
ATOM     28  C   UNL     1       2.140   5.606  20.051  0.00  0.00    +0.000 A 
ATOM     29  C   UNL     1       2.859   5.459  18.866  0.00  0.00    +0.000 A 
ATOM     30  C   UNL     1       3.064   6.575  18.058  0.00  0.00    +0.000 A 
ATOM     31  C   UNL     1       2.518   7.818  18.413  0.00  0.00    +0.000 A 
BRANCH  29  32
ATOM     32  O   UNL     1       3.382   4.221  18.664  0.00  0.00    +0.000 OA
BRANCH  32  33
ATOM     33  C   UNL     1       2.953   3.462  17.540  0.00  0.00    +0.000 C 
ATOM     34  F   UNL     1       2.957   2.130  17.726  0.00  0.00    +0.000 F 
ATOM     35  F   UNL     1       1.701   3.850  17.209  0.00  0.00    +0.000 F 
ATOM     36  F   UNL     1       3.766   3.745  16.497  0.00  0.00    +0.000 F 
ENDBRANCH  32  33
ENDBRANCH  29  32
ENDBRANCH   3  26
TORSDOF 4
ENDMDL
MODEL 8
REMARK VINA RESULT:      -7.5      4.423      6.087
REMARK  Name = 
REMARK  4 active torsions:
REMARK  status: ('A' for Active; 'I' for Inactive)
REMARK    1  A    between atoms: N_3  and  C_4
REMARK    2  A    between atoms: C_7  and  O_8
REMARK    3  A    between atoms: O_8  and  C_9
REMARK    4  A    between atoms: C_23  and  C_25
REMARK                            x       y       z     vdW  Elec       q    Type
REMARK                         _______ _______ _______ _____ _____    ______ ____
ROOT
ATOM      1  O   UNL     1       1.176  15.658  20.742  0.00  0.00    +0.000 OA
ATOM      2  C   UNL     1       1.953  14.776  21.108  0.00  0.00    +0.000 C 
ATOM      3  N   UNL     1       1.770  13.433  20.853  0.00  0.00    +0.000 N 
ATOM      4  N   UNL     1       3.068  15.085  21.879  0.00  0.00    +0.000 N 
ATOM      5  C   UNL     1       3.157  16.445  22.408  0.00  0.00    +0.000 C 
ATOM      6  C   UNL     1       4.347  17.189  21.829  0.00  0.00    +0.000 C 
ATOM      7  C   UNL     1       5.619  16.385  22.053  0.00  0.00    +0.000 C 
ATOM      8  C   UNL     1       5.529  14.951  21.463  0.00  0.00    +0.000 C 
ATOM      9  C   UNL     1       5.425  14.944  19.912  0.00  0.00    +0.000 C 
ATOM     10  C   UNL     1       6.687  15.470  19.231  0.00  0.00    +0.000 C 
ATOM     11  N   UNL     1       7.863  14.736  19.698  0.00  0.00    +0.000 N 
ATOM     12  C   UNL     1       8.707  14.165  18.738  0.00  0.00    +0.000 C 
ATOM     13  O   UNL     1       8.494  14.278  17.531  0.00  0.00    +0.000 OA
ATOM     14  C   UNL     1       8.053  14.761  21.150  0.00  0.00    +0.000 C 
ATOM     15  C   UNL     1       6.815  14.175  21.848  0.00  0.00    +0.000 C 
ATOM     16  C   UNL     1       4.271  14.255  22.056  0.00  0.00    +0.000 C 
ATOM     17  H   UNL     1       2.197  12.812  21.523  0.00  0.00    +0.000 HD
ENDROOT
BRANCH  12  18
ATOM     18  C   UNL     1       9.912  13.407  19.131  0.00  0.00    +0.000 A 
ATOM     19  C   UNL     1       9.857  12.092  19.587  0.00  0.00    +0.000 A 
ATOM     20  F   UNL     1       8.700  11.416  19.626  0.00  0.00    +0.000 F 
ATOM     21  C   UNL     1      11.004  11.432  20.030  0.00  0.00    +0.000 A 
ATOM     22  C   UNL     1      12.246  12.050  19.920  0.00  0.00    +0.000 A 
ATOM     23  C   UNL     1      12.331  13.323  19.362  0.00  0.00    +0.000 A 
ATOM     24  C   UNL     1      11.168  13.998  18.983  0.00  0.00    +0.000 A 
ATOM     25  F   UNL     1      11.303  15.238  18.489  0.00  0.00    +0.000 F 
ENDBRANCH  12  18
BRANCH   3  26
ATOM     26  C   UNL     1       0.729  12.886  20.066  0.00  0.00    +0.000 A 
ATOM     27  C   UNL     1       0.540  13.204  18.722  0.00  0.00    +0.000 A 
ATOM     28  C   UNL     1      -0.530  12.663  18.007  0.00  0.00    +0.000 A 
ATOM     29  C   UNL     1      -1.418  11.777  18.615  0.00  0.00    +0.000 A 
ATOM     30  C   UNL     1      -1.239  11.460  19.960  0.00  0.00    +0.000 A 
ATOM     31  C   UNL     1      -0.159  11.995  20.678  0.00  0.00    +0.000 A 
BRANCH  29  32
ATOM     32  O   UNL     1      -2.452  11.374  17.831  0.00  0.00    +0.000 OA
BRANCH  32  33
ATOM     33  C   UNL     1      -2.331  10.166  17.090  0.00  0.00    +0.000 C 
ATOM     34  F   UNL     1      -2.510  10.298  15.763  0.00  0.00    +0.000 F 
ATOM     35  F   UNL     1      -1.103   9.645  17.312  0.00  0.00    +0.000 F 
ATOM     36  F   UNL     1      -3.246   9.285  17.553  0.00  0.00    +0.000 F 
ENDBRANCH  32  33
ENDBRANCH  29  32
ENDBRANCH   3  26
TORSDOF 4
ENDMDL
MODEL 9
REMARK VINA RESULT:      -7.5      1.143      1.509
REMARK  Name = 
REMARK  4 active torsions:
REMARK  status: ('A' for Active; 'I' for Inactive)
REMARK    1  A    between atoms: N_3  and  C_4
REMARK    2  A    between atoms: C_7  and  O_8
REMARK    3  A    between atoms: O_8  and  C_9
REMARK    4  A    between atoms: C_23  and  C_25
REMARK                            x       y       z     vdW  Elec       q    Type
REMARK                         _______ _______ _______ _____ _____    ______ ____
ROOT
ATOM      1  O   UNL     1      -0.104   9.701  18.258  0.00  0.00    +0.000 OA
ATOM      2  C   UNL     1       0.478  10.119  19.258  0.00  0.00    +0.000 C 
ATOM      3  N   UNL     1       1.329   9.356  20.030  0.00  0.00    +0.000 N 
ATOM      4  N   UNL     1       0.259  11.411  19.721  0.00  0.00    +0.000 N 
ATOM      5  C   UNL     1      -0.835  12.163  19.108  0.00  0.00    +0.000 C 
ATOM      6  C   UNL     1      -0.321  13.378  18.357  0.00  0.00    +0.000 C 
ATOM      7  C   UNL     1       0.537  14.232  19.280  0.00  0.00    +0.000 C 
ATOM      8  C   UNL     1       1.715  13.435  19.905  0.00  0.00    +0.000 C 
ATOM      9  C   UNL     1       2.757  12.974  18.849  0.00  0.00    +0.000 C 
ATOM     10  C   UNL     1       3.496  14.141  18.197  0.00  0.00    +0.000 C 
ATOM     11  N   UNL     1       4.103  14.995  19.218  0.00  0.00    +0.000 N 
ATOM     12  C   UNL     1       5.468  15.285  19.110  0.00  0.00    +0.000 C 
ATOM     13  O   UNL     1       6.155  14.857  18.182  0.00  0.00    +0.000 OA
ATOM     14  C   UNL     1       3.157  15.516  20.209  0.00  0.00    +0.000 C 
ATOM     15  C   UNL     1       2.450  14.351  20.918  0.00  0.00    +0.000 C 
ATOM     16  C   UNL     1       1.134  12.183  20.621  0.00  0.00    +0.000 C 
ATOM     17  H   UNL     1       1.398   9.642  20.995  0.00  0.00    +0.000 HD
ENDROOT
BRANCH  12  18
ATOM     18  C   UNL     1       6.152  16.137  20.103  0.00  0.00    +0.000 A 
ATOM     19  C   UNL     1       6.322  15.756  21.432  0.00  0.00    +0.000 A 
ATOM     20  F   UNL     1       5.930  14.550  21.865  0.00  0.00    +0.000 F 
ATOM     21  C   UNL     1       6.897  16.620  22.364  0.00  0.00    +0.000 A 
ATOM     22  C   UNL     1       7.412  17.845  21.950  0.00  0.00    +0.000 A 
ATOM     23  C   UNL     1       7.350  18.193  20.602  0.00  0.00    +0.000 A 
ATOM     24  C   UNL     1       6.713  17.348  19.691  0.00  0.00    +0.000 A 
ATOM     25  F   UNL     1       6.645  17.751  18.414  0.00  0.00    +0.000 F 
ENDBRANCH  12  18
BRANCH   3  26
ATOM     26  C   UNL     1       1.726   8.029  19.739  0.00  0.00    +0.000 A 
ATOM     27  C   UNL     1       1.535   6.966  20.620  0.00  0.00    +0.000 A 
ATOM     28  C   UNL     1       1.983   5.684  20.296  0.00  0.00    +0.000 A 
ATOM     29  C   UNL     1       2.610   5.436  19.076  0.00  0.00    +0.000 A 
ATOM     30  C   UNL     1       2.810   6.496  18.193  0.00  0.00    +0.000 A 
ATOM     31  C   UNL     1       2.352   7.782  18.513  0.00  0.00    +0.000 A 
BRANCH  29  32
ATOM     32  O   UNL     1       3.057   4.164  18.909  0.00  0.00    +0.000 OA
BRANCH  32  33
ATOM     33  C   UNL     1       4.458   3.920  18.874  0.00  0.00    +0.000 C 
ATOM     34  F   UNL     1       4.995   3.898  17.641  0.00  0.00    +0.000 F 
ATOM     35  F   UNL     1       5.081   4.874  19.601  0.00  0.00    +0.000 F 
ATOM     36  F   UNL     1       4.700   2.725  19.461  0.00  0.00    +0.000 F 
ENDBRANCH  32  33
ENDBRANCH  29  32
ENDBRANCH   3  26
TORSDOF 4
ENDMDL
