MODEL 1
REMARK VINA RESULT:      -7.0      0.000      0.000
REMARK  Name = 
REMARK  2 active torsions:
REMARK  status: ('A' for Active; 'I' for Inactive)
REMARK    1  A    between atoms: C_2  and  C_3
REMARK    2  A    between atoms: C_4  and  C_5
REMARK                            x       y       z     vdW  Elec       q    Type
REMARK                         _______ _______ _______ _____ _____    ______ ____
ROOT
ATOM      1  C   UNL     1       3.130   5.354  17.762  0.00  0.00    +0.000 A 
ATOM      2  C   UNL     1       3.277   6.723  17.950  0.00  0.00    +0.000 A 
ATOM      3  N   UNL     1       4.426   7.185  17.350  0.00  0.00    +0.000 NA
ATOM      4  C   UNL     1       5.013   6.125  16.846  0.00  0.00    +0.000 A 
ATOM      5  C   UNL     1       6.240   5.990  16.131  0.00  0.00    +0.000 A 
ATOM      6  C   UNL     1       6.635   4.779  15.698  0.00  0.00    +0.000 A 
ATOM      7  C   UNL     1       5.832   3.593  15.940  0.00  0.00    +0.000 A 
ATOM      8  C   UNL     1       4.678   3.712  16.617  0.00  0.00    +0.000 A 
ATOM      9  N   UNL     1       4.270   4.970  17.074  0.00  0.00    +0.000 N 
ENDROOT
BRANCH   2  10
ATOM     10  C   UNL     1       2.388   7.628  18.670  0.00  0.00    +0.000 A 
ATOM     11  C   UNL     1       2.077   7.449  20.027  0.00  0.00    +0.000 A 
ATOM     12  C   UNL     1       1.237   8.349  20.691  0.00  0.00    +0.000 A 
ATOM     13  C   UNL     1       0.728   9.454  20.013  0.00  0.00    +0.000 A 
ATOM     14 BR   UNL     1      -0.380  10.684  20.923  0.00  0.00    +0.000 Br
ATOM     15  C   UNL     1       1.046   9.664  18.674  0.00  0.00    +0.000 A 
ATOM     16  C   UNL     1       1.873   8.752  18.008  0.00  0.00    +0.000 A 
ENDBRANCH   2  10
BRANCH   1  18
ATOM     17  O   UNL     1       1.179   4.068  17.384  0.00  0.00    +0.000 OA
ATOM     18  C   UNL     1       2.057   4.476  18.138  0.00  0.00    +0.000 C 
ENDBRANCH   1  18
TORSDOF 2
ENDMDL
MODEL 2
REMARK VINA RESULT:      -6.9      0.092      1.141
REMARK  Name = 
REMARK  2 active torsions:
REMARK  status: ('A' for Active; 'I' for Inactive)
REMARK    1  A    between atoms: C_2  and  C_3
REMARK    2  A    between atoms: C_4  and  C_5
REMARK                            x       y       z     vdW  Elec       q    Type
REMARK                         _______ _______ _______ _____ _____    ______ ____
ROOT
ATOM      1  C   UNL     1       3.122   5.416  17.732  0.00  0.00    +0.000 A 
ATOM      2  C   UNL     1       3.310   6.784  17.892  0.00  0.00    +0.000 A 
ATOM      3  N   UNL     1       4.480   7.196  17.297  0.00  0.00    +0.000 NA
ATOM      4  C   UNL     1       5.039   6.107  16.824  0.00  0.00    +0.000 A 
ATOM      5  C   UNL     1       6.269   5.918  16.127  0.00  0.00    +0.000 A 
ATOM      6  C   UNL     1       6.630   4.685  15.725  0.00  0.00    +0.000 A 
ATOM      7  C   UNL     1       5.787   3.531  15.982  0.00  0.00    +0.000 A 
ATOM      8  C   UNL     1       4.629   3.702  16.642  0.00  0.00    +0.000 A 
ATOM      9  N   UNL     1       4.256   4.982  17.067  0.00  0.00    +0.000 N 
ENDROOT
BRANCH   2  10
ATOM     10  C   UNL     1       2.443   7.732  18.582  0.00  0.00    +0.000 A 
ATOM     11  C   UNL     1       1.853   8.823  17.925  0.00  0.00    +0.000 A 
ATOM     12  C   UNL     1       1.009   9.701  18.613  0.00  0.00    +0.000 A 
ATOM     13  C   UNL     1       0.722   9.476  19.957  0.00  0.00    +0.000 A 
ATOM     14 BR   UNL     1      -0.445  10.646  20.874  0.00  0.00    +0.000 Br
ATOM     15  C   UNL     1       1.274   8.384  20.621  0.00  0.00    +0.000 A 
ATOM     16  C   UNL     1       2.132   7.518  19.934  0.00  0.00    +0.000 A 
ENDBRANCH   2  10
BRANCH   1  18
ATOM     17  O   UNL     1       1.139   4.179  17.357  0.00  0.00    +0.000 OA
ATOM     18  C   UNL     1       2.017   4.583  18.114  0.00  0.00    +0.000 C 
ENDBRANCH   1  18
TORSDOF 2
ENDMDL
MODEL 3
REMARK VINA RESULT:      -6.8      4.500      6.479
REMARK  Name = 
REMARK  2 active torsions:
REMARK  status: ('A' for Active; 'I' for Inactive)
REMARK    1  A    between atoms: C_2  and  C_3
REMARK    2  A    between atoms: C_4  and  C_5
REMARK                            x       y       z     vdW  Elec       q    Type
REMARK                         _______ _______ _______ _____ _____    ______ ____
ROOT
ATOM      1  C   UNL     1       4.107   4.603  18.773  0.00  0.00    +0.000 A 
ATOM      2  C   UNL     1       3.955   4.263  17.434  0.00  0.00    +0.000 A 
ATOM      3  N   UNL     1       2.776   3.583  17.226  0.00  0.00    +0.000 NA
ATOM      4  C   UNL     1       2.230   3.452  18.412  0.00  0.00    +0.000 A 
ATOM      5  C   UNL     1       1.016   2.820  18.814  0.00  0.00    +0.000 A 
ATOM      6  C   UNL     1       0.655   2.825  20.111  0.00  0.00    +0.000 A 
ATOM      7  C   UNL     1       1.476   3.469  21.120  0.00  0.00    +0.000 A 
ATOM      8  C   UNL     1       2.623   4.062  20.749  0.00  0.00    +0.000 A 
ATOM      9  N   UNL     1       3.003   4.051  19.402  0.00  0.00    +0.000 N 
ENDROOT
BRANCH   2  10
ATOM     10  C   UNL     1       4.866   4.543  16.330  0.00  0.00    +0.000 A 
ATOM     11  C   UNL     1       5.224   5.851  15.968  0.00  0.00    +0.000 A 
ATOM     12  C   UNL     1       6.118   6.081  14.917  0.00  0.00    +0.000 A 
ATOM     13  C   UNL     1       6.686   5.005  14.240  0.00  0.00    +0.000 A 
ATOM     14 BR   UNL     1       7.917   5.321  12.843  0.00  0.00    +0.000 Br
ATOM     15  C   UNL     1       6.365   3.699  14.601  0.00  0.00    +0.000 A 
ATOM     16  C   UNL     1       5.458   3.473  15.642  0.00  0.00    +0.000 A 
ENDBRANCH   2  10
BRANCH   1  18
ATOM     17  O   UNL     1       6.261   4.977  19.680  0.00  0.00    +0.000 OA
ATOM     18  C   UNL     1       5.129   5.375  19.422  0.00  0.00    +0.000 C 
ENDBRANCH   1  18
TORSDOF 2
ENDMDL
MODEL 4
REMARK VINA RESULT:      -6.7      4.538      6.468
REMARK  Name = 
REMARK  2 active torsions:
REMARK  status: ('A' for Active; 'I' for Inactive)
REMARK    1  A    between atoms: C_2  and  C_3
REMARK    2  A    between atoms: C_4  and  C_5
REMARK                            x       y       z     vdW  Elec       q    Type
REMARK                         _______ _______ _______ _____ _____    ______ ____
ROOT
ATOM      1  C   UNL     1       4.164   4.503  18.767  0.00  0.00    +0.000 A 
ATOM      2  C   UNL     1       4.018   4.172  17.425  0.00  0.00    +0.000 A 
ATOM      3  N   UNL     1       2.816   3.541  17.198  0.00  0.00    +0.000 NA
ATOM      4  C   UNL     1       2.247   3.430  18.375  0.00  0.00    +0.000 A 
ATOM      5  C   UNL     1       1.003   2.847  18.759  0.00  0.00    +0.000 A 
ATOM      6  C   UNL     1       0.623   2.865  20.050  0.00  0.00    +0.000 A 
ATOM      7  C   UNL     1       1.455   3.472  21.073  0.00  0.00    +0.000 A 
ATOM      8  C   UNL     1       2.631   4.019  20.720  0.00  0.00    +0.000 A 
ATOM      9  N   UNL     1       3.030   3.995  19.379  0.00  0.00    +0.000 N 
ENDROOT
BRANCH   2  10
ATOM     10  C   UNL     1       4.956   4.417  16.335  0.00  0.00    +0.000 A 
ATOM     11  C   UNL     1       5.519   3.374  15.583  0.00  0.00    +0.000 A 
ATOM     12  C   UNL     1       6.399   3.648  14.531  0.00  0.00    +0.000 A 
ATOM     13  C   UNL     1       6.698   4.967  14.201  0.00  0.00    +0.000 A 
ATOM     14 BR   UNL     1       7.862   5.332  12.758  0.00  0.00    +0.000 Br
ATOM     15  C   UNL     1       6.129   6.017  14.917  0.00  0.00    +0.000 A 
ATOM     16  C   UNL     1       5.263   5.739  15.980  0.00  0.00    +0.000 A 
ENDBRANCH   2  10
BRANCH   1  18
ATOM     17  O   UNL     1       6.377   4.870  19.521  0.00  0.00    +0.000 OA
ATOM     18  C   UNL     1       5.208   5.231  19.433  0.00  0.00    +0.000 C 
ENDBRANCH   1  18
TORSDOF 2
ENDMDL
MODEL 5
REMARK VINA RESULT:      -6.5      3.478      4.894
REMARK  Name = 
REMARK  2 active torsions:
REMARK  status: ('A' for Active; 'I' for Inactive)
REMARK    1  A    between atoms: C_2  and  C_3
REMARK    2  A    between atoms: C_4  and  C_5
REMARK                            x       y       z     vdW  Elec       q    Type
REMARK                         _______ _______ _______ _____ _____    ______ ____
ROOT
ATOM      1  C   UNL     1       6.353   5.241  15.889  0.00  0.00    +0.000 A 
ATOM      2  C   UNL     1       5.246   4.429  16.104  0.00  0.00    +0.000 A 
ATOM      3  N   UNL     1       4.972   3.660  14.996  0.00  0.00    +0.000 NA
ATOM      4  C   UNL     1       5.849   4.021  14.089  0.00  0.00    +0.000 A 
ATOM      5  C   UNL     1       6.037   3.581  12.745  0.00  0.00    +0.000 A 
ATOM      6  C   UNL     1       7.031   4.100  12.002  0.00  0.00    +0.000 A 
ATOM      7  C   UNL     1       7.931   5.104  12.540  0.00  0.00    +0.000 A 
ATOM      8  C   UNL     1       7.757   5.527  13.804  0.00  0.00    +0.000 A 
ATOM      9  N   UNL     1       6.719   4.993  14.576  0.00  0.00    +0.000 N 
ENDROOT
BRANCH   2  10
ATOM     10  C   UNL     1       4.424   4.336  17.305  0.00  0.00    +0.000 A 
ATOM     11  C   UNL     1       3.462   5.305  17.631  0.00  0.00    +0.000 A 
ATOM     12  C   UNL     1       2.676   5.172  18.781  0.00  0.00    +0.000 A 
ATOM     13  C   UNL     1       2.823   4.054  19.597  0.00  0.00    +0.000 A 
ATOM     14 BR   UNL     1       1.737   3.864  21.131  0.00  0.00    +0.000 Br
ATOM     15  C   UNL     1       3.753   3.068  19.277  0.00  0.00    +0.000 A 
ATOM     16  C   UNL     1       4.549   3.212  18.136  0.00  0.00    +0.000 A 
ENDBRANCH   2  10
BRANCH   1  18
ATOM     17  O   UNL     1       6.823   7.338  16.880  0.00  0.00    +0.000 OA
ATOM     18  C   UNL     1       7.035   6.134  16.783  0.00  0.00    +0.000 C 
ENDBRANCH   1  18
TORSDOF 2
ENDMDL
MODEL 6
REMARK VINA RESULT:      -6.4      3.472      4.801
REMARK  Name = 
REMARK  2 active torsions:
REMARK  status: ('A' for Active; 'I' for Inactive)
REMARK    1  A    between atoms: C_2  and  C_3
REMARK    2  A    between atoms: C_4  and  C_5
REMARK                            x       y       z     vdW  Elec       q    Type
REMARK                         _______ _______ _______ _____ _____    ______ ____
ROOT
ATOM      1  C   UNL     1       6.355   5.185  15.897  0.00  0.00    +0.000 A 
ATOM      2  C   UNL     1       5.254   4.361  16.099  0.00  0.00    +0.000 A 
ATOM      3  N   UNL     1       4.987   3.606  14.979  0.00  0.00    +0.000 NA
ATOM      4  C   UNL     1       5.863   3.987  14.080  0.00  0.00    +0.000 A 
ATOM      5  C   UNL     1       6.056   3.567  12.730  0.00  0.00    +0.000 A 
ATOM      6  C   UNL     1       7.047   4.105  11.995  0.00  0.00    +0.000 A 
ATOM      7  C   UNL     1       7.938   5.108  12.549  0.00  0.00    +0.000 A 
ATOM      8  C   UNL     1       7.760   5.511  13.819  0.00  0.00    +0.000 A 
ATOM      9  N   UNL     1       6.725   4.959  14.581  0.00  0.00    +0.000 N 
ENDROOT
BRANCH   2  10
ATOM     10  C   UNL     1       4.431   4.245  17.297  0.00  0.00    +0.000 A 
ATOM     11  C   UNL     1       4.579   3.187  18.208  0.00  0.00    +0.000 A 
ATOM     12  C   UNL     1       3.786   3.119  19.358  0.00  0.00    +0.000 A 
ATOM     13  C   UNL     1       2.861   4.126  19.625  0.00  0.00    +0.000 A 
ATOM     14 BR   UNL     1       1.816   4.047  21.196  0.00  0.00    +0.000 Br
ATOM     15  C   UNL     1       2.718   5.198  18.748  0.00  0.00    +0.000 A 
ATOM     16  C   UNL     1       3.501   5.254  17.590  0.00  0.00    +0.000 A 
ENDBRANCH   2  10
BRANCH   1  18
ATOM     17  O   UNL     1       6.934   7.293  16.804  0.00  0.00    +0.000 OA
ATOM     18  C   UNL     1       7.029   6.070  16.805  0.00  0.00    +0.000 C 
ENDBRANCH   1  18
TORSDOF 2
ENDMDL
MODEL 7
REMARK VINA RESULT:      -6.4      3.914      6.453
REMARK  Name = 
REMARK  2 active torsions:
REMARK  status: ('A' for Active; 'I' for Inactive)
REMARK    1  A    between atoms: C_2  and  C_3
REMARK    2  A    between atoms: C_4  and  C_5
REMARK                            x       y       z     vdW  Elec       q    Type
REMARK                         _______ _______ _______ _____ _____    ______ ____
ROOT
ATOM      1  C   UNL     1       3.567   5.131  18.308  0.00  0.00    +0.000 A 
ATOM      2  C   UNL     1       4.180   4.164  17.521  0.00  0.00    +0.000 A 
ATOM      3  N   UNL     1       3.814   2.898  17.918  0.00  0.00    +0.000 NA
ATOM      4  C   UNL     1       3.036   3.065  18.961  0.00  0.00    +0.000 A 
ATOM      5  C   UNL     1       2.378   2.113  19.796  0.00  0.00    +0.000 A 
ATOM      6  C   UNL     1       1.610   2.535  20.817  0.00  0.00    +0.000 A 
ATOM      7  C   UNL     1       1.428   3.949  21.091  0.00  0.00    +0.000 A 
ATOM      8  C   UNL     1       2.048   4.851  20.312  0.00  0.00    +0.000 A 
ATOM      9  N   UNL     1       2.854   4.414  19.254  0.00  0.00    +0.000 N 
ENDROOT
BRANCH   2  10
ATOM     10  C   UNL     1       5.100   4.366  16.408  0.00  0.00    +0.000 A 
ATOM     11  C   UNL     1       4.716   4.166  15.073  0.00  0.00    +0.000 A 
ATOM     12  C   UNL     1       5.619   4.390  14.029  0.00  0.00    +0.000 A 
ATOM     13  C   UNL     1       6.904   4.849  14.309  0.00  0.00    +0.000 A 
ATOM     14 BR   UNL     1       8.110   5.182  12.893  0.00  0.00    +0.000 Br
ATOM     15  C   UNL     1       7.297   5.081  15.624  0.00  0.00    +0.000 A 
ATOM     16  C   UNL     1       6.396   4.838  16.667  0.00  0.00    +0.000 A 
ENDBRANCH   2  10
BRANCH   1  18
ATOM     17  O   UNL     1       2.628   7.275  17.953  0.00  0.00    +0.000 OA
ATOM     18  C   UNL     1       3.596   6.564  18.205  0.00  0.00    +0.000 C 
ENDBRANCH   1  18
TORSDOF 2
ENDMDL
MODEL 8
REMARK VINA RESULT:      -6.4      1.258      1.387
REMARK  Name = 
REMARK  2 active torsions:
REMARK  status: ('A' for Active; 'I' for Inactive)
REMARK    1  A    between atoms: C_2  and  C_3
REMARK    2  A    between atoms: C_4  and  C_5
REMARK                            x       y       z     vdW  Elec       q    Type
REMARK                         _______ _______ _______ _____ _____    ______ ____
ROOT
ATOM      1  C   UNL     1       2.676   5.763  18.713  0.00  0.00    +0.000 A 
ATOM      2  C   UNL     1       2.632   7.152  18.681  0.00  0.00    +0.000 A 
ATOM      3  N   UNL     1       3.467   7.653  17.709  0.00  0.00    +0.000 NA
ATOM      4  C   UNL     1       4.063   6.609  17.182  0.00  0.00    +0.000 A 
ATOM      5  C   UNL     1       5.043   6.516  16.150  0.00  0.00    +0.000 A 
ATOM      6  C   UNL     1       5.502   5.311  15.767  0.00  0.00    +0.000 A 
ATOM      7  C   UNL     1       5.017   4.088  16.381  0.00  0.00    +0.000 A 
ATOM      8  C   UNL     1       4.097   4.168  17.358  0.00  0.00    +0.000 A 
ATOM      9  N   UNL     1       3.625   5.421  17.762  0.00  0.00    +0.000 N 
ENDROOT
BRANCH   2  10
ATOM     10  C   UNL     1       1.840   8.041  19.523  0.00  0.00    +0.000 A 
ATOM     11  C   UNL     1       1.653   7.806  20.894  0.00  0.00    +0.000 A 
ATOM     12  C   UNL     1       0.905   8.692  21.675  0.00  0.00    +0.000 A 
ATOM     13  C   UNL     1       0.364   9.839  21.099  0.00  0.00    +0.000 A 
ATOM     14 BR   UNL     1      -0.620  11.049  22.166  0.00  0.00    +0.000 Br
ATOM     15  C   UNL     1       0.560  10.105  19.747  0.00  0.00    +0.000 A 
ATOM     16  C   UNL     1       1.294   9.208  18.964  0.00  0.00    +0.000 A 
ENDBRANCH   2  10
BRANCH   1  18
ATOM     17  O   UNL     1       2.286   4.344  20.566  0.00  0.00    +0.000 OA
ATOM     18  C   UNL     1       1.920   4.830  19.500  0.00  0.00    +0.000 C 
ENDBRANCH   1  18
TORSDOF 2
ENDMDL
MODEL 9
REMARK VINA RESULT:      -6.4      3.943      6.404
REMARK  Name = 
REMARK  2 active torsions:
REMARK  status: ('A' for Active; 'I' for Inactive)
REMARK    1  A    between atoms: C_2  and  C_3
REMARK    2  A    between atoms: C_4  and  C_5
REMARK                            x       y       z     vdW  Elec       q    Type
REMARK                         _______ _______ _______ _____ _____    ______ ____
ROOT
ATOM      1  C   UNL     1       3.621   5.148  18.462  0.00  0.00    +0.000 A 
ATOM      2  C   UNL     1       4.180   4.226  17.585  0.00  0.00    +0.000 A 
ATOM      3  N   UNL     1       3.737   2.952  17.857  0.00  0.00    +0.000 NA
ATOM      4  C   UNL     1       2.964   3.064  18.912  0.00  0.00    +0.000 A 
ATOM      5  C   UNL     1       2.246   2.077  19.651  0.00  0.00    +0.000 A 
ATOM      6  C   UNL     1       1.499   2.444  20.709  0.00  0.00    +0.000 A 
ATOM      7  C   UNL     1       1.400   3.833  21.118  0.00  0.00    +0.000 A 
ATOM      8  C   UNL     1       2.077   4.767  20.429  0.00  0.00    +0.000 A 
ATOM      9  N   UNL     1       2.861   4.387  19.334  0.00  0.00    +0.000 N 
ENDROOT
BRANCH   2  10
ATOM     10  C   UNL     1       5.117   4.479  16.496  0.00  0.00    +0.000 A 
ATOM     11  C   UNL     1       6.437   4.897  16.726  0.00  0.00    +0.000 A 
ATOM     12  C   UNL     1       7.314   5.111  15.658  0.00  0.00    +0.000 A 
ATOM     13  C   UNL     1       6.889   4.877  14.352  0.00  0.00    +0.000 A 
ATOM     14 BR   UNL     1       8.088   5.135  12.915  0.00  0.00    +0.000 Br
ATOM     15  C   UNL     1       5.592   4.436  14.104  0.00  0.00    +0.000 A 
ATOM     16  C   UNL     1       4.712   4.240  15.174  0.00  0.00    +0.000 A 
ENDBRANCH   2  10
BRANCH   1  18
ATOM     17  O   UNL     1       3.266   7.348  17.664  0.00  0.00    +0.000 OA
ATOM     18  C   UNL     1       3.736   6.579  18.497  0.00  0.00    +0.000 C 
ENDBRANCH   1  18
TORSDOF 2
ENDMDL
