MODEL 1
REMARK VINA RESULT:      -7.1      0.000      0.000
REMARK  Name = 
REMARK  5 active torsions:
REMARK  status: ('A' for Active; 'I' for Inactive)
REMARK    1  A    between atoms: C_1  and  C_2
REMARK    2  A    between atoms: C_2  and  O_3
REMARK    3  A    between atoms: O_3  and  C_4
REMARK    4  A    between atoms: N_6  and  C_7
REMARK    5  A    between atoms: C_12  and  C_13
REMARK                            x       y       z     vdW  Elec       q    Type
REMARK                         _______ _______ _______ _____ _____    ______ ____
ROOT
ATOM      1  C   UNL     1       2.515   6.576  19.807  0.00  0.00    +0.000 A 
ATOM      2  C   UNL     1       1.870   7.755  20.238  0.00  0.00    +0.000 A 
ATOM      3  C   UNL     1       1.541   8.778  19.339  0.00  0.00    +0.000 A 
ATOM      4  C   UNL     1       1.898   8.663  18.007  0.00  0.00    +0.000 A 
ATOM      5  C   UNL     1       2.564   7.515  17.575  0.00  0.00    +0.000 A 
ATOM      6  C   UNL     1       2.875   6.448  18.454  0.00  0.00    +0.000 A 
ENDROOT
BRANCH   6   7
ATOM      7  C   UNL     1       3.522   5.289  17.769  0.00  0.00    +0.000 C 
ATOM      8  O   UNL     1       2.751   4.431  17.326  0.00  0.00    +0.000 OA
ATOM      9  N   UNL     1       4.893   5.188  17.540  0.00  0.00    +0.000 N 
ATOM     10  C   UNL     1       5.953   6.067  18.034  0.00  0.00    +0.000 C 
ATOM     11  C   UNL     1       7.109   6.260  17.047  0.00  0.00    +0.000 C 
ATOM     12  O   UNL     1       7.547   5.032  16.458  0.00  0.00    +0.000 OA
ATOM     13  C   UNL     1       6.449   4.376  15.808  0.00  0.00    +0.000 C 
ATOM     14  C   UNL     1       5.390   3.993  16.840  0.00  0.00    +0.000 C 
ENDBRANCH   6   7
BRANCH   1  17
ATOM     15  C   UNL     1       1.792   4.501  20.899  0.00  0.00    +0.000 C 
ATOM     16  O   UNL     1       0.770   4.348  20.238  0.00  0.00    +0.000 OA
ATOM     17  N   UNL     1       2.671   5.559  20.776  0.00  0.00    +0.000 N 
ATOM     18  H   UNL     1       3.254   5.733  21.585  0.00  0.00    +0.000 HD
BRANCH  15  19
ATOM     19  O   UNL     1       2.173   3.695  21.925  0.00  0.00    +0.000 OA
BRANCH  19  21
ATOM     20  C   UNL     1       3.639   2.481  20.412  0.00  0.00    +0.000 C 
ATOM     21  C   UNL     1       2.632   2.379  21.544  0.00  0.00    +0.000 C 
ENDBRANCH  19  21
ENDBRANCH  15  19
ENDBRANCH   1  17
TORSDOF 4
ENDMDL
MODEL 2
REMARK VINA RESULT:      -7.1      2.120      6.215
REMARK  Name = 
REMARK  5 active torsions:
REMARK  status: ('A' for Active; 'I' for Inactive)
REMARK    1  A    between atoms: C_1  and  C_2
REMARK    2  A    between atoms: C_2  and  O_3
REMARK    3  A    between atoms: O_3  and  C_4
REMARK    4  A    between atoms: N_6  and  C_7
REMARK    5  A    between atoms: C_12  and  C_13
REMARK                            x       y       z     vdW  Elec       q    Type
REMARK                         _______ _______ _______ _____ _____    ______ ____
ROOT
ATOM      1  C   UNL     1       6.621   5.771  16.345  0.00  0.00    +0.000 A 
ATOM      2  C   UNL     1       7.303   5.190  15.255  0.00  0.00    +0.000 A 
ATOM      3  C   UNL     1       6.683   4.242  14.430  0.00  0.00    +0.000 A 
ATOM      4  C   UNL     1       5.395   3.822  14.711  0.00  0.00    +0.000 A 
ATOM      5  C   UNL     1       4.722   4.368  15.805  0.00  0.00    +0.000 A 
ATOM      6  C   UNL     1       5.310   5.356  16.634  0.00  0.00    +0.000 A 
ENDROOT
BRANCH   6   7
ATOM      7  C   UNL     1       4.390   5.854  17.700  0.00  0.00    +0.000 C 
ATOM      8  O   UNL     1       3.888   6.965  17.498  0.00  0.00    +0.000 OA
ATOM      9  N   UNL     1       4.021   5.109  18.819  0.00  0.00    +0.000 N 
ATOM     10  C   UNL     1       4.550   3.814  19.250  0.00  0.00    +0.000 C 
ATOM     11  C   UNL     1       3.504   2.902  19.899  0.00  0.00    +0.000 C 
ATOM     12  O   UNL     1       2.687   3.586  20.854  0.00  0.00    +0.000 OA
ATOM     13  C   UNL     1       2.044   4.712  20.239  0.00  0.00    +0.000 C 
ATOM     14  C   UNL     1       3.095   5.723  19.783  0.00  0.00    +0.000 C 
ENDBRANCH   6   7
BRANCH   1  17
ATOM     15  C   UNL     1       7.867   6.650  18.269  0.00  0.00    +0.000 C 
ATOM     16  O   UNL     1       7.810   5.629  18.946  0.00  0.00    +0.000 OA
ATOM     17  N   UNL     1       7.298   6.813  17.020  0.00  0.00    +0.000 N 
ATOM     18  H   UNL     1       7.130   7.772  16.744  0.00  0.00    +0.000 HD
BRANCH  15  19
ATOM     19  O   UNL     1       8.425   7.818  18.682  0.00  0.00    +0.000 OA
BRANCH  19  21
ATOM     20  C   UNL     1       8.905  10.179  18.349  0.00  0.00    +0.000 C 
ATOM     21  C   UNL     1       8.092   8.981  17.891  0.00  0.00    +0.000 C 
ENDBRANCH  19  21
ENDBRANCH  15  19
ENDBRANCH   1  17
TORSDOF 4
ENDMDL
MODEL 3
REMARK VINA RESULT:      -7.0      2.262      6.231
REMARK  Name = 
REMARK  5 active torsions:
REMARK  status: ('A' for Active; 'I' for Inactive)
REMARK    1  A    between atoms: C_1  and  C_2
REMARK    2  A    between atoms: C_2  and  O_3
REMARK    3  A    between atoms: O_3  and  C_4
REMARK    4  A    between atoms: N_6  and  C_7
REMARK    5  A    between atoms: C_12  and  C_13
REMARK                            x       y       z     vdW  Elec       q    Type
REMARK                         _______ _______ _______ _____ _____    ______ ____
ROOT
ATOM      1  C   UNL     1       5.795   5.434  16.777  0.00  0.00    +0.000 A 
ATOM      2  C   UNL     1       6.963   6.210  16.935  0.00  0.00    +0.000 A 
ATOM      3  C   UNL     1       7.602   6.322  18.176  0.00  0.00    +0.000 A 
ATOM      4  C   UNL     1       7.057   5.704  19.289  0.00  0.00    +0.000 A 
ATOM      5  C   UNL     1       5.885   4.960  19.150  0.00  0.00    +0.000 A 
ATOM      6  C   UNL     1       5.239   4.798  17.900  0.00  0.00    +0.000 A 
ENDROOT
BRANCH   6   7
ATOM      7  C   UNL     1       4.044   3.904  17.966  0.00  0.00    +0.000 C 
ATOM      8  O   UNL     1       4.163   2.809  17.404  0.00  0.00    +0.000 OA
ATOM      9  N   UNL     1       2.886   4.205  18.681  0.00  0.00    +0.000 N 
ATOM     10  C   UNL     1       2.546   5.459  19.353  0.00  0.00    +0.000 C 
ATOM     11  C   UNL     1       1.751   5.274  20.650  0.00  0.00    +0.000 C 
ATOM     12  O   UNL     1       0.682   4.333  20.515  0.00  0.00    +0.000 OA
ATOM     13  C   UNL     1       1.188   3.069  20.063  0.00  0.00    +0.000 C 
ATOM     14  C   UNL     1       1.791   3.222  18.667  0.00  0.00    +0.000 C 
ENDBRANCH   6   7
BRANCH   1  17
ATOM     15  C   UNL     1       5.712   4.247  14.630  0.00  0.00    +0.000 C 
ATOM     16  O   UNL     1       6.539   3.388  14.918  0.00  0.00    +0.000 OA
ATOM     17  N   UNL     1       5.319   5.284  15.454  0.00  0.00    +0.000 N 
ATOM     18  H   UNL     1       4.914   6.082  14.982  0.00  0.00    +0.000 HD
BRANCH  15  19
ATOM     19  O   UNL     1       5.119   4.369  13.414  0.00  0.00    +0.000 OA
BRANCH  19  21
ATOM     20  C   UNL     1       4.382   3.205  11.410  0.00  0.00    +0.000 C 
ATOM     21  C   UNL     1       5.486   3.365  12.440  0.00  0.00    +0.000 C 
ENDBRANCH  19  21
ENDBRANCH  15  19
ENDBRANCH   1  17
TORSDOF 4
ENDMDL
MODEL 4
REMARK VINA RESULT:      -6.8      1.953      5.430
REMARK  Name = 
REMARK  5 active torsions:
REMARK  status: ('A' for Active; 'I' for Inactive)
REMARK    1  A    between atoms: C_1  and  C_2
REMARK    2  A    between atoms: C_2  and  O_3
REMARK    3  A    between atoms: O_3  and  C_4
REMARK    4  A    between atoms: N_6  and  C_7
REMARK    5  A    between atoms: C_12  and  C_13
REMARK                            x       y       z     vdW  Elec       q    Type
REMARK                         _______ _______ _______ _____ _____    ______ ____
ROOT
ATOM      1  C   UNL     1       4.957   5.815  16.816  0.00  0.00    +0.000 A 
ATOM      2  C   UNL     1       5.218   6.169  15.475  0.00  0.00    +0.000 A 
ATOM      3  C   UNL     1       5.730   5.238  14.562  0.00  0.00    +0.000 A 
ATOM      4  C   UNL     1       6.039   3.957  14.985  0.00  0.00    +0.000 A 
ATOM      5  C   UNL     1       5.815   3.606  16.317  0.00  0.00    +0.000 A 
ATOM      6  C   UNL     1       5.262   4.515  17.253  0.00  0.00    +0.000 A 
ENDROOT
BRANCH   6   7
ATOM      7  C   UNL     1       5.039   3.910  18.601  0.00  0.00    +0.000 C 
ATOM      8  O   UNL     1       5.862   4.220  19.469  0.00  0.00    +0.000 OA
ATOM      9  N   UNL     1       3.938   3.119  18.926  0.00  0.00    +0.000 N 
ATOM     10  C   UNL     1       2.904   2.606  18.026  0.00  0.00    +0.000 C 
ATOM     11  C   UNL     1       1.509   2.541  18.657  0.00  0.00    +0.000 C 
ATOM     12  O   UNL     1       1.521   1.978  19.973  0.00  0.00    +0.000 OA
ATOM     13  C   UNL     1       2.411   2.719  20.820  0.00  0.00    +0.000 C 
ATOM     14  C   UNL     1       3.842   2.600  20.299  0.00  0.00    +0.000 C 
ENDBRANCH   6   7
BRANCH   1  17
ATOM     15  C   UNL     1       2.987   6.703  17.981  0.00  0.00    +0.000 C 
ATOM     16  O   UNL     1       2.215   5.813  17.638  0.00  0.00    +0.000 OA
ATOM     17  N   UNL     1       4.314   6.795  17.607  0.00  0.00    +0.000 N 
ATOM     18  H   UNL     1       4.718   7.721  17.671  0.00  0.00    +0.000 HD
BRANCH  15  19
ATOM     19  O   UNL     1       2.633   7.791  18.713  0.00  0.00    +0.000 OA
BRANCH  19  21
ATOM     20  C   UNL     1       1.105   9.683  18.751  0.00  0.00    +0.000 C 
ATOM     21  C   UNL     1       2.147   8.920  17.952  0.00  0.00    +0.000 C 
ENDBRANCH  19  21
ENDBRANCH  15  19
ENDBRANCH   1  17
TORSDOF 4
ENDMDL
MODEL 5
REMARK VINA RESULT:      -6.8      2.053      4.110
REMARK  Name = 
REMARK  5 active torsions:
REMARK  status: ('A' for Active; 'I' for Inactive)
REMARK    1  A    between atoms: C_1  and  C_2
REMARK    2  A    between atoms: C_2  and  O_3
REMARK    3  A    between atoms: O_3  and  C_4
REMARK    4  A    between atoms: N_6  and  C_7
REMARK    5  A    between atoms: C_12  and  C_13
REMARK                            x       y       z     vdW  Elec       q    Type
REMARK                         _______ _______ _______ _____ _____    ______ ____
ROOT
ATOM      1  C   UNL     1       2.296   4.375  18.623  0.00  0.00    +0.000 A 
ATOM      2  C   UNL     1       1.015   3.787  18.689  0.00  0.00    +0.000 A 
ATOM      3  C   UNL     1       0.854   2.401  18.810  0.00  0.00    +0.000 A 
ATOM      4  C   UNL     1       1.966   1.577  18.815  0.00  0.00    +0.000 A 
ATOM      5  C   UNL     1       3.237   2.145  18.719  0.00  0.00    +0.000 A 
ATOM      6  C   UNL     1       3.431   3.547  18.634  0.00  0.00    +0.000 A 
ENDROOT
BRANCH   6   7
ATOM      7  C   UNL     1       4.872   3.942  18.614  0.00  0.00    +0.000 C 
ATOM      8  O   UNL     1       5.544   3.562  19.578  0.00  0.00    +0.000 OA
ATOM      9  N   UNL     1       5.479   4.612  17.553  0.00  0.00    +0.000 N 
ATOM     10  C   UNL     1       4.840   5.183  16.367  0.00  0.00    +0.000 C 
ATOM     11  C   UNL     1       5.685   5.075  15.093  0.00  0.00    +0.000 C 
ATOM     12  O   UNL     1       7.051   5.447  15.301  0.00  0.00    +0.000 OA
ATOM     13  C   UNL     1       7.629   4.649  16.344  0.00  0.00    +0.000 C 
ATOM     14  C   UNL     1       6.913   4.926  17.665  0.00  0.00    +0.000 C 
ENDBRANCH   6   7
BRANCH   1  17
ATOM     15  C   UNL     1       2.140   6.529  19.790  0.00  0.00    +0.000 C 
ATOM     16  O   UNL     1       1.861   6.066  20.892  0.00  0.00    +0.000 OA
ATOM     17  N   UNL     1       2.337   5.788  18.640  0.00  0.00    +0.000 N 
ATOM     18  H   UNL     1       2.218   6.296  17.773  0.00  0.00    +0.000 HD
BRANCH  15  19
ATOM     19  O   UNL     1       2.209   7.856  19.507  0.00  0.00    +0.000 OA
BRANCH  19  21
ATOM     20  C   UNL     1       1.445   9.377  17.770  0.00  0.00    +0.000 C 
ATOM     21  C   UNL     1       2.327   8.187  18.105  0.00  0.00    +0.000 C 
ENDBRANCH  19  21
ENDBRANCH  15  19
ENDBRANCH   1  17
TORSDOF 4
ENDMDL
MODEL 6
REMARK VINA RESULT:      -6.8      2.334      6.408
REMARK  Name = 
REMARK  5 active torsions:
REMARK  status: ('A' for Active; 'I' for Inactive)
REMARK    1  A    between atoms: C_1  and  C_2
REMARK    2  A    between atoms: C_2  and  O_3
REMARK    3  A    between atoms: O_3  and  C_4
REMARK    4  A    between atoms: N_6  and  C_7
REMARK    5  A    between atoms: C_12  and  C_13
REMARK                            x       y       z     vdW  Elec       q    Type
REMARK                         _______ _______ _______ _____ _____    ______ ____
ROOT
ATOM      1  C   UNL     1       6.308   4.337  17.031  0.00  0.00    +0.000 A 
ATOM      2  C   UNL     1       7.601   4.748  17.418  0.00  0.00    +0.000 A 
ATOM      3  C   UNL     1       7.830   5.368  18.653  0.00  0.00    +0.000 A 
ATOM      4  C   UNL     1       6.766   5.634  19.497  0.00  0.00    +0.000 A 
ATOM      5  C   UNL     1       5.478   5.260  19.111  0.00  0.00    +0.000 A 
ATOM      6  C   UNL     1       5.222   4.597  17.885  0.00  0.00    +0.000 A 
ENDROOT
BRANCH   6   7
ATOM      7  C   UNL     1       3.787   4.223  17.705  0.00  0.00    +0.000 C 
ATOM      8  O   UNL     1       3.487   3.769  16.596  0.00  0.00    +0.000 OA
ATOM      9  N   UNL     1       2.836   4.279  18.723  0.00  0.00    +0.000 N 
ATOM     10  C   UNL     1       2.991   4.834  20.068  0.00  0.00    +0.000 C 
ATOM     11  C   UNL     1       2.218   4.071  21.148  0.00  0.00    +0.000 C 
ATOM     12  O   UNL     1       0.877   3.760  20.756  0.00  0.00    +0.000 OA
ATOM     13  C   UNL     1       0.880   3.013  19.531  0.00  0.00    +0.000 C 
ATOM     14  C   UNL     1       1.460   3.867  18.405  0.00  0.00    +0.000 C 
ENDBRANCH   6   7
BRANCH   1  17
ATOM     15  C   UNL     1       6.405   4.174  14.584  0.00  0.00    +0.000 C 
ATOM     16  O   UNL     1       6.607   5.366  14.377  0.00  0.00    +0.000 OA
ATOM     17  N   UNL     1       6.221   3.601  15.827  0.00  0.00    +0.000 N 
ATOM     18  H   UNL     1       5.737   2.712  15.826  0.00  0.00    +0.000 HD
BRANCH  15  19
ATOM     19  O   UNL     1       6.239   3.240  13.611  0.00  0.00    +0.000 OA
BRANCH  19  21
ATOM     20  C   UNL     1       4.702   3.262  11.727  0.00  0.00    +0.000 C 
ATOM     21  C   UNL     1       6.026   3.761  12.280  0.00  0.00    +0.000 C 
ENDBRANCH  19  21
ENDBRANCH  15  19
ENDBRANCH   1  17
TORSDOF 4
ENDMDL
MODEL 7
REMARK VINA RESULT:      -6.7      2.306      6.350
REMARK  Name = 
REMARK  5 active torsions:
REMARK  status: ('A' for Active; 'I' for Inactive)
REMARK    1  A    between atoms: C_1  and  C_2
REMARK    2  A    between atoms: C_2  and  O_3
REMARK    3  A    between atoms: O_3  and  C_4
REMARK    4  A    between atoms: N_6  and  C_7
REMARK    5  A    between atoms: C_12  and  C_13
REMARK                            x       y       z     vdW  Elec       q    Type
REMARK                         _______ _______ _______ _____ _____    ______ ____
ROOT
ATOM      1  C   UNL     1       6.817   5.458  16.657  0.00  0.00    +0.000 A 
ATOM      2  C   UNL     1       7.479   4.993  15.501  0.00  0.00    +0.000 A 
ATOM      3  C   UNL     1       6.794   4.288  14.503  0.00  0.00    +0.000 A 
ATOM      4  C   UNL     1       5.452   3.991  14.667  0.00  0.00    +0.000 A 
ATOM      5  C   UNL     1       4.795   4.419  15.822  0.00  0.00    +0.000 A 
ATOM      6  C   UNL     1       5.453   5.167  16.830  0.00  0.00    +0.000 A 
ENDROOT
BRANCH   6   7
ATOM      7  C   UNL     1       4.546   5.583  17.941  0.00  0.00    +0.000 C 
ATOM      8  O   UNL     1       4.052   6.711  17.834  0.00  0.00    +0.000 OA
ATOM      9  N   UNL     1       4.180   4.752  18.999  0.00  0.00    +0.000 N 
ATOM     10  C   UNL     1       4.701   3.423  19.319  0.00  0.00    +0.000 C 
ATOM     11  C   UNL     1       3.653   2.469  19.901  0.00  0.00    +0.000 C 
ATOM     12  O   UNL     1       2.849   3.080  20.915  0.00  0.00    +0.000 OA
ATOM     13  C   UNL     1       2.211   4.257  20.399  0.00  0.00    +0.000 C 
ATOM     14  C   UNL     1       3.267   5.293  20.018  0.00  0.00    +0.000 C 
ENDBRANCH   6   7
BRANCH   1  17
ATOM     15  C   UNL     1       7.489   7.652  17.528  0.00  0.00    +0.000 C 
ATOM     16  O   UNL     1       6.800   8.319  16.762  0.00  0.00    +0.000 OA
ATOM     17  N   UNL     1       7.578   6.273  17.526  0.00  0.00    +0.000 N 
ATOM     18  H   UNL     1       8.411   5.894  17.957  0.00  0.00    +0.000 HD
BRANCH  15  19
ATOM     19  O   UNL     1       8.347   8.173  18.444  0.00  0.00    +0.000 OA
BRANCH  19  21
ATOM     20  C   UNL     1       9.333  10.106  19.541  0.00  0.00    +0.000 C 
ATOM     21  C   UNL     1       8.624   9.585  18.304  0.00  0.00    +0.000 C 
ENDBRANCH  19  21
ENDBRANCH  15  19
ENDBRANCH   1  17
TORSDOF 4
ENDMDL
MODEL 8
REMARK VINA RESULT:      -6.7      1.934      5.424
REMARK  Name = 
REMARK  5 active torsions:
REMARK  status: ('A' for Active; 'I' for Inactive)
REMARK    1  A    between atoms: C_1  and  C_2
REMARK    2  A    between atoms: C_2  and  O_3
REMARK    3  A    between atoms: O_3  and  C_4
REMARK    4  A    between atoms: N_6  and  C_7
REMARK    5  A    between atoms: C_12  and  C_13
REMARK                            x       y       z     vdW  Elec       q    Type
REMARK                         _______ _______ _______ _____ _____    ______ ____
ROOT
ATOM      1  C   UNL     1       3.844   3.917  19.406  0.00  0.00    +0.000 A 
ATOM      2  C   UNL     1       3.629   2.816  20.263  0.00  0.00    +0.000 A 
ATOM      3  C   UNL     1       2.463   2.709  21.033  0.00  0.00    +0.000 A 
ATOM      4  C   UNL     1       1.521   3.722  20.999  0.00  0.00    +0.000 A 
ATOM      5  C   UNL     1       1.738   4.830  20.179  0.00  0.00    +0.000 A 
ATOM      6  C   UNL     1       2.889   4.947  19.361  0.00  0.00    +0.000 A 
ENDROOT
BRANCH   6   7
ATOM      7  C   UNL     1       2.885   6.175  18.510  0.00  0.00    +0.000 C 
ATOM      8  O   UNL     1       3.247   6.016  17.339  0.00  0.00    +0.000 OA
ATOM      9  N   UNL     1       2.423   7.418  18.941  0.00  0.00    +0.000 N 
ATOM     10  C   UNL     1       2.014   7.805  20.291  0.00  0.00    +0.000 C 
ATOM     11  C   UNL     1       0.851   8.802  20.326  0.00  0.00    +0.000 C 
ATOM     12  O   UNL     1       1.015   9.877  19.396  0.00  0.00    +0.000 OA
ATOM     13  C   UNL     1       1.182   9.361  18.067  0.00  0.00    +0.000 C 
ATOM     14  C   UNL     1       2.466   8.538  17.989  0.00  0.00    +0.000 C 
ENDBRANCH   6   7
BRANCH   1  17
ATOM     15  C   UNL     1       6.159   4.526  18.861  0.00  0.00    +0.000 C 
ATOM     16  O   UNL     1       6.325   5.289  19.808  0.00  0.00    +0.000 OA
ATOM     17  N   UNL     1       4.988   3.849  18.578  0.00  0.00    +0.000 N 
ATOM     18  H   UNL     1       4.886   3.545  17.618  0.00  0.00    +0.000 HD
BRANCH  15  19
ATOM     19  O   UNL     1       7.076   4.298  17.886  0.00  0.00    +0.000 OA
BRANCH  19  21
ATOM     20  C   UNL     1       6.954   4.575  15.473  0.00  0.00    +0.000 C 
ATOM     21  C   UNL     1       7.101   5.270  16.816  0.00  0.00    +0.000 C 
ENDBRANCH  19  21
ENDBRANCH  15  19
ENDBRANCH   1  17
TORSDOF 4
ENDMDL
MODEL 9
REMARK VINA RESULT:      -6.6      2.081      3.989
REMARK  Name = 
REMARK  5 active torsions:
REMARK  status: ('A' for Active; 'I' for Inactive)
REMARK    1  A    between atoms: C_1  and  C_2
REMARK    2  A    between atoms: C_2  and  O_3
REMARK    3  A    between atoms: O_3  and  C_4
REMARK    4  A    between atoms: N_6  and  C_7
REMARK    5  A    between atoms: C_12  and  C_13
REMARK                            x       y       z     vdW  Elec       q    Type
REMARK                         _______ _______ _______ _____ _____    ______ ____
ROOT
ATOM      1  C   UNL     1       2.197   4.619  19.836  0.00  0.00    +0.000 A 
ATOM      2  C   UNL     1       0.997   3.876  19.818  0.00  0.00    +0.000 A 
ATOM      3  C   UNL     1       0.948   2.583  19.283  0.00  0.00    +0.000 A 
ATOM      4  C   UNL     1       2.081   2.031  18.712  0.00  0.00    +0.000 A 
ATOM      5  C   UNL     1       3.266   2.769  18.696  0.00  0.00    +0.000 A 
ATOM      6  C   UNL     1       3.354   4.064  19.264  0.00  0.00    +0.000 A 
ENDROOT
BRANCH   6   7
ATOM      7  C   UNL     1       4.730   4.641  19.203  0.00  0.00    +0.000 C 
ATOM      8  O   UNL     1       5.465   4.375  20.160  0.00  0.00    +0.000 OA
ATOM      9  N   UNL     1       5.225   5.360  18.115  0.00  0.00    +0.000 N 
ATOM     10  C   UNL     1       4.494   5.815  16.933  0.00  0.00    +0.000 C 
ATOM     11  C   UNL     1       5.320   5.788  15.643  0.00  0.00    +0.000 C 
ATOM     12  O   UNL     1       6.630   6.338  15.812  0.00  0.00    +0.000 OA
ATOM     13  C   UNL     1       7.327   5.646  16.858  0.00  0.00    +0.000 C 
ATOM     14  C   UNL     1       6.607   5.859  18.188  0.00  0.00    +0.000 C 
ENDBRANCH   6   7
BRANCH   1  17
ATOM     15  C   UNL     1       2.064   7.069  19.874  0.00  0.00    +0.000 C 
ATOM     16  O   UNL     1       2.060   7.224  18.657  0.00  0.00    +0.000 OA
ATOM     17  N   UNL     1       2.157   5.853  20.524  0.00  0.00    +0.000 N 
ATOM     18  H   UNL     1       2.488   5.898  21.479  0.00  0.00    +0.000 HD
BRANCH  15  19
ATOM     19  O   UNL     1       2.070   8.083  20.780  0.00  0.00    +0.000 OA
BRANCH  19  21
ATOM     20  C   UNL     1      -0.148   8.630  21.611  0.00  0.00    +0.000 C 
ATOM     21  C   UNL     1       0.977   9.022  20.669  0.00  0.00    +0.000 C 
ENDBRANCH  19  21
ENDBRANCH  15  19
ENDBRANCH   1  17
TORSDOF 4
ENDMDL
