MODEL 1
REMARK VINA RESULT:      -7.7      0.000      0.000
REMARK  Name = 
REMARK  5 active torsions:
REMARK  status: ('A' for Active; 'I' for Inactive)
REMARK    1  A    between atoms: C_2  and  C_3
REMARK    2  A    between atoms: C_7  and  N_8
REMARK    3  A    between atoms: N_8  and  S_9
REMARK    4  A    between atoms: S_9  and  C_12
REMARK    5  A    between atoms: C_17  and  C_18
REMARK                            x       y       z     vdW  Elec       q    Type
REMARK                         _______ _______ _______ _____ _____    ______ ____
ROOT
ATOM      1  S   UNL     1       2.430   3.040  17.853  0.00  0.00    +0.000 S 
ATOM      2  O   UNL     1       2.221   3.337  16.454  0.00  0.00    +0.000 OA
ATOM      3  O   UNL     1       1.624   2.037  18.517  0.00  0.00    +0.000 OA
ENDROOT
BRANCH   1   4
ATOM      4  C   UNL     1       2.262   4.581  18.735  0.00  0.00    +0.000 A 
ATOM      5  C   UNL     1       2.269   5.757  17.961  0.00  0.00    +0.000 A 
ATOM      6  C   UNL     1       2.187   7.008  18.568  0.00  0.00    +0.000 A 
ATOM      7  C   UNL     1       2.095   7.098  19.951  0.00  0.00    +0.000 A 
ATOM      8  C   UNL     1       2.080   5.935  20.723  0.00  0.00    +0.000 A 
ATOM      9  C   UNL     1       2.164   4.650  20.136  0.00  0.00    +0.000 A 
BRANCH   9  10
ATOM     10  C   UNL     1       2.132   3.479  21.089  0.00  0.00    +0.000 C 
ATOM     11  F   UNL     1       3.038   2.492  20.902  0.00  0.00    +0.000 F 
ATOM     12  F   UNL     1       2.273   3.875  22.385  0.00  0.00    +0.000 F 
ATOM     13  F   UNL     1       0.919   2.849  21.038  0.00  0.00    +0.000 F 
ENDBRANCH   9  10
ENDBRANCH   1   4
BRANCH   1  14
ATOM     14  N   UNL     1       4.049   2.629  18.068  0.00  0.00    +0.000 N 
ATOM     15  H   UNL     1       4.176   1.939  18.807  0.00  0.00    +0.000 HD
BRANCH  14  20
ATOM     16  C   UNL     1       6.570   4.847  16.473  0.00  0.00    +0.000 A 
ATOM     17  C   UNL     1       7.049   5.532  17.598  0.00  0.00    +0.000 A 
ATOM     18  C   UNL     1       6.514   5.269  18.859  0.00  0.00    +0.000 A 
ATOM     19  C   UNL     1       5.508   4.316  18.999  0.00  0.00    +0.000 A 
ATOM     20  C   UNL     1       5.038   3.628  17.880  0.00  0.00    +0.000 A 
ATOM     21  C   UNL     1       5.557   3.894  16.615  0.00  0.00    +0.000 A 
BRANCH  16  23
ATOM     22  N   UNL     1       7.562   5.340  14.128  0.00  0.00    +0.000 NA
ATOM     23  C   UNL     1       7.124   5.122  15.180  0.00  0.00    +0.000 C 
ENDBRANCH  16  23
ENDBRANCH  14  20
ENDBRANCH   1  14
TORSDOF 5
ENDMDL
MODEL 2
REMARK VINA RESULT:      -7.3      2.980      3.993
REMARK  Name = 
REMARK  5 active torsions:
REMARK  status: ('A' for Active; 'I' for Inactive)
REMARK    1  A    between atoms: C_2  and  C_3
REMARK    2  A    between atoms: C_7  and  N_8
REMARK    3  A    between atoms: N_8  and  S_9
REMARK    4  A    between atoms: S_9  and  C_12
REMARK    5  A    between atoms: C_17  and  C_18
REMARK                            x       y       z     vdW  Elec       q    Type
REMARK                         _______ _______ _______ _____ _____    ______ ____
ROOT
ATOM      1  S   UNL     1       5.022   4.980  17.606  0.00  0.00    +0.000 S 
ATOM      2  O   UNL     1       5.730   5.280  18.830  0.00  0.00    +0.000 OA
ATOM      3  O   UNL     1       4.637   6.042  16.702  0.00  0.00    +0.000 OA
ENDROOT
BRANCH   1   4
ATOM      4  C   UNL     1       3.561   4.070  18.071  0.00  0.00    +0.000 A 
ATOM      5  C   UNL     1       3.499   2.722  17.667  0.00  0.00    +0.000 A 
ATOM      6  C   UNL     1       2.376   1.947  17.948  0.00  0.00    +0.000 A 
ATOM      7  C   UNL     1       1.307   2.506  18.636  0.00  0.00    +0.000 A 
ATOM      8  C   UNL     1       1.366   3.839  19.045  0.00  0.00    +0.000 A 
ATOM      9  C   UNL     1       2.491   4.653  18.772  0.00  0.00    +0.000 A 
BRANCH   9  10
ATOM     10  C   UNL     1       2.422   6.075  19.278  0.00  0.00    +0.000 C 
ATOM     11  F   UNL     1       3.516   6.575  19.897  0.00  0.00    +0.000 F 
ATOM     12  F   UNL     1       2.121   6.954  18.281  0.00  0.00    +0.000 F 
ATOM     13  F   UNL     1       1.414   6.213  20.192  0.00  0.00    +0.000 F 
ENDBRANCH   9  10
ENDBRANCH   1   4
BRANCH   1  14
ATOM     14  N   UNL     1       5.931   3.860  16.735  0.00  0.00    +0.000 N 
ATOM     15  H   UNL     1       6.652   3.422  17.307  0.00  0.00    +0.000 HD
BRANCH  14  20
ATOM     16  C   UNL     1       5.680   3.833  13.026  0.00  0.00    +0.000 A 
ATOM     17  C   UNL     1       6.829   4.563  12.692  0.00  0.00    +0.000 A 
ATOM     18  C   UNL     1       7.652   5.072  13.696  0.00  0.00    +0.000 A 
ATOM     19  C   UNL     1       7.335   4.847  15.033  0.00  0.00    +0.000 A 
ATOM     20  C   UNL     1       6.196   4.113  15.365  0.00  0.00    +0.000 A 
ATOM     21  C   UNL     1       5.360   3.612  14.369  0.00  0.00    +0.000 A 
BRANCH  16  23
ATOM     22  N   UNL     1       4.167   2.891  11.144  0.00  0.00    +0.000 NA
ATOM     23  C   UNL     1       4.839   3.313  11.990  0.00  0.00    +0.000 C 
ENDBRANCH  16  23
ENDBRANCH  14  20
ENDBRANCH   1  14
TORSDOF 5
ENDMDL
MODEL 3
REMARK VINA RESULT:      -7.2      1.199      1.901
REMARK  Name = 
REMARK  5 active torsions:
REMARK  status: ('A' for Active; 'I' for Inactive)
REMARK    1  A    between atoms: C_2  and  C_3
REMARK    2  A    between atoms: C_7  and  N_8
REMARK    3  A    between atoms: N_8  and  S_9
REMARK    4  A    between atoms: S_9  and  C_12
REMARK    5  A    between atoms: C_17  and  C_18
REMARK                            x       y       z     vdW  Elec       q    Type
REMARK                         _______ _______ _______ _____ _____    ______ ____
ROOT
ATOM      1  S   UNL     1       2.670   3.000  17.773  0.00  0.00    +0.000 S 
ATOM      2  O   UNL     1       2.313   3.284  16.402  0.00  0.00    +0.000 OA
ATOM      3  O   UNL     1       2.027   1.919  18.489  0.00  0.00    +0.000 OA
ENDROOT
BRANCH   1   4
ATOM      4  C   UNL     1       2.431   4.512  18.688  0.00  0.00    +0.000 A 
ATOM      5  C   UNL     1       2.403   5.705  17.941  0.00  0.00    +0.000 A 
ATOM      6  C   UNL     1       2.264   6.937  18.577  0.00  0.00    +0.000 A 
ATOM      7  C   UNL     1       2.149   6.991  19.959  0.00  0.00    +0.000 A 
ATOM      8  C   UNL     1       2.169   5.810  20.704  0.00  0.00    +0.000 A 
ATOM      9  C   UNL     1       2.311   4.544  20.088  0.00  0.00    +0.000 A 
BRANCH   9  10
ATOM     10  C   UNL     1       2.312   3.350  21.014  0.00  0.00    +0.000 C 
ATOM     11  F   UNL     1       1.292   2.468  20.901  0.00  0.00    +0.000 F 
ATOM     12  F   UNL     1       3.454   2.618  20.897  0.00  0.00    +0.000 F 
ATOM     13  F   UNL     1       2.277   3.753  22.320  0.00  0.00    +0.000 F 
ENDBRANCH   9  10
ENDBRANCH   1   4
BRANCH   1  14
ATOM     14  N   UNL     1       4.335   2.749  17.842  0.00  0.00    +0.000 N 
ATOM     15  H   UNL     1       4.625   2.337  18.728  0.00  0.00    +0.000 HD
BRANCH  14  20
ATOM     16  C   UNL     1       6.755   5.512  17.273  0.00  0.00    +0.000 A 
ATOM     17  C   UNL     1       6.780   5.539  15.872  0.00  0.00    +0.000 A 
ATOM     18  C   UNL     1       6.018   4.630  15.140  0.00  0.00    +0.000 A 
ATOM     19  C   UNL     1       5.224   3.698  15.804  0.00  0.00    +0.000 A 
ATOM     20  C   UNL     1       5.192   3.677  17.199  0.00  0.00    +0.000 A 
ATOM     21  C   UNL     1       5.961   4.574  17.939  0.00  0.00    +0.000 A 
BRANCH  16  23
ATOM     22  N   UNL     1       8.175   7.202  18.634  0.00  0.00    +0.000 NA
ATOM     23  C   UNL     1       7.541   6.450  18.019  0.00  0.00    +0.000 C 
ENDBRANCH  16  23
ENDBRANCH  14  20
ENDBRANCH   1  14
TORSDOF 5
ENDMDL
MODEL 4
REMARK VINA RESULT:      -7.2      1.812      2.245
REMARK  Name = 
REMARK  5 active torsions:
REMARK  status: ('A' for Active; 'I' for Inactive)
REMARK    1  A    between atoms: C_2  and  C_3
REMARK    2  A    between atoms: C_7  and  N_8
REMARK    3  A    between atoms: N_8  and  S_9
REMARK    4  A    between atoms: S_9  and  C_12
REMARK    5  A    between atoms: C_17  and  C_18
REMARK                            x       y       z     vdW  Elec       q    Type
REMARK                         _______ _______ _______ _____ _____    ______ ____
ROOT
ATOM      1  S   UNL     1       4.457   3.107  19.057  0.00  0.00    +0.000 S 
ATOM      2  O   UNL     1       3.814   2.442  17.948  0.00  0.00    +0.000 OA
ATOM      3  O   UNL     1       4.932   2.346  20.194  0.00  0.00    +0.000 OA
ENDROOT
BRANCH   1   4
ATOM      4  C   UNL     1       3.319   4.350  19.640  0.00  0.00    +0.000 A 
ATOM      5  C   UNL     1       3.556   5.672  19.218  0.00  0.00    +0.000 A 
ATOM      6  C   UNL     1       2.743   6.715  19.659  0.00  0.00    +0.000 A 
ATOM      7  C   UNL     1       1.687   6.449  20.520  0.00  0.00    +0.000 A 
ATOM      8  C   UNL     1       1.442   5.139  20.935  0.00  0.00    +0.000 A 
ATOM      9  C   UNL     1       2.251   4.059  20.507  0.00  0.00    +0.000 A 
BRANCH   9  10
ATOM     10  C   UNL     1       1.870   2.694  21.030  0.00  0.00    +0.000 C 
ATOM     11  F   UNL     1       0.729   2.593  21.749  0.00  0.00    +0.000 F 
ATOM     12  F   UNL     1       1.763   1.778  20.028  0.00  0.00    +0.000 F 
ATOM     13  F   UNL     1       2.844   2.206  21.858  0.00  0.00    +0.000 F 
ENDBRANCH   9  10
ENDBRANCH   1   4
BRANCH   1  14
ATOM     14  N   UNL     1       5.752   4.001  18.455  0.00  0.00    +0.000 N 
ATOM     15  H   UNL     1       6.251   4.500  19.191  0.00  0.00    +0.000 HD
BRANCH  14  20
ATOM     16  C   UNL     1       5.794   4.503  14.772  0.00  0.00    +0.000 A 
ATOM     17  C   UNL     1       5.476   5.866  14.701  0.00  0.00    +0.000 A 
ATOM     18  C   UNL     1       5.228   6.589  15.867  0.00  0.00    +0.000 A 
ATOM     19  C   UNL     1       5.306   5.956  17.105  0.00  0.00    +0.000 A 
ATOM     20  C   UNL     1       5.631   4.601  17.176  0.00  0.00    +0.000 A 
ATOM     21  C   UNL     1       5.868   3.867  16.015  0.00  0.00    +0.000 A 
BRANCH  16  23
ATOM     22  N   UNL     1       6.241   3.164  12.597  0.00  0.00    +0.000 NA
ATOM     23  C   UNL     1       6.047   3.765  13.570  0.00  0.00    +0.000 C 
ENDBRANCH  16  23
ENDBRANCH  14  20
ENDBRANCH   1  14
TORSDOF 5
ENDMDL
MODEL 5
REMARK VINA RESULT:      -7.2      0.842      1.016
REMARK  Name = 
REMARK  5 active torsions:
REMARK  status: ('A' for Active; 'I' for Inactive)
REMARK    1  A    between atoms: C_2  and  C_3
REMARK    2  A    between atoms: C_7  and  N_8
REMARK    3  A    between atoms: N_8  and  S_9
REMARK    4  A    between atoms: S_9  and  C_12
REMARK    5  A    between atoms: C_17  and  C_18
REMARK                            x       y       z     vdW  Elec       q    Type
REMARK                         _______ _______ _______ _____ _____    ______ ____
ROOT
ATOM      1  S   UNL     1       2.636   3.127  17.827  0.00  0.00    +0.000 S 
ATOM      2  O   UNL     1       2.309   3.433  16.453  0.00  0.00    +0.000 OA
ATOM      3  O   UNL     1       1.974   2.038  18.513  0.00  0.00    +0.000 OA
ENDROOT
BRANCH   1   4
ATOM      4  C   UNL     1       2.381   4.626  18.760  0.00  0.00    +0.000 A 
ATOM      5  C   UNL     1       2.382   5.831  18.033  0.00  0.00    +0.000 A 
ATOM      6  C   UNL     1       2.235   7.054  18.684  0.00  0.00    +0.000 A 
ATOM      7  C   UNL     1       2.082   7.086  20.064  0.00  0.00    +0.000 A 
ATOM      8  C   UNL     1       2.073   5.893  20.789  0.00  0.00    +0.000 A 
ATOM      9  C   UNL     1       2.224   4.636  20.157  0.00  0.00    +0.000 A 
BRANCH   9  10
ATOM     10  C   UNL     1       2.191   3.427  21.062  0.00  0.00    +0.000 C 
ATOM     11  F   UNL     1       3.136   2.477  20.877  0.00  0.00    +0.000 F 
ATOM     12  F   UNL     1       2.263   3.775  22.377  0.00  0.00    +0.000 F 
ATOM     13  F   UNL     1       1.003   2.761  20.934  0.00  0.00    +0.000 F 
ENDBRANCH   9  10
ENDBRANCH   1   4
BRANCH   1  14
ATOM     14  N   UNL     1       4.297   2.870  17.927  0.00  0.00    +0.000 N 
ATOM     15  H   UNL     1       4.587   2.586  18.863  0.00  0.00    +0.000 HD
BRANCH  14  20
ATOM     16  C   UNL     1       6.236   4.247  15.070  0.00  0.00    +0.000 A 
ATOM     17  C   UNL     1       6.953   5.261  15.719  0.00  0.00    +0.000 A 
ATOM     18  C   UNL     1       6.766   5.489  17.082  0.00  0.00    +0.000 A 
ATOM     19  C   UNL     1       5.870   4.701  17.800  0.00  0.00    +0.000 A 
ATOM     20  C   UNL     1       5.163   3.686  17.155  0.00  0.00    +0.000 A 
ATOM     21  C   UNL     1       5.333   3.459  15.791  0.00  0.00    +0.000 A 
BRANCH  16  23
ATOM     22  N   UNL     1       6.590   3.820  12.537  0.00  0.00    +0.000 NA
ATOM     23  C   UNL     1       6.433   4.018  13.670  0.00  0.00    +0.000 C 
ENDBRANCH  16  23
ENDBRANCH  14  20
ENDBRANCH   1  14
TORSDOF 5
ENDMDL
MODEL 6
REMARK VINA RESULT:      -7.2      2.482      3.399
REMARK  Name = 
REMARK  5 active torsions:
REMARK  status: ('A' for Active; 'I' for Inactive)
REMARK    1  A    between atoms: C_2  and  C_3
REMARK    2  A    between atoms: C_7  and  N_8
REMARK    3  A    between atoms: N_8  and  S_9
REMARK    4  A    between atoms: S_9  and  C_12
REMARK    5  A    between atoms: C_17  and  C_18
REMARK                            x       y       z     vdW  Elec       q    Type
REMARK                         _______ _______ _______ _____ _____    ______ ____
ROOT
ATOM      1  S   UNL     1       4.533   4.912  18.500  0.00  0.00    +0.000 S 
ATOM      2  O   UNL     1       5.096   5.176  19.804  0.00  0.00    +0.000 OA
ATOM      3  O   UNL     1       4.210   6.004  17.606  0.00  0.00    +0.000 OA
ENDROOT
BRANCH   1   4
ATOM      4  C   UNL     1       3.063   3.939  18.764  0.00  0.00    +0.000 A 
ATOM      5  C   UNL     1       2.971   2.726  18.054  0.00  0.00    +0.000 A 
ATOM      6  C   UNL     1       1.839   1.922  18.164  0.00  0.00    +0.000 A 
ATOM      7  C   UNL     1       0.790   2.317  18.985  0.00  0.00    +0.000 A 
ATOM      8  C   UNL     1       0.879   3.514  19.697  0.00  0.00    +0.000 A 
ATOM      9  C   UNL     1       2.014   4.354  19.603  0.00  0.00    +0.000 A 
BRANCH   9  10
ATOM     10  C   UNL     1       1.979   5.617  20.432  0.00  0.00    +0.000 C 
ATOM     11  F   UNL     1       2.510   6.738  19.891  0.00  0.00    +0.000 F 
ATOM     12  F   UNL     1       0.710   5.946  20.801  0.00  0.00    +0.000 F 
ATOM     13  F   UNL     1       2.660   5.443  21.605  0.00  0.00    +0.000 F 
ENDBRANCH   9  10
ENDBRANCH   1   4
BRANCH   1  14
ATOM     14  N   UNL     1       5.567   3.863  17.683  0.00  0.00    +0.000 N 
ATOM     15  H   UNL     1       6.190   3.365  18.319  0.00  0.00    +0.000 HD
BRANCH  14  20
ATOM     16  C   UNL     1       5.980   4.074  13.995  0.00  0.00    +0.000 A 
ATOM     17  C   UNL     1       7.092   4.923  13.915  0.00  0.00    +0.000 A 
ATOM     18  C   UNL     1       7.670   5.431  15.078  0.00  0.00    +0.000 A 
ATOM     19  C   UNL     1       7.145   5.086  16.321  0.00  0.00    +0.000 A 
ATOM     20  C   UNL     1       6.044   4.233  16.400  0.00  0.00    +0.000 A 
ATOM     21  C   UNL     1       5.451   3.731  15.243  0.00  0.00    +0.000 A 
BRANCH  16  23
ATOM     22  N   UNL     1       4.906   3.127  11.833  0.00  0.00    +0.000 NA
ATOM     23  C   UNL     1       5.390   3.556  12.796  0.00  0.00    +0.000 C 
ENDBRANCH  16  23
ENDBRANCH  14  20
ENDBRANCH   1  14
TORSDOF 5
ENDMDL
MODEL 7
REMARK VINA RESULT:      -7.2      2.257      2.906
REMARK  Name = 
REMARK  5 active torsions:
REMARK  status: ('A' for Active; 'I' for Inactive)
REMARK    1  A    between atoms: C_2  and  C_3
REMARK    2  A    between atoms: C_7  and  N_8
REMARK    3  A    between atoms: N_8  and  S_9
REMARK    4  A    between atoms: S_9  and  C_12
REMARK    5  A    between atoms: C_17  and  C_18
REMARK                            x       y       z     vdW  Elec       q    Type
REMARK                         _______ _______ _______ _____ _____    ______ ____
ROOT
ATOM      1  S   UNL     1       4.695   4.170  17.958  0.00  0.00    +0.000 S 
ATOM      2  O   UNL     1       4.085   2.998  17.373  0.00  0.00    +0.000 OA
ATOM      3  O   UNL     1       5.957   4.067  18.658  0.00  0.00    +0.000 OA
ENDROOT
BRANCH   1   4
ATOM      4  C   UNL     1       3.487   4.879  19.062  0.00  0.00    +0.000 A 
ATOM      5  C   UNL     1       3.144   6.227  18.843  0.00  0.00    +0.000 A 
ATOM      6  C   UNL     1       2.242   6.876  19.684  0.00  0.00    +0.000 A 
ATOM      7  C   UNL     1       1.672   6.188  20.747  0.00  0.00    +0.000 A 
ATOM      8  C   UNL     1       2.003   4.849  20.964  0.00  0.00    +0.000 A 
ATOM      9  C   UNL     1       2.917   4.163  20.130  0.00  0.00    +0.000 A 
BRANCH   9  10
ATOM     10  C   UNL     1       3.180   2.716  20.477  0.00  0.00    +0.000 C 
ATOM     11  F   UNL     1       4.466   2.299  20.499  0.00  0.00    +0.000 F 
ATOM     12  F   UNL     1       2.658   2.383  21.691  0.00  0.00    +0.000 F 
ATOM     13  F   UNL     1       2.562   1.886  19.582  0.00  0.00    +0.000 F 
ENDBRANCH   9  10
ENDBRANCH   1   4
BRANCH   1  14
ATOM     14  N   UNL     1       4.864   5.332  16.751  0.00  0.00    +0.000 N 
ATOM     15  H   UNL     1       4.052   5.947  16.692  0.00  0.00    +0.000 HD
BRANCH  14  20
ATOM     16  C   UNL     1       5.607   4.023  13.352  0.00  0.00    +0.000 A 
ATOM     17  C   UNL     1       6.989   4.242  13.295  0.00  0.00    +0.000 A 
ATOM     18  C   UNL     1       7.649   4.841  14.368  0.00  0.00    +0.000 A 
ATOM     19  C   UNL     1       6.930   5.213  15.502  0.00  0.00    +0.000 A 
ATOM     20  C   UNL     1       5.555   4.987  15.562  0.00  0.00    +0.000 A 
ATOM     21  C   UNL     1       4.885   4.401  14.489  0.00  0.00    +0.000 A 
BRANCH  16  23
ATOM     22  N   UNL     1       4.381   2.915  11.353  0.00  0.00    +0.000 NA
ATOM     23  C   UNL     1       4.935   3.407  12.246  0.00  0.00    +0.000 C 
ENDBRANCH  16  23
ENDBRANCH  14  20
ENDBRANCH   1  14
TORSDOF 5
ENDMDL
MODEL 8
REMARK VINA RESULT:      -7.2      3.465      6.305
REMARK  Name = 
REMARK  5 active torsions:
REMARK  status: ('A' for Active; 'I' for Inactive)
REMARK    1  A    between atoms: C_2  and  C_3
REMARK    2  A    between atoms: C_7  and  N_8
REMARK    3  A    between atoms: N_8  and  S_9
REMARK    4  A    between atoms: S_9  and  C_12
REMARK    5  A    between atoms: C_17  and  C_18
REMARK                            x       y       z     vdW  Elec       q    Type
REMARK                         _______ _______ _______ _____ _____    ______ ____
ROOT
ATOM      1  S   UNL     1       2.813   6.105  18.467  0.00  0.00    +0.000 S 
ATOM      2  O   UNL     1       3.309   5.840  19.798  0.00  0.00    +0.000 OA
ATOM      3  O   UNL     1       1.501   5.644  18.067  0.00  0.00    +0.000 OA
ENDROOT
BRANCH   1   4
ATOM      4  C   UNL     1       4.019   5.444  17.331  0.00  0.00    +0.000 A 
ATOM      5  C   UNL     1       4.799   6.377  16.622  0.00  0.00    +0.000 A 
ATOM      6  C   UNL     1       5.735   5.953  15.682  0.00  0.00    +0.000 A 
ATOM      7  C   UNL     1       5.904   4.596  15.441  0.00  0.00    +0.000 A 
ATOM      8  C   UNL     1       5.139   3.665  16.147  0.00  0.00    +0.000 A 
ATOM      9  C   UNL     1       4.178   4.065  17.106  0.00  0.00    +0.000 A 
BRANCH   9  10
ATOM     10  C   UNL     1       3.425   2.953  17.797  0.00  0.00    +0.000 C 
ATOM     11  F   UNL     1       3.357   2.985  19.147  0.00  0.00    +0.000 F 
ATOM     12  F   UNL     1       2.138   2.864  17.360  0.00  0.00    +0.000 F 
ATOM     13  F   UNL     1       3.985   1.739  17.508  0.00  0.00    +0.000 F 
ENDBRANCH   9  10
ENDBRANCH   1   4
BRANCH   1  14
ATOM     14  N   UNL     1       2.882   7.767  18.201  0.00  0.00    +0.000 N 
ATOM     15  H   UNL     1       3.842   8.108  18.151  0.00  0.00    +0.000 HD
BRANCH  14  20
ATOM     16  C   UNL     1       0.715   9.464  20.699  0.00  0.00    +0.000 A 
ATOM     17  C   UNL     1      -0.156  10.155  19.846  0.00  0.00    +0.000 A 
ATOM     18  C   UNL     1       0.002  10.070  18.464  0.00  0.00    +0.000 A 
ATOM     19  C   UNL     1       1.024   9.289  17.930  0.00  0.00    +0.000 A 
ATOM     20  C   UNL     1       1.886   8.593  18.779  0.00  0.00    +0.000 A 
ATOM     21  C   UNL     1       1.743   8.683  20.162  0.00  0.00    +0.000 A 
BRANCH  16  23
ATOM     22  N   UNL     1       0.403   9.621  23.268  0.00  0.00    +0.000 NA
ATOM     23  C   UNL     1       0.547   9.556  22.119  0.00  0.00    +0.000 C 
ENDBRANCH  16  23
ENDBRANCH  14  20
ENDBRANCH   1  14
TORSDOF 5
ENDMDL
MODEL 9
REMARK VINA RESULT:      -7.1      2.810      3.659
REMARK  Name = 
REMARK  5 active torsions:
REMARK  status: ('A' for Active; 'I' for Inactive)
REMARK    1  A    between atoms: C_2  and  C_3
REMARK    2  A    between atoms: C_7  and  N_8
REMARK    3  A    between atoms: N_8  and  S_9
REMARK    4  A    between atoms: S_9  and  C_12
REMARK    5  A    between atoms: C_17  and  C_18
REMARK                            x       y       z     vdW  Elec       q    Type
REMARK                         _______ _______ _______ _____ _____    ______ ____
ROOT
ATOM      1  S   UNL     1       4.785   4.654  18.902  0.00  0.00    +0.000 S 
ATOM      2  O   UNL     1       5.819   4.683  19.911  0.00  0.00    +0.000 OA
ATOM      3  O   UNL     1       4.393   5.868  18.219  0.00  0.00    +0.000 OA
ENDROOT
BRANCH   1   4
ATOM      4  C   UNL     1       3.342   3.940  19.668  0.00  0.00    +0.000 A 
ATOM      5  C   UNL     1       3.516   3.381  20.949  0.00  0.00    +0.000 A 
ATOM      6  C   UNL     1       2.454   2.762  21.605  0.00  0.00    +0.000 A 
ATOM      7  C   UNL     1       1.210   2.698  20.993  0.00  0.00    +0.000 A 
ATOM      8  C   UNL     1       1.029   3.257  19.727  0.00  0.00    +0.000 A 
ATOM      9  C   UNL     1       2.088   3.889  19.034  0.00  0.00    +0.000 A 
BRANCH   9  10
ATOM     10  C   UNL     1       1.751   4.454  17.674  0.00  0.00    +0.000 C 
ATOM     11  F   UNL     1       1.851   5.793  17.508  0.00  0.00    +0.000 F 
ATOM     12  F   UNL     1       2.511   3.898  16.690  0.00  0.00    +0.000 F 
ATOM     13  F   UNL     1       0.458   4.160  17.337  0.00  0.00    +0.000 F 
ENDBRANCH   9  10
ENDBRANCH   1   4
BRANCH   1  14
ATOM     14  N   UNL     1       5.221   3.521  17.735  0.00  0.00    +0.000 N 
ATOM     15  H   UNL     1       5.552   2.650  18.150  0.00  0.00    +0.000 HD
BRANCH  14  20
ATOM     16  C   UNL     1       5.925   4.010  14.118  0.00  0.00    +0.000 A 
ATOM     17  C   UNL     1       7.065   4.822  14.192  0.00  0.00    +0.000 A 
ATOM     18  C   UNL     1       7.567   5.214  15.433  0.00  0.00    +0.000 A 
ATOM     19  C   UNL     1       6.937   4.790  16.600  0.00  0.00    +0.000 A 
ATOM     20  C   UNL     1       5.807   3.975  16.526  0.00  0.00    +0.000 A 
ATOM     21  C   UNL     1       5.291   3.589  15.291  0.00  0.00    +0.000 A 
BRANCH  16  23
ATOM     22  N   UNL     1       4.991   3.286  11.810  0.00  0.00    +0.000 NA
ATOM     23  C   UNL     1       5.415   3.611  12.840  0.00  0.00    +0.000 C 
ENDBRANCH  16  23
ENDBRANCH  14  20
ENDBRANCH   1  14
TORSDOF 5
ENDMDL
