MODEL 1
REMARK VINA RESULT:      -9.2      0.000      0.000
REMARK  Name = 
REMARK  3 active torsions:
REMARK  status: ('A' for Active; 'I' for Inactive)
REMARK    1  A    between atoms: C_7  and  O_8
REMARK    2  A    between atoms: C_15  and  O_16
REMARK    3  A    between atoms: C_20  and  C_21
REMARK                            x       y       z     vdW  Elec       q    Type
REMARK                         _______ _______ _______ _____ _____    ______ ____
ROOT
ATOM      1  O   UNL     1      -0.346  15.314  21.150  0.00  0.00    +0.000 OA
ATOM      2  C   UNL     1       0.385  14.512  20.659  0.00  0.00    +0.000 C 
ATOM      3  C   UNL     1       1.510  14.930  19.789  0.00  0.00    +0.000 A 
ATOM      4  C   UNL     1       1.863  16.283  19.710  0.00  0.00    +0.000 A 
ATOM      5  C   UNL     1       2.956  16.671  18.937  0.00  0.00    +0.000 A 
ATOM      6  C   UNL     1       3.702  15.721  18.236  0.00  0.00    +0.000 A 
ATOM      7  C   UNL     1       3.350  14.377  18.319  0.00  0.00    +0.000 A 
ATOM      8  C   UNL     1       2.243  13.979  19.083  0.00  0.00    +0.000 A 
ATOM      9  C   UNL     1       1.815  12.574  19.140  0.00  0.00    +0.000 C 
ATOM     10  O   UNL     1       2.108  11.806  18.234  0.00  0.00    +0.000 OA
ATOM     11  C   UNL     1       0.963  12.119  20.249  0.00  0.00    +0.000 A 
ATOM     12  C   UNL     1       0.221  13.060  20.943  0.00  0.00    +0.000 A 
ATOM     13  C   UNL     1      -0.688  12.672  21.939  0.00  0.00    +0.000 A 
ATOM     14  C   UNL     1      -0.819  11.299  22.250  0.00  0.00    +0.000 A 
ATOM     15  C   UNL     1      -0.060  10.341  21.575  0.00  0.00    +0.000 A 
ATOM     16  C   UNL     1       0.855  10.742  20.570  0.00  0.00    +0.000 A 
ATOM     17  C   UNL     1       1.644   9.716  19.826  0.00  0.00    +0.000 C 
ATOM     18  C   UNL     1       1.713   8.377  20.537  0.00  0.00    +0.000 C 
ATOM     19  O   UNL     1       0.393   8.021  21.005  0.00  0.00    +0.000 OA
ATOM     20  C   UNL     1      -0.223   8.874  21.885  0.00  0.00    +0.000 C 
ATOM     21  O   UNL     1      -0.928   8.436  22.775  0.00  0.00    +0.000 OA
ENDROOT
BRANCH  18  22
ATOM     22  C   UNL     1       2.196   7.317  19.551  0.00  0.00    +0.000 A 
ATOM     23  C   UNL     1       2.869   7.779  18.393  0.00  0.00    +0.000 A 
ATOM     24  C   UNL     1       3.427   6.895  17.482  0.00  0.00    +0.000 A 
ATOM     25  C   UNL     1       3.157   5.546  17.606  0.00  0.00    +0.000 A 
ATOM     26  C   UNL     1       2.381   5.070  18.667  0.00  0.00    +0.000 A 
ATOM     27  C   UNL     1       1.933   3.753  18.625  0.00  0.00    +0.000 A 
ATOM     28  C   UNL     1       1.096   3.294  19.627  0.00  0.00    +0.000 A 
ATOM     29  C   UNL     1       1.313   3.839  20.873  0.00  0.00    +0.000 A 
ATOM     30  C   UNL     1       1.613   5.210  20.929  0.00  0.00    +0.000 A 
ATOM     31  C   UNL     1       2.031   5.902  19.757  0.00  0.00    +0.000 A 
ENDBRANCH  18  22
BRANCH   7  32
ATOM     32  O   UNL     1       4.131  13.451  17.694  0.00  0.00    +0.000 OA
ATOM     33  H   UNL     1       4.910  13.232  18.226  0.00  0.00    +0.000 HD
ENDBRANCH   7  32
BRANCH  14  34
ATOM     34  O   UNL     1      -1.733  10.943  23.197  0.00  0.00    +0.000 OA
ATOM     35  H   UNL     1      -2.219  11.709  23.529  0.00  0.00    +0.000 HD
ENDBRANCH  14  34
TORSDOF 3
ENDMDL
MODEL 2
REMARK VINA RESULT:      -7.9      5.081      9.296
REMARK  Name = 
REMARK  3 active torsions:
REMARK  status: ('A' for Active; 'I' for Inactive)
REMARK    1  A    between atoms: C_7  and  O_8
REMARK    2  A    between atoms: C_15  and  O_16
REMARK    3  A    between atoms: C_20  and  C_21
REMARK                            x       y       z     vdW  Elec       q    Type
REMARK                         _______ _______ _______ _____ _____    ______ ____
ROOT
ATOM      1  O   UNL     1      -0.164  10.728  23.328  0.00  0.00    +0.000 OA
ATOM      2  C   UNL     1      -0.769  11.016  22.343  0.00  0.00    +0.000 C 
ATOM      3  C   UNL     1      -0.286  10.616  21.000  0.00  0.00    +0.000 A 
ATOM      4  C   UNL     1       0.770   9.704  20.885  0.00  0.00    +0.000 A 
ATOM      5  C   UNL     1       1.189   9.282  19.624  0.00  0.00    +0.000 A 
ATOM      6  C   UNL     1       0.565   9.765  18.471  0.00  0.00    +0.000 A 
ATOM      7  C   UNL     1      -0.486  10.669  18.590  0.00  0.00    +0.000 A 
ATOM      8  C   UNL     1      -0.904  11.110  19.854  0.00  0.00    +0.000 A 
ATOM      9  C   UNL     1      -1.972  12.109  20.005  0.00  0.00    +0.000 C 
ATOM     10  O   UNL     1      -2.222  12.881  19.089  0.00  0.00    +0.000 OA
ATOM     11  C   UNL     1      -2.680  12.227  21.288  0.00  0.00    +0.000 A 
ATOM     12  C   UNL     1      -2.061  11.752  22.432  0.00  0.00    +0.000 A 
ATOM     13  C   UNL     1      -2.641  11.934  23.696  0.00  0.00    +0.000 A 
ATOM     14  C   UNL     1      -3.889  12.589  23.789  0.00  0.00    +0.000 A 
ATOM     15  C   UNL     1      -4.537  13.054  22.642  0.00  0.00    +0.000 A 
ATOM     16  C   UNL     1      -3.943  12.866  21.369  0.00  0.00    +0.000 A 
ATOM     17  C   UNL     1      -4.619  13.391  20.146  0.00  0.00    +0.000 C 
ATOM     18  C   UNL     1      -6.096  13.676  20.348  0.00  0.00    +0.000 C 
ATOM     19  O   UNL     1      -6.273  14.392  21.591  0.00  0.00    +0.000 OA
ATOM     20  C   UNL     1      -5.854  13.781  22.745  0.00  0.00    +0.000 C 
ATOM     21  O   UNL     1      -6.476  13.930  23.781  0.00  0.00    +0.000 OA
ENDROOT
BRANCH  18  22
ATOM     22  C   UNL     1      -6.596  14.542  19.196  0.00  0.00    +0.000 A 
ATOM     23  C   UNL     1      -7.337  13.891  18.180  0.00  0.00    +0.000 A 
ATOM     24  C   UNL     1      -7.914  14.602  17.139  0.00  0.00    +0.000 A 
ATOM     25  C   UNL     1      -7.599  15.938  16.986  0.00  0.00    +0.000 A 
ATOM     26  C   UNL     1      -6.759  16.581  17.900  0.00  0.00    +0.000 A 
ATOM     27  C   UNL     1      -6.276  17.847  17.583  0.00  0.00    +0.000 A 
ATOM     28  C   UNL     1      -5.378  18.460  18.439  0.00  0.00    +0.000 A 
ATOM     29  C   UNL     1      -5.549  18.174  19.776  0.00  0.00    +0.000 A 
ATOM     30  C   UNL     1      -5.885  16.853  20.111  0.00  0.00    +0.000 A 
ATOM     31  C   UNL     1      -6.380  15.963  19.115  0.00  0.00    +0.000 A 
ENDBRANCH  18  22
BRANCH   7  32
ATOM     32  O   UNL     1      -1.138  11.074  17.463  0.00  0.00    +0.000 OA
ATOM     33  H   UNL     1      -1.076  10.408  16.763  0.00  0.00    +0.000 HD
ENDBRANCH   7  32
BRANCH  14  34
ATOM     34  O   UNL     1      -4.418  12.784  25.031  0.00  0.00    +0.000 OA
ATOM     35  H   UNL     1      -3.987  12.228  25.693  0.00  0.00    +0.000 HD
ENDBRANCH  14  34
TORSDOF 3
ENDMDL
MODEL 3
REMARK VINA RESULT:      -7.9      1.897      7.986
REMARK  Name = 
REMARK  3 active torsions:
REMARK  status: ('A' for Active; 'I' for Inactive)
REMARK    1  A    between atoms: C_7  and  O_8
REMARK    2  A    between atoms: C_15  and  O_16
REMARK    3  A    between atoms: C_20  and  C_21
REMARK                            x       y       z     vdW  Elec       q    Type
REMARK                         _______ _______ _______ _____ _____    ______ ____
ROOT
ATOM      1  O   UNL     1       0.062   9.011  22.813  0.00  0.00    +0.000 OA
ATOM      2  C   UNL     1       0.243   9.721  21.874  0.00  0.00    +0.000 C 
ATOM      3  C   UNL     1       0.952   9.233  20.668  0.00  0.00    +0.000 A 
ATOM      4  C   UNL     1       1.225   7.867  20.526  0.00  0.00    +0.000 A 
ATOM      5  C   UNL     1       1.842   7.397  19.367  0.00  0.00    +0.000 A 
ATOM      6  C   UNL     1       2.194   8.281  18.345  0.00  0.00    +0.000 A 
ATOM      7  C   UNL     1       1.918   9.638  18.486  0.00  0.00    +0.000 A 
ATOM      8  C   UNL     1       1.312  10.120  19.655  0.00  0.00    +0.000 A 
ATOM      9  C   UNL     1       1.064  11.555  19.856  0.00  0.00    +0.000 C 
ATOM     10  O   UNL     1       1.733  12.383  19.253  0.00  0.00    +0.000 OA
ATOM     11  C   UNL     1       0.066  11.988  20.845  0.00  0.00    +0.000 A 
ATOM     12  C   UNL     1      -0.282  11.115  21.862  0.00  0.00    +0.000 A 
ATOM     13  C   UNL     1      -1.147  11.513  22.892  0.00  0.00    +0.000 A 
ATOM     14  C   UNL     1      -1.688  12.818  22.867  0.00  0.00    +0.000 A 
ATOM     15  C   UNL     1      -1.365  13.703  21.836  0.00  0.00    +0.000 A 
ATOM     16  C   UNL     1      -0.490  13.293  20.799  0.00  0.00    +0.000 A 
ATOM     17  C   UNL     1      -0.119  14.248  19.714  0.00  0.00    +0.000 C 
ATOM     18  C   UNL     1      -1.077  15.419  19.588  0.00  0.00    +0.000 C 
ATOM     19  O   UNL     1      -1.350  15.948  20.905  0.00  0.00    +0.000 OA
ATOM     20  C   UNL     1      -1.918  15.106  21.826  0.00  0.00    +0.000 C 
ATOM     21  O   UNL     1      -2.729  15.528  22.629  0.00  0.00    +0.000 OA
ENDROOT
BRANCH  18  22
ATOM     22  C   UNL     1      -0.422  16.505  18.739  0.00  0.00    +0.000 A 
ATOM     23  C   UNL     1      -1.261  17.549  18.278  0.00  0.00    +0.000 A 
ATOM     24  C   UNL     1      -0.749  18.631  17.578  0.00  0.00    +0.000 A 
ATOM     25  C   UNL     1       0.567  18.594  17.159  0.00  0.00    +0.000 A 
ATOM     26  C   UNL     1       1.388  17.510  17.484  0.00  0.00    +0.000 A 
ATOM     27  C   UNL     1       2.620  17.394  16.847  0.00  0.00    +0.000 A 
ATOM     28  C   UNL     1       3.406  16.283  17.097  0.00  0.00    +0.000 A 
ATOM     29  C   UNL     1       3.312  15.770  18.372  0.00  0.00    +0.000 A 
ATOM     30  C   UNL     1       2.037  15.742  18.959  0.00  0.00    +0.000 A 
ATOM     31  C   UNL     1       0.982  16.532  18.421  0.00  0.00    +0.000 A 
ENDBRANCH  18  22
BRANCH   7  32
ATOM     32  O   UNL     1       2.196  10.479  17.450  0.00  0.00    +0.000 OA
ATOM     33  H   UNL     1       1.614  11.254  17.462  0.00  0.00    +0.000 HD
ENDBRANCH   7  32
BRANCH  14  34
ATOM     34  O   UNL     1      -2.500  13.193  23.896  0.00  0.00    +0.000 OA
ATOM     35  H   UNL     1      -3.381  13.438  23.584  0.00  0.00    +0.000 HD
ENDBRANCH  14  34
TORSDOF 3
ENDMDL
MODEL 4
REMARK VINA RESULT:      -7.8      6.171      8.951
REMARK  Name = 
REMARK  3 active torsions:
REMARK  status: ('A' for Active; 'I' for Inactive)
REMARK    1  A    between atoms: C_7  and  O_8
REMARK    2  A    between atoms: C_15  and  O_16
REMARK    3  A    between atoms: C_20  and  C_21
REMARK                            x       y       z     vdW  Elec       q    Type
REMARK                         _______ _______ _______ _____ _____    ______ ____
ROOT
ATOM      1  O   UNL     1      -5.596  12.659  24.473  0.00  0.00    +0.000 OA
ATOM      2  C   UNL     1      -5.059  12.969  23.456  0.00  0.00    +0.000 C 
ATOM      3  C   UNL     1      -5.669  12.659  22.141  0.00  0.00    +0.000 A 
ATOM      4  C   UNL     1      -6.989  12.195  22.078  0.00  0.00    +0.000 A 
ATOM      5  C   UNL     1      -7.584  11.957  20.840  0.00  0.00    +0.000 A 
ATOM      6  C   UNL     1      -6.871  12.174  19.658  0.00  0.00    +0.000 A 
ATOM      7  C   UNL     1      -5.561  12.638  19.724  0.00  0.00    +0.000 A 
ATOM      8  C   UNL     1      -4.950  12.866  20.966  0.00  0.00    +0.000 A 
ATOM      9  C   UNL     1      -3.549  13.299  21.065  0.00  0.00    +0.000 C 
ATOM     10  O   UNL     1      -2.769  13.064  20.151  0.00  0.00    +0.000 OA
ATOM     11  C   UNL     1      -3.072  13.939  22.299  0.00  0.00    +0.000 A 
ATOM     12  C   UNL     1      -3.775  13.722  23.472  0.00  0.00    +0.000 A 
ATOM     13  C   UNL     1      -3.307  14.220  24.697  0.00  0.00    +0.000 A 
ATOM     14  C   UNL     1      -2.114  14.976  24.720  0.00  0.00    +0.000 A 
ATOM     15  C   UNL     1      -1.405  15.223  23.541  0.00  0.00    +0.000 A 
ATOM     16  C   UNL     1      -1.885  14.716  22.308  0.00  0.00    +0.000 A 
ATOM     17  C   UNL     1      -1.113  14.952  21.053  0.00  0.00    +0.000 C 
ATOM     18  C   UNL     1      -0.124  16.098  21.160  0.00  0.00    +0.000 C 
ATOM     19  O   UNL     1       0.605  15.978  22.403  0.00  0.00    +0.000 OA
ATOM     20  C   UNL     1      -0.115  16.003  23.569  0.00  0.00    +0.000 C 
ATOM     21  O   UNL     1       0.341  16.537  24.563  0.00  0.00    +0.000 OA
ENDROOT
BRANCH  18  22
ATOM     22  C   UNL     1       0.859  16.016  19.995  0.00  0.00    +0.000 A 
ATOM     23  C   UNL     1       1.964  15.144  20.150  0.00  0.00    +0.000 A 
ATOM     24  C   UNL     1       2.863  14.927  19.117  0.00  0.00    +0.000 A 
ATOM     25  C   UNL     1       2.788  15.719  17.988  0.00  0.00    +0.000 A 
ATOM     26  C   UNL     1       1.786  16.685  17.861  0.00  0.00    +0.000 A 
ATOM     27  C   UNL     1       1.886  17.617  16.832  0.00  0.00    +0.000 A 
ATOM     28  C   UNL     1       0.946  18.629  16.745  0.00  0.00    +0.000 A 
ATOM     29  C   UNL     1      -0.323  18.292  17.159  0.00  0.00    +0.000 A 
ATOM     30  C   UNL     1      -0.431  17.475  18.296  0.00  0.00    +0.000 A 
ATOM     31  C   UNL     1       0.698  16.743  18.763  0.00  0.00    +0.000 A 
ENDBRANCH  18  22
BRANCH   7  32
ATOM     32  O   UNL     1      -4.902  12.920  18.564  0.00  0.00    +0.000 OA
ATOM     33  H   UNL     1      -4.923  12.165  17.957  0.00  0.00    +0.000 HD
ENDBRANCH   7  32
BRANCH  14  34
ATOM     34  O   UNL     1      -1.661  15.421  25.926  0.00  0.00    +0.000 OA
ATOM     35  H   UNL     1      -1.695  16.384  25.986  0.00  0.00    +0.000 HD
ENDBRANCH  14  34
TORSDOF 3
ENDMDL
MODEL 5
REMARK VINA RESULT:      -7.6      3.481      6.476
REMARK  Name = 
REMARK  3 active torsions:
REMARK  status: ('A' for Active; 'I' for Inactive)
REMARK    1  A    between atoms: C_7  and  O_8
REMARK    2  A    between atoms: C_15  and  O_16
REMARK    3  A    between atoms: C_20  and  C_21
REMARK                            x       y       z     vdW  Elec       q    Type
REMARK                         _______ _______ _______ _____ _____    ______ ____
ROOT
ATOM      1  O   UNL     1      -4.394  17.654  21.087  0.00  0.00    +0.000 OA
ATOM      2  C   UNL     1      -4.254  16.472  21.093  0.00  0.00    +0.000 C 
ATOM      3  C   UNL     1      -5.385  15.567  21.409  0.00  0.00    +0.000 A 
ATOM      4  C   UNL     1      -6.686  16.080  21.488  0.00  0.00    +0.000 A 
ATOM      5  C   UNL     1      -7.758  15.222  21.729  0.00  0.00    +0.000 A 
ATOM      6  C   UNL     1      -7.545  13.851  21.895  0.00  0.00    +0.000 A 
ATOM      7  C   UNL     1      -6.252  13.344  21.812  0.00  0.00    +0.000 A 
ATOM      8  C   UNL     1      -5.166  14.202  21.585  0.00  0.00    +0.000 A 
ATOM      9  C   UNL     1      -3.784  13.701  21.552  0.00  0.00    +0.000 C 
ATOM     10  O   UNL     1      -3.497  12.659  22.126  0.00  0.00    +0.000 OA
ATOM     11  C   UNL     1      -2.738  14.499  20.897  0.00  0.00    +0.000 A 
ATOM     12  C   UNL     1      -2.946  15.858  20.735  0.00  0.00    +0.000 A 
ATOM     13  C   UNL     1      -1.939  16.686  20.214  0.00  0.00    +0.000 A 
ATOM     14  C   UNL     1      -0.709  16.109  19.828  0.00  0.00    +0.000 A 
ATOM     15  C   UNL     1      -0.492  14.735  19.964  0.00  0.00    +0.000 A 
ATOM     16  C   UNL     1      -1.515  13.907  20.491  0.00  0.00    +0.000 A 
ATOM     17  C   UNL     1      -1.273  12.445  20.667  0.00  0.00    +0.000 C 
ATOM     18  C   UNL     1      -0.113  11.921  19.840  0.00  0.00    +0.000 C 
ATOM     19  O   UNL     1       1.008  12.823  19.976  0.00  0.00    +0.000 OA
ATOM     20  C   UNL     1       0.832  14.124  19.580  0.00  0.00    +0.000 C 
ATOM     21  O   UNL     1       1.743  14.737  19.055  0.00  0.00    +0.000 OA
ENDROOT
BRANCH  18  22
ATOM     22  C   UNL     1       0.287  10.544  20.364  0.00  0.00    +0.000 A 
ATOM     23  C   UNL     1      -0.002  10.268  21.722  0.00  0.00    +0.000 A 
ATOM     24  C   UNL     1       0.237   9.017  22.271  0.00  0.00    +0.000 A 
ATOM     25  C   UNL     1       0.944   8.087  21.533  0.00  0.00    +0.000 A 
ATOM     26  C   UNL     1       1.362   8.379  20.232  0.00  0.00    +0.000 A 
ATOM     27  C   UNL     1       2.270   7.521  19.616  0.00  0.00    +0.000 A 
ATOM     28  C   UNL     1       2.756   7.843  18.361  0.00  0.00    +0.000 A 
ATOM     29  C   UNL     1       1.873   8.511  17.540  0.00  0.00    +0.000 A 
ATOM     30  C   UNL     1       1.063   9.492  18.134  0.00  0.00    +0.000 A 
ATOM     31  C   UNL     1       0.901   9.529  19.549  0.00  0.00    +0.000 A 
ENDBRANCH  18  22
BRANCH   7  32
ATOM     32  O   UNL     1      -6.065  11.996  21.899  0.00  0.00    +0.000 OA
ATOM     33  H   UNL     1      -6.348  11.658  22.761  0.00  0.00    +0.000 HD
ENDBRANCH   7  32
BRANCH  14  34
ATOM     34  O   UNL     1       0.266  16.937  19.356  0.00  0.00    +0.000 OA
ATOM     35  H   UNL     1       1.107  16.473  19.250  0.00  0.00    +0.000 HD
ENDBRANCH  14  34
TORSDOF 3
ENDMDL
MODEL 6
REMARK VINA RESULT:      -7.6      3.118      6.244
REMARK  Name = 
REMARK  3 active torsions:
REMARK  status: ('A' for Active; 'I' for Inactive)
REMARK    1  A    between atoms: C_7  and  O_8
REMARK    2  A    between atoms: C_15  and  O_16
REMARK    3  A    between atoms: C_20  and  C_21
REMARK                            x       y       z     vdW  Elec       q    Type
REMARK                         _______ _______ _______ _____ _____    ______ ____
ROOT
ATOM      1  O   UNL     1      -2.561  17.742  23.853  0.00  0.00    +0.000 OA
ATOM      2  C   UNL     1      -2.636  16.603  23.513  0.00  0.00    +0.000 C 
ATOM      3  C   UNL     1      -3.908  15.850  23.625  0.00  0.00    +0.000 A 
ATOM      4  C   UNL     1      -5.095  16.530  23.924  0.00  0.00    +0.000 A 
ATOM      5  C   UNL     1      -6.301  15.833  23.973  0.00  0.00    +0.000 A 
ATOM      6  C   UNL     1      -6.335  14.458  23.729  0.00  0.00    +0.000 A 
ATOM      7  C   UNL     1      -5.154  13.786  23.428  0.00  0.00    +0.000 A 
ATOM      8  C   UNL     1      -3.935  14.477  23.392  0.00  0.00    +0.000 A 
ATOM      9  C   UNL     1      -2.665  13.781  23.135  0.00  0.00    +0.000 C 
ATOM     10  O   UNL     1      -2.564  12.585  23.371  0.00  0.00    +0.000 OA
ATOM     11  C   UNL     1      -1.498  14.546  22.674  0.00  0.00    +0.000 A 
ATOM     12  C   UNL     1      -1.461  15.909  22.919  0.00  0.00    +0.000 A 
ATOM     13  C   UNL     1      -0.327  16.670  22.597  0.00  0.00    +0.000 A 
ATOM     14  C   UNL     1       0.778  16.031  21.990  0.00  0.00    +0.000 A 
ATOM     15  C   UNL     1       0.747  14.662  21.716  0.00  0.00    +0.000 A 
ATOM     16  C   UNL     1      -0.403  13.900  22.045  0.00  0.00    +0.000 A 
ATOM     17  C   UNL     1      -0.425  12.432  21.782  0.00  0.00    +0.000 C 
ATOM     18  C   UNL     1       0.617  11.984  20.773  0.00  0.00    +0.000 C 
ATOM     19  O   UNL     1       1.882  12.604  21.094  0.00  0.00    +0.000 OA
ATOM     20  C   UNL     1       1.937  13.974  21.096  0.00  0.00    +0.000 C 
ATOM     21  O   UNL     1       2.940  14.551  20.715  0.00  0.00    +0.000 OA
ENDROOT
BRANCH  18  22
ATOM     22  C   UNL     1       0.768  10.467  20.858  0.00  0.00    +0.000 A 
ATOM     23  C   UNL     1       0.413   9.856  22.086  0.00  0.00    +0.000 A 
ATOM     24  C   UNL     1       0.427   8.478  22.236  0.00  0.00    +0.000 A 
ATOM     25  C   UNL     1       0.978   7.701  21.236  0.00  0.00    +0.000 A 
ATOM     26  C   UNL     1       1.461   8.288  20.063  0.00  0.00    +0.000 A 
ATOM     27  C   UNL     1       2.221   7.510  19.193  0.00  0.00    +0.000 A 
ATOM     28  C   UNL     1       2.775   8.100  18.071  0.00  0.00    +0.000 A 
ATOM     29  C   UNL     1       2.034   9.117  17.512  0.00  0.00    +0.000 A 
ATOM     30  C   UNL     1       1.391  10.001  18.393  0.00  0.00    +0.000 A 
ATOM     31  C   UNL     1       1.214   9.648  19.762  0.00  0.00    +0.000 A 
ENDBRANCH  18  22
BRANCH   7  32
ATOM     32  O   UNL     1      -5.211  12.460  23.116  0.00  0.00    +0.000 OA
ATOM     33  H   UNL     1      -5.014  11.909  23.888  0.00  0.00    +0.000 HD
ENDBRANCH   7  32
BRANCH  14  34
ATOM     34  O   UNL     1       1.882  16.784  21.717  0.00  0.00    +0.000 OA
ATOM     35  H   UNL     1       2.455  16.354  21.069  0.00  0.00    +0.000 HD
ENDBRANCH  14  34
TORSDOF 3
ENDMDL
MODEL 7
REMARK VINA RESULT:      -7.4      2.791      5.794
REMARK  Name = 
REMARK  3 active torsions:
REMARK  status: ('A' for Active; 'I' for Inactive)
REMARK    1  A    between atoms: C_7  and  O_8
REMARK    2  A    between atoms: C_15  and  O_16
REMARK    3  A    between atoms: C_20  and  C_21
REMARK                            x       y       z     vdW  Elec       q    Type
REMARK                         _______ _______ _______ _____ _____    ______ ____
ROOT
ATOM      1  O   UNL     1      -2.624  17.810  20.864  0.00  0.00    +0.000 OA
ATOM      2  C   UNL     1      -2.650  16.623  20.955  0.00  0.00    +0.000 C 
ATOM      3  C   UNL     1      -3.809  15.925  21.563  0.00  0.00    +0.000 A 
ATOM      4  C   UNL     1      -4.983  16.636  21.837  0.00  0.00    +0.000 A 
ATOM      5  C   UNL     1      -6.093  15.971  22.356  0.00  0.00    +0.000 A 
ATOM      6  C   UNL     1      -6.042  14.598  22.609  0.00  0.00    +0.000 A 
ATOM      7  C   UNL     1      -4.874  13.893  22.332  0.00  0.00    +0.000 A 
ATOM      8  C   UNL     1      -3.749  14.558  21.824  0.00  0.00    +0.000 A 
ATOM      9  C   UNL     1      -2.484  13.849  21.579  0.00  0.00    +0.000 C 
ATOM     10  O   UNL     1      -2.234  12.816  22.184  0.00  0.00    +0.000 OA
ATOM     11  C   UNL     1      -1.490  14.432  20.666  0.00  0.00    +0.000 A 
ATOM     12  C   UNL     1      -1.537  15.793  20.417  0.00  0.00    +0.000 A 
ATOM     13  C   UNL     1      -0.551  16.420  19.640  0.00  0.00    +0.000 A 
ATOM     14  C   UNL     1       0.485  15.637  19.085  0.00  0.00    +0.000 A 
ATOM     15  C   UNL     1       0.533  14.258  19.308  0.00  0.00    +0.000 A 
ATOM     16  C   UNL     1      -0.467  13.633  20.094  0.00  0.00    +0.000 A 
ATOM     17  C   UNL     1      -0.398  12.166  20.359  0.00  0.00    +0.000 C 
ATOM     18  C   UNL     1       0.489  11.418  19.382  0.00  0.00    +0.000 C 
ATOM     19  O   UNL     1       1.728  12.143  19.218  0.00  0.00    +0.000 OA
ATOM     20  C   UNL     1       1.657  13.427  18.741  0.00  0.00    +0.000 C 
ATOM     21  O   UNL     1       2.520  13.857  17.998  0.00  0.00    +0.000 OA
ENDROOT
BRANCH  18  22
ATOM     22  C   UNL     1       0.793  10.033  19.949  0.00  0.00    +0.000 A 
ATOM     23  C   UNL     1       0.380   9.782  21.280  0.00  0.00    +0.000 A 
ATOM     24  C   UNL     1       0.525   8.530  21.857  0.00  0.00    +0.000 A 
ATOM     25  C   UNL     1       1.257   7.567  21.189  0.00  0.00    +0.000 A 
ATOM     26  C   UNL     1       1.794   7.829  19.926  0.00  0.00    +0.000 A 
ATOM     27  C   UNL     1       2.718   6.932  19.396  0.00  0.00    +0.000 A 
ATOM     28  C   UNL     1       3.320   7.222  18.185  0.00  0.00    +0.000 A 
ATOM     29  C   UNL     1       2.536   7.912  17.287  0.00  0.00    +0.000 A 
ATOM     30  C   UNL     1       1.714   8.928  17.802  0.00  0.00    +0.000 A 
ATOM     31  C   UNL     1       1.435   8.987  19.197  0.00  0.00    +0.000 A 
ENDBRANCH  18  22
BRANCH   7  32
ATOM     32  O   UNL     1      -4.861  12.542  22.509  0.00  0.00    +0.000 OA
ATOM     33  H   UNL     1      -5.651  12.243  22.984  0.00  0.00    +0.000 HD
ENDBRANCH   7  32
BRANCH  14  34
ATOM     34  O   UNL     1       1.450  16.272  18.362  0.00  0.00    +0.000 OA
ATOM     35  H   UNL     1       2.188  15.683  18.156  0.00  0.00    +0.000 HD
ENDBRANCH  14  34
TORSDOF 3
ENDMDL
MODEL 8
REMARK VINA RESULT:      -7.4      5.320      8.391
REMARK  Name = 
REMARK  3 active torsions:
REMARK  status: ('A' for Active; 'I' for Inactive)
REMARK    1  A    between atoms: C_7  and  O_8
REMARK    2  A    between atoms: C_15  and  O_16
REMARK    3  A    between atoms: C_20  and  C_21
REMARK                            x       y       z     vdW  Elec       q    Type
REMARK                         _______ _______ _______ _____ _____    ______ ____
ROOT
ATOM      1  O   UNL     1      -6.721  12.073  22.641  0.00  0.00    +0.000 OA
ATOM      2  C   UNL     1      -5.828  12.339  21.900  0.00  0.00    +0.000 C 
ATOM      3  C   UNL     1      -5.938  12.088  20.444  0.00  0.00    +0.000 A 
ATOM      4  C   UNL     1      -7.176  11.740  19.889  0.00  0.00    +0.000 A 
ATOM      5  C   UNL     1      -7.295  11.559  18.512  0.00  0.00    +0.000 A 
ATOM      6  C   UNL     1      -6.186  11.719  17.678  0.00  0.00    +0.000 A 
ATOM      7  C   UNL     1      -4.957  12.068  18.232  0.00  0.00    +0.000 A 
ATOM      8  C   UNL     1      -4.826  12.237  19.618  0.00  0.00    +0.000 A 
ATOM      9  C   UNL     1      -3.528  12.548  20.234  0.00  0.00    +0.000 C 
ATOM     10  O   UNL     1      -2.490  12.251  19.659  0.00  0.00    +0.000 OA
ATOM     11  C   UNL     1      -3.486  13.140  21.579  0.00  0.00    +0.000 A 
ATOM     12  C   UNL     1      -4.584  12.979  22.408  0.00  0.00    +0.000 A 
ATOM     13  C   UNL     1      -4.558  13.430  23.737  0.00  0.00    +0.000 A 
ATOM     14  C   UNL     1      -3.399  14.080  24.218  0.00  0.00    +0.000 A 
ATOM     15  C   UNL     1      -2.293  14.270  23.387  0.00  0.00    +0.000 A 
ATOM     16  C   UNL     1      -2.327  13.812  22.046  0.00  0.00    +0.000 A 
ATOM     17  C   UNL     1      -1.134  13.986  21.167  0.00  0.00    +0.000 C 
ATOM     18  C   UNL     1      -0.166  15.043  21.666  0.00  0.00    +0.000 C 
ATOM     19  O   UNL     1       0.047  14.856  23.083  0.00  0.00    +0.000 OA
ATOM     20  C   UNL     1      -1.045  14.937  23.909  0.00  0.00    +0.000 C 
ATOM     21  O   UNL     1      -0.943  15.426  25.019  0.00  0.00    +0.000 OA
ENDROOT
BRANCH  18  22
ATOM     22  C   UNL     1       1.164  14.881  20.935  0.00  0.00    +0.000 A 
ATOM     23  C   UNL     1       1.458  13.596  20.417  0.00  0.00    +0.000 A 
ATOM     24  C   UNL     1       2.595  13.367  19.658  0.00  0.00    +0.000 A 
ATOM     25  C   UNL     1       3.551  14.360  19.569  0.00  0.00    +0.000 A 
ATOM     26  C   UNL     1       3.351  15.599  20.184  0.00  0.00    +0.000 A 
ATOM     27  C   UNL     1       4.427  16.478  20.276  0.00  0.00    +0.000 A 
ATOM     28  C   UNL     1       4.265  17.672  20.956  0.00  0.00    +0.000 A 
ATOM     29  C   UNL     1       3.008  18.231  20.875  0.00  0.00    +0.000 A 
ATOM     30  C   UNL     1       1.912  17.355  20.939  0.00  0.00    +0.000 A 
ATOM     31  C   UNL     1       2.095  15.959  20.726  0.00  0.00    +0.000 A 
ENDBRANCH  18  22
BRANCH   7  32
ATOM     32  O   UNL     1      -3.901  12.297  17.402  0.00  0.00    +0.000 OA
ATOM     33  H   UNL     1      -3.113  11.815  17.695  0.00  0.00    +0.000 HD
ENDBRANCH   7  32
BRANCH  14  34
ATOM     34  O   UNL     1      -3.384  14.480  25.521  0.00  0.00    +0.000 OA
ATOM     35  H   UNL     1      -3.601  15.417  25.609  0.00  0.00    +0.000 HD
ENDBRANCH  14  34
TORSDOF 3
ENDMDL
MODEL 9
REMARK VINA RESULT:      -7.4      5.363      9.274
REMARK  Name = 
REMARK  3 active torsions:
REMARK  status: ('A' for Active; 'I' for Inactive)
REMARK    1  A    between atoms: C_7  and  O_8
REMARK    2  A    between atoms: C_15  and  O_16
REMARK    3  A    between atoms: C_20  and  C_21
REMARK                            x       y       z     vdW  Elec       q    Type
REMARK                         _______ _______ _______ _____ _____    ______ ____
ROOT
ATOM      1  O   UNL     1      -0.309  10.755  23.309  0.00  0.00    +0.000 OA
ATOM      2  C   UNL     1      -0.930  11.203  22.397  0.00  0.00    +0.000 C 
ATOM      3  C   UNL     1      -0.524  10.951  20.994  0.00  0.00    +0.000 A 
ATOM      4  C   UNL     1       0.467  10.001  20.716  0.00  0.00    +0.000 A 
ATOM      5  C   UNL     1       0.810   9.721  19.394  0.00  0.00    +0.000 A 
ATOM      6  C   UNL     1       0.175  10.385  18.342  0.00  0.00    +0.000 A 
ATOM      7  C   UNL     1      -0.812  11.326  18.621  0.00  0.00    +0.000 A 
ATOM      8  C   UNL     1      -1.152  11.624  19.948  0.00  0.00    +0.000 A 
ATOM      9  C   UNL     1      -2.148  12.656  20.272  0.00  0.00    +0.000 C 
ATOM     10  O   UNL     1      -2.382  13.553  19.474  0.00  0.00    +0.000 OA
ATOM     11  C   UNL     1      -2.798  12.649  21.591  0.00  0.00    +0.000 A 
ATOM     12  C   UNL     1      -2.168  11.995  22.636  0.00  0.00    +0.000 A 
ATOM     13  C   UNL     1      -2.688  12.046  23.939  0.00  0.00    +0.000 A 
ATOM     14  C   UNL     1      -3.887  12.756  24.171  0.00  0.00    +0.000 A 
ATOM     15  C   UNL     1      -4.547  13.402  23.122  0.00  0.00    +0.000 A 
ATOM     16  C   UNL     1      -4.014  13.345  21.810  0.00  0.00    +0.000 A 
ATOM     17  C   UNL     1      -4.701  14.061  20.695  0.00  0.00    +0.000 C 
ATOM     18  C   UNL     1      -6.148  14.404  20.998  0.00  0.00    +0.000 C 
ATOM     19  O   UNL     1      -6.232  14.963  22.328  0.00  0.00    +0.000 OA
ATOM     20  C   UNL     1      -5.810  14.185  23.375  0.00  0.00    +0.000 C 
ATOM     21  O   UNL     1      -6.382  14.235  24.449  0.00  0.00    +0.000 OA
ENDROOT
BRANCH  18  22
ATOM     22  C   UNL     1      -6.634  15.440  19.988  0.00  0.00    +0.000 A 
ATOM     23  C   UNL     1      -6.918  16.735  20.487  0.00  0.00    +0.000 A 
ATOM     24  C   UNL     1      -7.277  17.771  19.639  0.00  0.00    +0.000 A 
ATOM     25  C   UNL     1      -7.548  17.489  18.314  0.00  0.00    +0.000 A 
ATOM     26  C   UNL     1      -7.406  16.190  17.819  0.00  0.00    +0.000 A 
ATOM     27  C   UNL     1      -7.914  15.899  16.557  0.00  0.00    +0.000 A 
ATOM     28  C   UNL     1      -7.855  14.598  16.090  0.00  0.00    +0.000 A 
ATOM     29  C   UNL     1      -6.759  13.872  16.503  0.00  0.00    +0.000 A 
ATOM     30  C   UNL     1      -6.338  14.048  17.831  0.00  0.00    +0.000 A 
ATOM     31  C   UNL     1      -6.782  15.174  18.581  0.00  0.00    +0.000 A 
ENDBRANCH  18  22
BRANCH   7  32
ATOM     32  O   UNL     1      -1.478  11.910  17.585  0.00  0.00    +0.000 OA
ATOM     33  H   UNL     1      -1.659  11.272  16.880  0.00  0.00    +0.000 HD
ENDBRANCH   7  32
BRANCH  14  34
ATOM     34  O   UNL     1      -4.356  12.820  25.450  0.00  0.00    +0.000 OA
ATOM     35  H   UNL     1      -3.640  12.747  26.095  0.00  0.00    +0.000 HD
ENDBRANCH  14  34
TORSDOF 3
ENDMDL
