MODEL 1
REMARK VINA RESULT:      -6.9      0.000      0.000
REMARK  Name = 
REMARK  10 active torsions:
REMARK  status: ('A' for Active; 'I' for Inactive)
REMARK    1  A    between atoms: C_1  and  N_2
REMARK    2  A    between atoms: C_6  and  C_7
REMARK    3  A    between atoms: C_7  and  C_8
REMARK    4  A    between atoms: C_9  and  C_10
REMARK    5  A    between atoms: C_10  and  O_11
REMARK    6  A    between atoms: C_10  and  C_12
REMARK    7  A    between atoms: C_12  and  C_13
REMARK    8  A    between atoms: C_13  and  O_14
REMARK    9  A    between atoms: C_13  and  C_15
REMARK   10  A    between atoms: C_15  and  C_16
REMARK                            x       y       z     vdW  Elec       q    Type
REMARK                         _______ _______ _______ _____ _____    ______ ____
ROOT
ATOM      1  C   UNL     1       6.027   6.926  17.370  0.00  0.00    +0.000 C 
ATOM      2  C   UNL     1       4.665   6.746  17.449  0.00  0.00    +0.000 C 
ATOM      3  C   UNL     1       3.626   7.829  17.728  0.00  0.00    +0.000 A 
ATOM      4  C   UNL     1       3.595   9.212  17.588  0.00  0.00    +0.000 A 
ATOM      5  C   UNL     1       2.395   9.903  17.835  0.00  0.00    +0.000 A 
ATOM      6  C   UNL     1       1.242   9.213  18.206  0.00  0.00    +0.000 A 
ATOM      7  F   UNL     1       0.090   9.883  18.372  0.00  0.00    +0.000 F 
ATOM      8  C   UNL     1       1.248   7.834  18.362  0.00  0.00    +0.000 A 
ATOM      9  C   UNL     1       2.442   7.155  18.125  0.00  0.00    +0.000 A 
ATOM     10  C   UNL     1       2.628   5.721  18.045  0.00  0.00    +0.000 A 
ATOM     11  C   UNL     1       1.699   4.720  18.312  0.00  0.00    +0.000 A 
ATOM     12  C   UNL     1       2.002   3.424  17.913  0.00  0.00    +0.000 A 
ATOM     13  F   UNL     1       1.128   2.437  18.159  0.00  0.00    +0.000 F 
ATOM     14  C   UNL     1       3.160   3.155  17.208  0.00  0.00    +0.000 A 
ATOM     15  C   UNL     1       4.095   4.164  16.961  0.00  0.00    +0.000 A 
ATOM     16  C   UNL     1       3.895   5.438  17.479  0.00  0.00    +0.000 A 
ENDROOT
BRANCH   1  22
ATOM     17  C   UNL     1       7.898   5.530  19.639  0.00  0.00    +0.000 C 
ATOM     18  N   UNL     1       7.542   5.129  18.300  0.00  0.00    +0.000 N 
ATOM     19  N   UNL     1       8.255   4.083  17.801  0.00  0.00    +0.000 NA
ATOM     20  N   UNL     1       8.053   4.094  16.506  0.00  0.00    +0.000 NA
ATOM     21  N   UNL     1       7.418   5.241  16.148  0.00  0.00    +0.000 NA
ATOM     22  C   UNL     1       6.920   5.792  17.248  0.00  0.00    +0.000 A 
ENDBRANCH   1  22
BRANCH   1  23
ATOM     23  C   UNL     1       6.575   8.283  17.386  0.00  0.00    +0.000 C 
ATOM     24  C   UNL     1       7.845   8.582  17.721  0.00  0.00    +0.000 C 
BRANCH  24  25
ATOM     25  C   UNL     1       8.427   9.975  17.749  0.00  0.00    +0.000 C 
BRANCH  25  26
ATOM     26  O   UNL     1       7.351  10.892  17.537  0.00  0.00    +0.000 OA
ATOM     27  H   UNL     1       7.381  11.185  16.609  0.00  0.00    +0.000 HD
ENDBRANCH  25  26
BRANCH  25  28
ATOM     28  C   UNL     1       9.160  10.311  19.061  0.00  0.00    +0.000 C 
BRANCH  28  29
ATOM     29  C   UNL     1      10.123  11.505  18.977  0.00  0.00    +0.000 C 
BRANCH  29  30
ATOM     30  O   UNL     1      10.479  11.737  17.606  0.00  0.00    +0.000 OA
ATOM     31  H   UNL     1       9.977  11.096  17.068  0.00  0.00    +0.000 HD
ENDBRANCH  29  30
BRANCH  29  32
ATOM     32  C   UNL     1       9.543  12.787  19.567  0.00  0.00    +0.000 C 
BRANCH  32  33
ATOM     33  C   UNL     1       9.176  13.835  18.534  0.00  0.00    +0.000 C 
ATOM     34  O   UNL     1       8.035  13.703  18.020  0.00  0.00    +0.000 OA
ATOM     35  O   UNL     1      10.055  14.717  18.326  0.00  0.00    +0.000 OA
ENDBRANCH  32  33
ENDBRANCH  29  32
ENDBRANCH  28  29
ENDBRANCH  25  28
ENDBRANCH  24  25
ENDBRANCH   1  23
TORSDOF 9
ENDMDL
MODEL 2
REMARK VINA RESULT:      -6.9      0.523      1.222
REMARK  Name = 
REMARK  10 active torsions:
REMARK  status: ('A' for Active; 'I' for Inactive)
REMARK    1  A    between atoms: C_1  and  N_2
REMARK    2  A    between atoms: C_6  and  C_7
REMARK    3  A    between atoms: C_7  and  C_8
REMARK    4  A    between atoms: C_9  and  C_10
REMARK    5  A    between atoms: C_10  and  O_11
REMARK    6  A    between atoms: C_10  and  C_12
REMARK    7  A    between atoms: C_12  and  C_13
REMARK    8  A    between atoms: C_13  and  O_14
REMARK    9  A    between atoms: C_13  and  C_15
REMARK   10  A    between atoms: C_15  and  C_16
REMARK                            x       y       z     vdW  Elec       q    Type
REMARK                         _______ _______ _______ _____ _____    ______ ____
ROOT
ATOM      1  C   UNL     1       5.968   6.827  17.426  0.00  0.00    +0.000 C 
ATOM      2  C   UNL     1       4.602   6.674  17.498  0.00  0.00    +0.000 C 
ATOM      3  C   UNL     1       3.583   7.784  17.741  0.00  0.00    +0.000 A 
ATOM      4  C   UNL     1       3.580   9.164  17.567  0.00  0.00    +0.000 A 
ATOM      5  C   UNL     1       2.391   9.884  17.787  0.00  0.00    +0.000 A 
ATOM      6  C   UNL     1       1.223   9.226  18.164  0.00  0.00    +0.000 A 
ATOM      7  F   UNL     1       0.083   9.922  18.304  0.00  0.00    +0.000 F 
ATOM      8  C   UNL     1       1.200   7.851  18.354  0.00  0.00    +0.000 A 
ATOM      9  C   UNL     1       2.383   7.143  18.145  0.00  0.00    +0.000 A 
ATOM     10  C   UNL     1       2.541   5.705  18.101  0.00  0.00    +0.000 A 
ATOM     11  C   UNL     1       1.590   4.728  18.385  0.00  0.00    +0.000 A 
ATOM     12  C   UNL     1       1.871   3.418  18.021  0.00  0.00    +0.000 A 
ATOM     13  F   UNL     1       0.976   2.454  18.284  0.00  0.00    +0.000 F 
ATOM     14  C   UNL     1       3.030   3.108  17.334  0.00  0.00    +0.000 A 
ATOM     15  C   UNL     1       3.986   4.093  17.070  0.00  0.00    +0.000 A 
ATOM     16  C   UNL     1       3.807   5.383  17.554  0.00  0.00    +0.000 A 
ENDROOT
BRANCH   1  22
ATOM     17  C   UNL     1       6.643   4.946  14.856  0.00  0.00    +0.000 C 
ATOM     18  N   UNL     1       7.231   5.032  16.171  0.00  0.00    +0.000 N 
ATOM     19  N   UNL     1       8.094   4.029  16.485  0.00  0.00    +0.000 NA
ATOM     20  N   UNL     1       8.242   4.074  17.786  0.00  0.00    +0.000 NA
ATOM     21  N   UNL     1       7.331   4.928  18.324  0.00  0.00    +0.000 NA
ATOM     22  C   UNL     1       6.840   5.672  17.341  0.00  0.00    +0.000 A 
ENDBRANCH   1  22
BRANCH   1  23
ATOM     23  C   UNL     1       6.543   8.172  17.414  0.00  0.00    +0.000 C 
ATOM     24  C   UNL     1       7.819   8.453  17.740  0.00  0.00    +0.000 C 
BRANCH  24  25
ATOM     25  C   UNL     1       8.428   9.835  17.738  0.00  0.00    +0.000 C 
BRANCH  25  26
ATOM     26  O   UNL     1       7.368  10.769  17.520  0.00  0.00    +0.000 OA
ATOM     27  H   UNL     1       6.523  10.294  17.604  0.00  0.00    +0.000 HD
ENDBRANCH  25  26
BRANCH  25  28
ATOM     28  C   UNL     1       9.180  10.179  19.037  0.00  0.00    +0.000 C 
BRANCH  28  29
ATOM     29  C   UNL     1      10.347  11.165  18.869  0.00  0.00    +0.000 C 
BRANCH  29  30
ATOM     30  O   UNL     1      10.691  11.265  17.479  0.00  0.00    +0.000 OA
ATOM     31  H   UNL     1      10.159  11.993  17.104  0.00  0.00    +0.000 HD
ENDBRANCH  29  30
BRANCH  29  32
ATOM     32  C   UNL     1      10.038  12.558  19.409  0.00  0.00    +0.000 C 
BRANCH  32  33
ATOM     33  C   UNL     1       9.460  13.510  18.379  0.00  0.00    +0.000 C 
ATOM     34  O   UNL     1      10.308  14.119  17.678  0.00  0.00    +0.000 OA
ATOM     35  O   UNL     1       8.198  13.565  18.346  0.00  0.00    +0.000 OA
ENDBRANCH  32  33
ENDBRANCH  29  32
ENDBRANCH  28  29
ENDBRANCH  25  28
ENDBRANCH  24  25
ENDBRANCH   1  23
TORSDOF 9
ENDMDL
MODEL 3
REMARK VINA RESULT:      -6.8      0.934      1.128
REMARK  Name = 
REMARK  10 active torsions:
REMARK  status: ('A' for Active; 'I' for Inactive)
REMARK    1  A    between atoms: C_1  and  N_2
REMARK    2  A    between atoms: C_6  and  C_7
REMARK    3  A    between atoms: C_7  and  C_8
REMARK    4  A    between atoms: C_9  and  C_10
REMARK    5  A    between atoms: C_10  and  O_11
REMARK    6  A    between atoms: C_10  and  C_12
REMARK    7  A    between atoms: C_12  and  C_13
REMARK    8  A    between atoms: C_13  and  O_14
REMARK    9  A    between atoms: C_13  and  C_15
REMARK   10  A    between atoms: C_15  and  C_16
REMARK                            x       y       z     vdW  Elec       q    Type
REMARK                         _______ _______ _______ _____ _____    ______ ____
ROOT
ATOM      1  C   UNL     1       6.032   6.938  17.407  0.00  0.00    +0.000 C 
ATOM      2  C   UNL     1       4.671   6.748  17.471  0.00  0.00    +0.000 C 
ATOM      3  C   UNL     1       3.623   7.823  17.744  0.00  0.00    +0.000 A 
ATOM      4  C   UNL     1       3.584   9.207  17.610  0.00  0.00    +0.000 A 
ATOM      5  C   UNL     1       2.376   9.889  17.848  0.00  0.00    +0.000 A 
ATOM      6  C   UNL     1       1.225   9.190  18.204  0.00  0.00    +0.000 A 
ATOM      7  F   UNL     1       0.067   9.852  18.362  0.00  0.00    +0.000 F 
ATOM      8  C   UNL     1       1.238   7.810  18.355  0.00  0.00    +0.000 A 
ATOM      9  C   UNL     1       2.439   7.140  18.127  0.00  0.00    +0.000 A 
ATOM     10  C   UNL     1       2.635   5.708  18.043  0.00  0.00    +0.000 A 
ATOM     11  C   UNL     1       1.710   4.699  18.296  0.00  0.00    +0.000 A 
ATOM     12  C   UNL     1       2.026   3.407  17.895  0.00  0.00    +0.000 A 
ATOM     13  F   UNL     1       1.156   2.413  18.128  0.00  0.00    +0.000 F 
ATOM     14  C   UNL     1       3.193   3.148  17.201  0.00  0.00    +0.000 A 
ATOM     15  C   UNL     1       4.123   4.165  16.968  0.00  0.00    +0.000 A 
ATOM     16  C   UNL     1       3.910   5.435  17.488  0.00  0.00    +0.000 A 
ENDROOT
BRANCH   1  22
ATOM     17  C   UNL     1       7.915   5.565  19.681  0.00  0.00    +0.000 C 
ATOM     18  N   UNL     1       7.562   5.156  18.343  0.00  0.00    +0.000 N 
ATOM     19  N   UNL     1       8.283   4.113  17.848  0.00  0.00    +0.000 NA
ATOM     20  N   UNL     1       8.080   4.118  16.553  0.00  0.00    +0.000 NA
ATOM     21  N   UNL     1       7.436   5.259  16.191  0.00  0.00    +0.000 NA
ATOM     22  C   UNL     1       6.934   5.810  17.289  0.00  0.00    +0.000 A 
ENDBRANCH   1  22
BRANCH   1  23
ATOM     23  C   UNL     1       6.572   8.298  17.434  0.00  0.00    +0.000 C 
ATOM     24  C   UNL     1       7.861   8.596  17.684  0.00  0.00    +0.000 C 
BRANCH  24  25
ATOM     25  C   UNL     1       8.434   9.993  17.722  0.00  0.00    +0.000 C 
BRANCH  25  26
ATOM     26  O   UNL     1       7.356  10.904  17.493  0.00  0.00    +0.000 OA
ATOM     27  H   UNL     1       6.545  10.385  17.357  0.00  0.00    +0.000 HD
ENDBRANCH  25  26
BRANCH  25  28
ATOM     28  C   UNL     1       9.144  10.332  19.046  0.00  0.00    +0.000 C 
BRANCH  28  29
ATOM     29  C   UNL     1      10.033  11.585  19.002  0.00  0.00    +0.000 C 
BRANCH  29  30
ATOM     30  O   UNL     1      10.844  11.637  20.185  0.00  0.00    +0.000 OA
ATOM     31  H   UNL     1      11.511  12.336  20.044  0.00  0.00    +0.000 HD
ENDBRANCH  29  30
BRANCH  29  32
ATOM     32  C   UNL     1      10.936  11.638  17.774  0.00  0.00    +0.000 C 
BRANCH  32  33
ATOM     33  C   UNL     1      11.630  12.971  17.570  0.00  0.00    +0.000 C 
ATOM     34  O   UNL     1      11.411  13.523  16.461  0.00  0.00    +0.000 OA
ATOM     35  O   UNL     1      12.333  13.366  18.541  0.00  0.00    +0.000 OA
ENDBRANCH  32  33
ENDBRANCH  29  32
ENDBRANCH  28  29
ENDBRANCH  25  28
ENDBRANCH  24  25
ENDBRANCH   1  23
TORSDOF 9
ENDMDL
MODEL 4
REMARK VINA RESULT:      -6.8      8.973     12.148
REMARK  Name = 
REMARK  10 active torsions:
REMARK  status: ('A' for Active; 'I' for Inactive)
REMARK    1  A    between atoms: C_1  and  N_2
REMARK    2  A    between atoms: C_6  and  C_7
REMARK    3  A    between atoms: C_7  and  C_8
REMARK    4  A    between atoms: C_9  and  C_10
REMARK    5  A    between atoms: C_10  and  O_11
REMARK    6  A    between atoms: C_10  and  C_12
REMARK    7  A    between atoms: C_12  and  C_13
REMARK    8  A    between atoms: C_13  and  O_14
REMARK    9  A    between atoms: C_13  and  C_15
REMARK   10  A    between atoms: C_15  and  C_16
REMARK                            x       y       z     vdW  Elec       q    Type
REMARK                         _______ _______ _______ _____ _____    ______ ____
ROOT
ATOM      1  C   UNL     1      -2.895  12.668  20.481  0.00  0.00    +0.000 C 
ATOM      2  C   UNL     1      -2.350  12.015  19.400  0.00  0.00    +0.000 C 
ATOM      3  C   UNL     1      -3.106  11.522  18.169  0.00  0.00    +0.000 A 
ATOM      4  C   UNL     1      -4.309  11.864  17.559  0.00  0.00    +0.000 A 
ATOM      5  C   UNL     1      -4.652  11.269  16.331  0.00  0.00    +0.000 A 
ATOM      6  C   UNL     1      -3.795  10.355  15.721  0.00  0.00    +0.000 A 
ATOM      7  F   UNL     1      -4.110   9.849  14.517  0.00  0.00    +0.000 F 
ATOM      8  C   UNL     1      -2.594   9.989  16.313  0.00  0.00    +0.000 A 
ATOM      9  C   UNL     1      -2.263  10.573  17.534  0.00  0.00    +0.000 A 
ATOM     10  C   UNL     1      -0.995  10.484  18.228  0.00  0.00    +0.000 A 
ATOM     11  C   UNL     1       0.109   9.701  17.899  0.00  0.00    +0.000 A 
ATOM     12  C   UNL     1       1.312   9.969  18.539  0.00  0.00    +0.000 A 
ATOM     13  F   UNL     1       2.393   9.230  18.246  0.00  0.00    +0.000 F 
ATOM     14  C   UNL     1       1.424  11.027  19.421  0.00  0.00    +0.000 A 
ATOM     15  C   UNL     1       0.305  11.795  19.758  0.00  0.00    +0.000 A 
ATOM     16  C   UNL     1      -0.945  11.460  19.253  0.00  0.00    +0.000 A 
ENDROOT
BRANCH   1  22
ATOM     17  C   UNL     1      -0.792  15.098  21.001  0.00  0.00    +0.000 C 
ATOM     18  N   UNL     1      -1.364  14.111  21.883  0.00  0.00    +0.000 N 
ATOM     19  N   UNL     1      -0.793  14.038  23.116  0.00  0.00    +0.000 NA
ATOM     20  N   UNL     1      -1.184  12.896  23.627  0.00  0.00    +0.000 NA
ATOM     21  N   UNL     1      -1.798  12.149  22.671  0.00  0.00    +0.000 NA
ATOM     22  C   UNL     1      -2.096  12.951  21.657  0.00  0.00    +0.000 A 
ENDBRANCH   1  22
BRANCH   1  23
ATOM     23  C   UNL     1      -4.292  13.100  20.433  0.00  0.00    +0.000 C 
ATOM     24  C   UNL     1      -4.705  14.359  20.675  0.00  0.00    +0.000 C 
BRANCH  24  25
ATOM     25  C   UNL     1      -6.141  14.821  20.635  0.00  0.00    +0.000 C 
BRANCH  25  26
ATOM     26  O   UNL     1      -6.940  13.702  20.242  0.00  0.00    +0.000 OA
ATOM     27  H   UNL     1      -7.588  13.530  20.947  0.00  0.00    +0.000 HD
ENDBRANCH  25  26
BRANCH  25  28
ATOM     28  C   UNL     1      -6.644  15.388  21.975  0.00  0.00    +0.000 C 
BRANCH  28  29
ATOM     29  C   UNL     1      -6.264  14.561  23.213  0.00  0.00    +0.000 C 
BRANCH  29  30
ATOM     30  O   UNL     1      -5.984  15.443  24.310  0.00  0.00    +0.000 OA
ATOM     31  H   UNL     1      -5.456  14.937  24.957  0.00  0.00    +0.000 HD
ENDBRANCH  29  30
BRANCH  29  32
ATOM     32  C   UNL     1      -7.348  13.572  23.631  0.00  0.00    +0.000 C 
BRANCH  32  33
ATOM     33  C   UNL     1      -6.824  12.206  24.030  0.00  0.00    +0.000 C 
ATOM     34  O   UNL     1      -5.653  12.196  24.492  0.00  0.00    +0.000 OA
ATOM     35  O   UNL     1      -7.630  11.249  23.859  0.00  0.00    +0.000 OA
ENDBRANCH  32  33
ENDBRANCH  29  32
ENDBRANCH  28  29
ENDBRANCH  25  28
ENDBRANCH  24  25
ENDBRANCH   1  23
TORSDOF 9
ENDMDL
MODEL 5
REMARK VINA RESULT:      -6.6      6.320      9.593
REMARK  Name = 
REMARK  10 active torsions:
REMARK  status: ('A' for Active; 'I' for Inactive)
REMARK    1  A    between atoms: C_1  and  N_2
REMARK    2  A    between atoms: C_6  and  C_7
REMARK    3  A    between atoms: C_7  and  C_8
REMARK    4  A    between atoms: C_9  and  C_10
REMARK    5  A    between atoms: C_10  and  O_11
REMARK    6  A    between atoms: C_10  and  C_12
REMARK    7  A    between atoms: C_12  and  C_13
REMARK    8  A    between atoms: C_13  and  O_14
REMARK    9  A    between atoms: C_13  and  C_15
REMARK   10  A    between atoms: C_15  and  C_16
REMARK                            x       y       z     vdW  Elec       q    Type
REMARK                         _______ _______ _______ _____ _____    ______ ____
ROOT
ATOM      1  C   UNL     1      -0.809  11.361  19.431  0.00  0.00    +0.000 C 
ATOM      2  C   UNL     1      -2.084  11.366  18.916  0.00  0.00    +0.000 C 
ATOM      3  C   UNL     1      -2.499  10.881  17.530  0.00  0.00    +0.000 A 
ATOM      4  C   UNL     1      -1.955  10.003  16.598  0.00  0.00    +0.000 A 
ATOM      5  C   UNL     1      -2.688   9.687  15.439  0.00  0.00    +0.000 A 
ATOM      6  C   UNL     1      -3.950  10.238  15.225  0.00  0.00    +0.000 A 
ATOM      7  F   UNL     1      -4.660   9.872  14.146  0.00  0.00    +0.000 F 
ATOM      8  C   UNL     1      -4.512  11.124  16.134  0.00  0.00    +0.000 A 
ATOM      9  C   UNL     1      -3.779  11.441  17.276  0.00  0.00    +0.000 A 
ATOM     10  C   UNL     1      -4.241  12.183  18.430  0.00  0.00    +0.000 A 
ATOM     11  C   UNL     1      -5.455  12.845  18.594  0.00  0.00    +0.000 A 
ATOM     12  C   UNL     1      -5.804  13.260  19.873  0.00  0.00    +0.000 A 
ATOM     13  F   UNL     1      -6.966  13.904  20.062  0.00  0.00    +0.000 F 
ATOM     14  C   UNL     1      -5.001  12.961  20.957  0.00  0.00    +0.000 A 
ATOM     15  C   UNL     1      -3.776  12.313  20.779  0.00  0.00    +0.000 A 
ATOM     16  C   UNL     1      -3.325  12.018  19.498  0.00  0.00    +0.000 A 
ENDROOT
BRANCH   1  22
ATOM     17  C   UNL     1       0.551  14.257  20.038  0.00  0.00    +0.000 C 
ATOM     18  N   UNL     1      -0.115  13.304  20.893  0.00  0.00    +0.000 N 
ATOM     19  N   UNL     1       0.001  13.544  22.227  0.00  0.00    +0.000 NA
ATOM     20  N   UNL     1      -0.343  12.430  22.824  0.00  0.00    +0.000 NA
ATOM     21  N   UNL     1      -0.459  11.432  21.909  0.00  0.00    +0.000 NA
ATOM     22  C   UNL     1      -0.520  11.988  20.706  0.00  0.00    +0.000 A 
ENDBRANCH   1  22
BRANCH   1  23
ATOM     23  C   UNL     1       0.264  10.695  18.692  0.00  0.00    +0.000 C 
ATOM     24  C   UNL     1       0.657   9.425  18.907  0.00  0.00    +0.000 C 
BRANCH  24  25
ATOM     25  C   UNL     1       1.765   8.723  18.158  0.00  0.00    +0.000 C 
BRANCH  25  26
ATOM     26  O   UNL     1       2.716   9.718  17.772  0.00  0.00    +0.000 OA
ATOM     27  H   UNL     1       2.779  10.372  18.490  0.00  0.00    +0.000 HD
ENDBRANCH  25  26
BRANCH  25  28
ATOM     28  C   UNL     1       2.455   7.615  18.975  0.00  0.00    +0.000 C 
BRANCH  28  29
ATOM     29  C   UNL     1       3.106   6.503  18.138  0.00  0.00    +0.000 C 
BRANCH  29  30
ATOM     30  O   UNL     1       4.251   7.030  17.451  0.00  0.00    +0.000 OA
ATOM     31  H   UNL     1       4.072   6.953  16.495  0.00  0.00    +0.000 HD
ENDBRANCH  29  30
BRANCH  29  32
ATOM     32  C   UNL     1       3.533   5.298  18.969  0.00  0.00    +0.000 C 
BRANCH  32  33
ATOM     33  C   UNL     1       4.981   4.890  18.775  0.00  0.00    +0.000 C 
ATOM     34  O   UNL     1       5.206   4.184  17.758  0.00  0.00    +0.000 OA
ATOM     35  O   UNL     1       5.783   5.318  19.651  0.00  0.00    +0.000 OA
ENDBRANCH  32  33
ENDBRANCH  29  32
ENDBRANCH  28  29
ENDBRANCH  25  28
ENDBRANCH  24  25
ENDBRANCH   1  23
TORSDOF 9
ENDMDL
MODEL 6
REMARK VINA RESULT:      -6.6      6.530      9.908
REMARK  Name = 
REMARK  10 active torsions:
REMARK  status: ('A' for Active; 'I' for Inactive)
REMARK    1  A    between atoms: C_1  and  N_2
REMARK    2  A    between atoms: C_6  and  C_7
REMARK    3  A    between atoms: C_7  and  C_8
REMARK    4  A    between atoms: C_9  and  C_10
REMARK    5  A    between atoms: C_10  and  O_11
REMARK    6  A    between atoms: C_10  and  C_12
REMARK    7  A    between atoms: C_12  and  C_13
REMARK    8  A    between atoms: C_13  and  O_14
REMARK    9  A    between atoms: C_13  and  C_15
REMARK   10  A    between atoms: C_15  and  C_16
REMARK                            x       y       z     vdW  Elec       q    Type
REMARK                         _______ _______ _______ _____ _____    ______ ____
ROOT
ATOM      1  C   UNL     1      -0.854  11.436  19.436  0.00  0.00    +0.000 C 
ATOM      2  C   UNL     1      -2.130  11.410  18.922  0.00  0.00    +0.000 C 
ATOM      3  C   UNL     1      -2.532  10.930  17.531  0.00  0.00    +0.000 A 
ATOM      4  C   UNL     1      -1.964  10.080  16.588  0.00  0.00    +0.000 A 
ATOM      5  C   UNL     1      -2.689   9.757  15.425  0.00  0.00    +0.000 A 
ATOM      6  C   UNL     1      -3.967  10.273  15.220  0.00  0.00    +0.000 A 
ATOM      7  F   UNL     1      -4.668   9.900  14.137  0.00  0.00    +0.000 F 
ATOM      8  C   UNL     1      -4.553  11.131  16.140  0.00  0.00    +0.000 A 
ATOM      9  C   UNL     1      -3.828  11.455  17.285  0.00  0.00    +0.000 A 
ATOM     10  C   UNL     1      -4.310  12.169  18.449  0.00  0.00    +0.000 A 
ATOM     11  C   UNL     1      -5.543  12.793  18.623  0.00  0.00    +0.000 A 
ATOM     12  C   UNL     1      -5.902  13.182  19.907  0.00  0.00    +0.000 A 
ATOM     13  F   UNL     1      -7.082  13.788  20.106  0.00  0.00    +0.000 F 
ATOM     14  C   UNL     1      -5.089  12.893  20.986  0.00  0.00    +0.000 A 
ATOM     15  C   UNL     1      -3.846  12.283  20.799  0.00  0.00    +0.000 A 
ATOM     16  C   UNL     1      -3.388  12.018  19.514  0.00  0.00    +0.000 A 
ENDROOT
BRANCH   1  22
ATOM     17  C   UNL     1       0.473  14.339  20.077  0.00  0.00    +0.000 C 
ATOM     18  N   UNL     1      -0.191  13.374  20.919  0.00  0.00    +0.000 N 
ATOM     19  N   UNL     1      -0.088  13.604  22.256  0.00  0.00    +0.000 NA
ATOM     20  N   UNL     1      -0.427  12.482  22.841  0.00  0.00    +0.000 NA
ATOM     21  N   UNL     1      -0.526  11.490  21.917  0.00  0.00    +0.000 NA
ATOM     22  C   UNL     1      -0.582  12.055  20.718  0.00  0.00    +0.000 A 
ENDBRANCH   1  22
BRANCH   1  23
ATOM     23  C   UNL     1       0.237  10.811  18.687  0.00  0.00    +0.000 C 
ATOM     24  C   UNL     1       0.622   9.529  18.837  0.00  0.00    +0.000 C 
BRANCH  24  25
ATOM     25  C   UNL     1       1.748   8.869  18.078  0.00  0.00    +0.000 C 
BRANCH  25  26
ATOM     26  O   UNL     1       2.689   9.889  17.737  0.00  0.00    +0.000 OA
ATOM     27  H   UNL     1       2.892   9.809  16.789  0.00  0.00    +0.000 HD
ENDBRANCH  25  26
BRANCH  25  28
ATOM     28  C   UNL     1       2.445   7.743  18.864  0.00  0.00    +0.000 C 
BRANCH  28  29
ATOM     29  C   UNL     1       2.863   6.528  18.023  0.00  0.00    +0.000 C 
BRANCH  29  30
ATOM     30  O   UNL     1       4.286   6.548  17.828  0.00  0.00    +0.000 OA
ATOM     31  H   UNL     1       4.537   7.475  17.655  0.00  0.00    +0.000 HD
ENDBRANCH  29  30
BRANCH  29  32
ATOM     32  C   UNL     1       2.464   5.196  18.651  0.00  0.00    +0.000 C 
BRANCH  32  33
ATOM     33  C   UNL     1       2.296   4.065  17.655  0.00  0.00    +0.000 C 
ATOM     34  O   UNL     1       1.131   3.598  17.568  0.00  0.00    +0.000 OA
ATOM     35  O   UNL     1       3.343   3.738  17.028  0.00  0.00    +0.000 OA
ENDBRANCH  32  33
ENDBRANCH  29  32
ENDBRANCH  28  29
ENDBRANCH  25  28
ENDBRANCH  24  25
ENDBRANCH   1  23
TORSDOF 9
ENDMDL
MODEL 7
REMARK VINA RESULT:      -6.5      7.574      9.733
REMARK  Name = 
REMARK  10 active torsions:
REMARK  status: ('A' for Active; 'I' for Inactive)
REMARK    1  A    between atoms: C_1  and  N_2
REMARK    2  A    between atoms: C_6  and  C_7
REMARK    3  A    between atoms: C_7  and  C_8
REMARK    4  A    between atoms: C_9  and  C_10
REMARK    5  A    between atoms: C_10  and  O_11
REMARK    6  A    between atoms: C_10  and  C_12
REMARK    7  A    between atoms: C_12  and  C_13
REMARK    8  A    between atoms: C_13  and  O_14
REMARK    9  A    between atoms: C_13  and  C_15
REMARK   10  A    between atoms: C_15  and  C_16
REMARK                            x       y       z     vdW  Elec       q    Type
REMARK                         _______ _______ _______ _____ _____    ______ ____
ROOT
ATOM      1  C   UNL     1      -0.906  12.877  20.846  0.00  0.00    +0.000 C 
ATOM      2  C   UNL     1      -2.051  12.362  20.282  0.00  0.00    +0.000 C 
ATOM      3  C   UNL     1      -2.141  11.594  18.966  0.00  0.00    +0.000 A 
ATOM      4  C   UNL     1      -1.242  10.860  18.199  0.00  0.00    +0.000 A 
ATOM      5  C   UNL     1      -1.709  10.164  17.069  0.00  0.00    +0.000 A 
ATOM      6  C   UNL     1      -3.058  10.196  16.723  0.00  0.00    +0.000 A 
ATOM      7  F   UNL     1      -3.494   9.470  15.680  0.00  0.00    +0.000 F 
ATOM      8  C   UNL     1      -3.975  10.927  17.465  0.00  0.00    +0.000 A 
ATOM      9  C   UNL     1      -3.506  11.623  18.579  0.00  0.00    +0.000 A 
ATOM     10  C   UNL     1      -4.302  12.287  19.589  0.00  0.00    +0.000 A 
ATOM     11  C   UNL     1      -5.680  12.486  19.602  0.00  0.00    +0.000 A 
ATOM     12  C   UNL     1      -6.268  12.904  20.789  0.00  0.00    +0.000 A 
ATOM     13  F   UNL     1      -7.594  13.107  20.832  0.00  0.00    +0.000 F 
ATOM     14  C   UNL     1      -5.515  13.047  21.939  0.00  0.00    +0.000 A 
ATOM     15  C   UNL     1      -4.130  12.863  21.911  0.00  0.00    +0.000 A 
ATOM     16  C   UNL     1      -3.489  12.594  20.708  0.00  0.00    +0.000 A 
ENDROOT
BRANCH   1  22
ATOM     17  C   UNL     1      -1.194  16.113  21.050  0.00  0.00    +0.000 C 
ATOM     18  N   UNL     1      -1.287  15.071  22.043  0.00  0.00    +0.000 N 
ATOM     19  N   UNL     1      -1.307  15.501  23.334  0.00  0.00    +0.000 NA
ATOM     20  N   UNL     1      -1.042  14.449  24.068  0.00  0.00    +0.000 NA
ATOM     21  N   UNL     1      -0.639  13.422  23.274  0.00  0.00    +0.000 NA
ATOM     22  C   UNL     1      -0.973  13.717  22.025  0.00  0.00    +0.000 A 
ENDBRANCH   1  22
BRANCH   1  23
ATOM     23  C   UNL     1       0.394  12.552  20.259  0.00  0.00    +0.000 C 
ATOM     24  C   UNL     1       1.097  13.385  19.467  0.00  0.00    +0.000 C 
BRANCH  24  25
ATOM     25  C   UNL     1       2.437  13.065  18.848  0.00  0.00    +0.000 C 
BRANCH  25  26
ATOM     26  O   UNL     1       2.225  12.866  17.448  0.00  0.00    +0.000 OA
ATOM     27  H   UNL     1       1.293  13.064  17.252  0.00  0.00    +0.000 HD
ENDBRANCH  25  26
BRANCH  25  28
ATOM     28  C   UNL     1       3.498  14.157  19.076  0.00  0.00    +0.000 C 
BRANCH  28  29
ATOM     29  C   UNL     1       4.376  14.472  17.855  0.00  0.00    +0.000 C 
BRANCH  29  30
ATOM     30  O   UNL     1       3.677  15.374  16.984  0.00  0.00    +0.000 OA
ATOM     31  H   UNL     1       4.265  16.138  16.832  0.00  0.00    +0.000 HD
ENDBRANCH  29  30
BRANCH  29  32
ATOM     32  C   UNL     1       5.724  15.082  18.226  0.00  0.00    +0.000 C 
BRANCH  32  33
ATOM     33  C   UNL     1       5.631  16.288  19.140  0.00  0.00    +0.000 C 
ATOM     34  O   UNL     1       5.032  17.282  18.655  0.00  0.00    +0.000 OA
ATOM     35  O   UNL     1       6.158  16.143  20.279  0.00  0.00    +0.000 OA
ENDBRANCH  32  33
ENDBRANCH  29  32
ENDBRANCH  28  29
ENDBRANCH  25  28
ENDBRANCH  24  25
ENDBRANCH   1  23
TORSDOF 9
ENDMDL
MODEL 8
REMARK VINA RESULT:      -6.5      7.228     10.457
REMARK  Name = 
REMARK  10 active torsions:
REMARK  status: ('A' for Active; 'I' for Inactive)
REMARK    1  A    between atoms: C_1  and  N_2
REMARK    2  A    between atoms: C_6  and  C_7
REMARK    3  A    between atoms: C_7  and  C_8
REMARK    4  A    between atoms: C_9  and  C_10
REMARK    5  A    between atoms: C_10  and  O_11
REMARK    6  A    between atoms: C_10  and  C_12
REMARK    7  A    between atoms: C_12  and  C_13
REMARK    8  A    between atoms: C_13  and  O_14
REMARK    9  A    between atoms: C_13  and  C_15
REMARK   10  A    between atoms: C_15  and  C_16
REMARK                            x       y       z     vdW  Elec       q    Type
REMARK                         _______ _______ _______ _____ _____    ______ ____
ROOT
ATOM      1  C   UNL     1      -1.806  11.897  20.639  0.00  0.00    +0.000 C 
ATOM      2  C   UNL     1      -2.792  11.721  19.697  0.00  0.00    +0.000 C 
ATOM      3  C   UNL     1      -2.621  11.084  18.320  0.00  0.00    +0.000 A 
ATOM      4  C   UNL     1      -1.706  10.199  17.760  0.00  0.00    +0.000 A 
ATOM      5  C   UNL     1      -1.925   9.713  16.458  0.00  0.00    +0.000 A 
ATOM      6  C   UNL     1      -3.051  10.103  15.735  0.00  0.00    +0.000 A 
ATOM      7  F   UNL     1      -3.276   9.577  14.520  0.00  0.00    +0.000 F 
ATOM      8  C   UNL     1      -3.975  10.992  16.267  0.00  0.00    +0.000 A 
ATOM      9  C   UNL     1      -3.748  11.478  17.554  0.00  0.00    +0.000 A 
ATOM     10  C   UNL     1      -4.662  12.254  18.365  0.00  0.00    +0.000 A 
ATOM     11  C   UNL     1      -5.893  12.790  17.996  0.00  0.00    +0.000 A 
ATOM     12  C   UNL     1      -6.725  13.266  19.002  0.00  0.00    +0.000 A 
ATOM     13  F   UNL     1      -7.917  13.791  18.678  0.00  0.00    +0.000 F 
ATOM     14  C   UNL     1      -6.368  13.144  20.331  0.00  0.00    +0.000 A 
ATOM     15  C   UNL     1      -5.122  12.622  20.690  0.00  0.00    +0.000 A 
ATOM     16  C   UNL     1      -4.204  12.277  19.705  0.00  0.00    +0.000 A 
ENDROOT
BRANCH   1  22
ATOM     17  C   UNL     1      -0.994  14.966  21.360  0.00  0.00    +0.000 C 
ATOM     18  N   UNL     1      -1.857  14.016  22.018  0.00  0.00    +0.000 N 
ATOM     19  N   UNL     1      -2.266  14.372  23.266  0.00  0.00    +0.000 NA
ATOM     20  N   UNL     1      -2.723  13.277  23.822  0.00  0.00    +0.000 NA
ATOM     21  N   UNL     1      -2.413  12.203  23.049  0.00  0.00    +0.000 NA
ATOM     22  C   UNL     1      -2.062  12.651  21.850  0.00  0.00    +0.000 A 
ENDBRANCH   1  22
BRANCH   1  23
ATOM     23  C   UNL     1      -0.489  11.295  20.425  0.00  0.00    +0.000 C 
ATOM     24  C   UNL     1      -0.094  10.126  20.965  0.00  0.00    +0.000 C 
BRANCH  24  25
ATOM     25  C   UNL     1       1.262   9.494  20.761  0.00  0.00    +0.000 C 
BRANCH  25  26
ATOM     26  O   UNL     1       1.609   8.824  21.976  0.00  0.00    +0.000 OA
ATOM     27  H   UNL     1       1.375   7.884  21.881  0.00  0.00    +0.000 HD
ENDBRANCH  25  26
BRANCH  25  28
ATOM     28  C   UNL     1       1.310   8.509  19.578  0.00  0.00    +0.000 C 
BRANCH  28  29
ATOM     29  C   UNL     1       2.332   7.371  19.725  0.00  0.00    +0.000 C 
BRANCH  29  30
ATOM     30  O   UNL     1       1.856   6.422  20.692  0.00  0.00    +0.000 OA
ATOM     31  H   UNL     1       1.853   6.874  21.557  0.00  0.00    +0.000 HD
ENDBRANCH  29  30
BRANCH  29  32
ATOM     32  C   UNL     1       2.615   6.645  18.413  0.00  0.00    +0.000 C 
BRANCH  32  33
ATOM     33  C   UNL     1       3.944   5.914  18.380  0.00  0.00    +0.000 C 
ATOM     34  O   UNL     1       4.575   5.999  17.295  0.00  0.00    +0.000 OA
ATOM     35  O   UNL     1       4.258   5.320  19.450  0.00  0.00    +0.000 OA
ENDBRANCH  32  33
ENDBRANCH  29  32
ENDBRANCH  28  29
ENDBRANCH  25  28
ENDBRANCH  24  25
ENDBRANCH   1  23
TORSDOF 9
ENDMDL
MODEL 9
REMARK VINA RESULT:      -6.4      6.643      9.935
REMARK  Name = 
REMARK  10 active torsions:
REMARK  status: ('A' for Active; 'I' for Inactive)
REMARK    1  A    between atoms: C_1  and  N_2
REMARK    2  A    between atoms: C_6  and  C_7
REMARK    3  A    between atoms: C_7  and  C_8
REMARK    4  A    between atoms: C_9  and  C_10
REMARK    5  A    between atoms: C_10  and  O_11
REMARK    6  A    between atoms: C_10  and  C_12
REMARK    7  A    between atoms: C_12  and  C_13
REMARK    8  A    between atoms: C_13  and  O_14
REMARK    9  A    between atoms: C_13  and  C_15
REMARK   10  A    between atoms: C_15  and  C_16
REMARK                            x       y       z     vdW  Elec       q    Type
REMARK                         _______ _______ _______ _____ _____    ______ ____
ROOT
ATOM      1  C   UNL     1      -1.008  11.723  20.017  0.00  0.00    +0.000 C 
ATOM      2  C   UNL     1      -2.218  11.649  19.367  0.00  0.00    +0.000 C 
ATOM      3  C   UNL     1      -2.471  11.016  18.001  0.00  0.00    +0.000 A 
ATOM      4  C   UNL     1      -1.818  10.058  17.232  0.00  0.00    +0.000 A 
ATOM      5  C   UNL     1      -2.413   9.610  16.038  0.00  0.00    +0.000 A 
ATOM      6  C   UNL     1      -3.648  10.110  15.630  0.00  0.00    +0.000 A 
ATOM      7  F   UNL     1      -4.230   9.621  14.523  0.00  0.00    +0.000 F 
ATOM      8  C   UNL     1      -4.317  11.072  16.374  0.00  0.00    +0.000 A 
ATOM      9  C   UNL     1      -3.719  11.519  17.551  0.00  0.00    +0.000 A 
ATOM     10  C   UNL     1      -4.314  12.366  18.563  0.00  0.00    +0.000 A 
ATOM     11  C   UNL     1      -5.545  13.015  18.523  0.00  0.00    +0.000 A 
ATOM     12  C   UNL     1      -6.039  13.552  19.705  0.00  0.00    +0.000 A 
ATOM     13  F   UNL     1      -7.221  14.187  19.697  0.00  0.00    +0.000 F 
ATOM     14  C   UNL     1      -5.360  13.382  20.896  0.00  0.00    +0.000 A 
ATOM     15  C   UNL     1      -4.116  12.745  20.923  0.00  0.00    +0.000 A 
ATOM     16  C   UNL     1      -3.522  12.331  19.738  0.00  0.00    +0.000 A 
ENDROOT
BRANCH   1  22
ATOM     17  C   UNL     1      -1.270  10.715  23.101  0.00  0.00    +0.000 C 
ATOM     18  N   UNL     1      -0.805  11.953  22.527  0.00  0.00    +0.000 N 
ATOM     19  N   UNL     1      -0.618  12.968  23.413  0.00  0.00    +0.000 NA
ATOM     20  N   UNL     1      -0.546  14.063  22.697  0.00  0.00    +0.000 NA
ATOM     21  N   UNL     1      -0.902  13.799  21.413  0.00  0.00    +0.000 NA
ATOM     22  C   UNL     1      -0.870  12.483  21.243  0.00  0.00    +0.000 A 
ENDBRANCH   1  22
BRANCH   1  23
ATOM     23  C   UNL     1       0.147  11.007  19.474  0.00  0.00    +0.000 C 
ATOM     24  C   UNL     1       0.571   9.807  19.915  0.00  0.00    +0.000 C 
BRANCH  24  25
ATOM     25  C   UNL     1       1.762   9.057  19.371  0.00  0.00    +0.000 C 
BRANCH  25  26
ATOM     26  O   UNL     1       2.078   8.021  20.304  0.00  0.00    +0.000 OA
ATOM     27  H   UNL     1       2.683   8.389  20.972  0.00  0.00    +0.000 HD
ENDBRANCH  25  26
BRANCH  25  28
ATOM     28  C   UNL     1       1.528   8.458  17.972  0.00  0.00    +0.000 C 
BRANCH  28  29
ATOM     29  C   UNL     1       2.586   7.442  17.516  0.00  0.00    +0.000 C 
BRANCH  29  30
ATOM     30  O   UNL     1       3.878   7.852  17.990  0.00  0.00    +0.000 OA
ATOM     31  H   UNL     1       4.273   8.413  17.295  0.00  0.00    +0.000 HD
ENDBRANCH  29  30
BRANCH  29  32
ATOM     32  C   UNL     1       2.304   6.023  18.001  0.00  0.00    +0.000 C 
BRANCH  32  33
ATOM     33  C   UNL     1       3.505   5.323  18.609  0.00  0.00    +0.000 C 
ATOM     34  O   UNL     1       3.610   5.429  19.858  0.00  0.00    +0.000 OA
ATOM     35  O   UNL     1       4.244   4.711  17.787  0.00  0.00    +0.000 OA
ENDBRANCH  32  33
ENDBRANCH  29  32
ENDBRANCH  28  29
ENDBRANCH  25  28
ENDBRANCH  24  25
ENDBRANCH   1  23
TORSDOF 9
ENDMDL
