MODEL 1
REMARK VINA RESULT:      -7.3      0.000      0.000
REMARK  Name = 
REMARK  7 active torsions:
REMARK  status: ('A' for Active; 'I' for Inactive)
REMARK    1  A    between atoms: C_1  and  C_2
REMARK    2  A    between atoms: C_2  and  O_4
REMARK    3  A    between atoms: O_4  and  C_5
REMARK    4  A    between atoms: C_8  and  C_9
REMARK    5  A    between atoms: C_8  and  C_10
REMARK    6  A    between atoms: C_13  and  C_14
REMARK    7  A    between atoms: C_18  and  C_19
REMARK                            x       y       z     vdW  Elec       q    Type
REMARK                         _______ _______ _______ _____ _____    ______ ____
ROOT
ATOM      1  C   UNL     1       4.859   5.832  16.545  0.00  0.00    +0.000 C 
ATOM      2  C   UNL     1       4.308   6.710  17.597  0.00  0.00    +0.000 C 
ATOM      3  C   UNL     1       2.985   6.722  17.878  0.00  0.00    +0.000 C 
ATOM      4  C   UNL     1       2.593   6.230  19.268  0.00  0.00    +0.000 C 
ATOM      5  C   UNL     1       3.831   5.643  20.035  0.00  0.00    +0.000 C 
ATOM      6  C   UNL     1       2.040   7.337  20.139  0.00  0.00    +0.000 C 
ATOM      7  C   UNL     1       1.483   5.182  18.921  0.00  0.00    +0.000 C 
ATOM      8  C   UNL     1       1.193   4.142  19.977  0.00  0.00    +0.000 C 
ATOM      9  C   UNL     1       1.469   2.900  19.535  0.00  0.00    +0.000 C 
ATOM     10  C   UNL     1       0.628   2.216  18.491  0.00  0.00    +0.000 C 
ATOM     11  C   UNL     1       2.847   2.385  19.831  0.00  0.00    +0.000 C 
ATOM     12  C   UNL     1       3.909   2.380  18.685  0.00  0.00    +0.000 C 
ATOM     13  C   UNL     1       4.526   3.211  17.525  0.00  0.00    +0.000 C 
ATOM     14  C   UNL     1       4.889   4.262  16.728  0.00  0.00    +0.000 C 
ATOM     15  C   UNL     1       5.434   3.743  15.372  0.00  0.00    +0.000 C 
ENDROOT
BRANCH   1  16
ATOM     16  O   UNL     1       6.149   6.396  16.149  0.00  0.00    +0.000 OA
BRANCH  16  18
ATOM     17  C   UNL     1       7.581   7.769  17.427  0.00  0.00    +0.000 C 
ATOM     18  C   UNL     1       7.203   6.377  17.014  0.00  0.00    +0.000 C 
ATOM     19  O   UNL     1       7.762   5.378  17.433  0.00  0.00    +0.000 OA
ENDBRANCH  16  18
ENDBRANCH   1  16
TORSDOF 2
ENDMDL
MODEL 2
REMARK VINA RESULT:      -6.5      1.314      3.770
REMARK  Name = 
REMARK  7 active torsions:
REMARK  status: ('A' for Active; 'I' for Inactive)
REMARK    1  A    between atoms: C_1  and  C_2
REMARK    2  A    between atoms: C_2  and  O_4
REMARK    3  A    between atoms: O_4  and  C_5
REMARK    4  A    between atoms: C_8  and  C_9
REMARK    5  A    between atoms: C_8  and  C_10
REMARK    6  A    between atoms: C_13  and  C_14
REMARK    7  A    between atoms: C_18  and  C_19
REMARK                            x       y       z     vdW  Elec       q    Type
REMARK                         _______ _______ _______ _____ _____    ______ ____
ROOT
ATOM      1  C   UNL     1       6.532   4.956  17.683  0.00  0.00    +0.000 C 
ATOM      2  C   UNL     1       5.674   3.770  17.882  0.00  0.00    +0.000 C 
ATOM      3  C   UNL     1       4.963   3.602  19.020  0.00  0.00    +0.000 C 
ATOM      4  C   UNL     1       3.445   3.623  18.868  0.00  0.00    +0.000 C 
ATOM      5  C   UNL     1       3.024   4.011  17.406  0.00  0.00    +0.000 C 
ATOM      6  C   UNL     1       2.817   2.275  19.146  0.00  0.00    +0.000 C 
ATOM      7  C   UNL     1       3.041   4.667  19.963  0.00  0.00    +0.000 C 
ATOM      8  C   UNL     1       1.688   5.316  19.800  0.00  0.00    +0.000 C 
ATOM      9  C   UNL     1       1.797   6.646  19.621  0.00  0.00    +0.000 C 
ATOM     10  C   UNL     1       2.216   7.573  20.732  0.00  0.00    +0.000 C 
ATOM     11  C   UNL     1       1.864   7.119  18.198  0.00  0.00    +0.000 C 
ATOM     12  C   UNL     1       3.251   7.531  17.608  0.00  0.00    +0.000 C 
ATOM     13  C   UNL     1       4.748   7.129  17.490  0.00  0.00    +0.000 C 
ATOM     14  C   UNL     1       5.901   6.393  17.494  0.00  0.00    +0.000 C 
ATOM     15  C   UNL     1       7.135   7.331  17.430  0.00  0.00    +0.000 C 
ENDROOT
BRANCH   1  16
ATOM     16  O   UNL     1       7.509   4.609  16.651  0.00  0.00    +0.000 OA
BRANCH  16  18
ATOM     17  C   UNL     1       6.108   3.827  14.921  0.00  0.00    +0.000 C 
ATOM     18  C   UNL     1       7.202   4.768  15.332  0.00  0.00    +0.000 C 
ATOM     19  O   UNL     1       7.712   5.575  14.575  0.00  0.00    +0.000 OA
ENDBRANCH  16  18
ENDBRANCH   1  16
TORSDOF 2
ENDMDL
MODEL 3
REMARK VINA RESULT:      -5.9      2.893      5.090
REMARK  Name = 
REMARK  7 active torsions:
REMARK  status: ('A' for Active; 'I' for Inactive)
REMARK    1  A    between atoms: C_1  and  C_2
REMARK    2  A    between atoms: C_2  and  O_4
REMARK    3  A    between atoms: O_4  and  C_5
REMARK    4  A    between atoms: C_8  and  C_9
REMARK    5  A    between atoms: C_8  and  C_10
REMARK    6  A    between atoms: C_13  and  C_14
REMARK    7  A    between atoms: C_18  and  C_19
REMARK                            x       y       z     vdW  Elec       q    Type
REMARK                         _______ _______ _______ _____ _____    ______ ____
ROOT
ATOM      1  C   UNL     1       1.622   7.223  19.950  0.00  0.00    +0.000 C 
ATOM      2  C   UNL     1       1.465   6.101  20.898  0.00  0.00    +0.000 C 
ATOM      3  C   UNL     1       0.957   4.912  20.498  0.00  0.00    +0.000 C 
ATOM      4  C   UNL     1       1.911   3.723  20.564  0.00  0.00    +0.000 C 
ATOM      5  C   UNL     1       3.367   4.179  20.935  0.00  0.00    +0.000 C 
ATOM      6  C   UNL     1       1.503   2.712  21.612  0.00  0.00    +0.000 C 
ATOM      7  C   UNL     1       1.760   3.129  19.123  0.00  0.00    +0.000 C 
ATOM      8  C   UNL     1       2.887   2.247  18.644  0.00  0.00    +0.000 C 
ATOM      9  C   UNL     1       3.500   2.771  17.566  0.00  0.00    +0.000 C 
ATOM     10  C   UNL     1       2.838   2.826  16.214  0.00  0.00    +0.000 C 
ATOM     11  C   UNL     1       4.694   3.638  17.841  0.00  0.00    +0.000 C 
ATOM     12  C   UNL     1       4.530   5.190  17.757  0.00  0.00    +0.000 C 
ATOM     13  C   UNL     1       3.630   6.393  18.155  0.00  0.00    +0.000 C 
ATOM     14  C   UNL     1       2.693   7.162  18.789  0.00  0.00    +0.000 C 
ATOM     15  C   UNL     1       2.445   8.469  17.991  0.00  0.00    +0.000 C 
ENDROOT
BRANCH   1  16
ATOM     16  O   UNL     1       1.697   8.448  20.747  0.00  0.00    +0.000 OA
BRANCH  16  18
ATOM     17  C   UNL     1       0.461   9.274  22.579  0.00  0.00    +0.000 C 
ATOM     18  C   UNL     1       0.560   9.116  21.090  0.00  0.00    +0.000 C 
ATOM     19  O   UNL     1      -0.268   9.559  20.312  0.00  0.00    +0.000 OA
ENDBRANCH  16  18
ENDBRANCH   1  16
TORSDOF 2
ENDMDL
MODEL 4
REMARK VINA RESULT:      -5.7      3.730      6.769
REMARK  Name = 
REMARK  7 active torsions:
REMARK  status: ('A' for Active; 'I' for Inactive)
REMARK    1  A    between atoms: C_1  and  C_2
REMARK    2  A    between atoms: C_2  and  O_4
REMARK    3  A    between atoms: O_4  and  C_5
REMARK    4  A    between atoms: C_8  and  C_9
REMARK    5  A    between atoms: C_8  and  C_10
REMARK    6  A    between atoms: C_13  and  C_14
REMARK    7  A    between atoms: C_18  and  C_19
REMARK                            x       y       z     vdW  Elec       q    Type
REMARK                         _______ _______ _______ _____ _____    ______ ____
ROOT
ATOM      1  C   UNL     1       2.190   7.346  19.840  0.00  0.00    +0.000 C 
ATOM      2  C   UNL     1       1.370   7.560  21.049  0.00  0.00    +0.000 C 
ATOM      3  C   UNL     1       1.541   8.654  21.827  0.00  0.00    +0.000 C 
ATOM      4  C   UNL     1       0.361   9.620  21.887  0.00  0.00    +0.000 C 
ATOM      5  C   UNL     1      -0.766   9.208  20.875  0.00  0.00    +0.000 C 
ATOM      6  C   UNL     1      -0.287   9.656  23.253  0.00  0.00    +0.000 C 
ATOM      7  C   UNL     1       1.063  10.982  21.564  0.00  0.00    +0.000 C 
ATOM      8  C   UNL     1       0.171  12.090  21.059  0.00  0.00    +0.000 C 
ATOM      9  C   UNL     1       0.507  12.464  19.810  0.00  0.00    +0.000 C 
ATOM     10  C   UNL     1       1.776  13.218  19.513  0.00  0.00    +0.000 C 
ATOM     11  C   UNL     1      -0.222  11.773  18.695  0.00  0.00    +0.000 C 
ATOM     12  C   UNL     1       0.510  10.639  17.908  0.00  0.00    +0.000 C 
ATOM     13  C   UNL     1       1.395   9.369  18.046  0.00  0.00    +0.000 C 
ATOM     14  C   UNL     1       2.019   8.269  18.567  0.00  0.00    +0.000 C 
ATOM     15  C   UNL     1       3.124   7.771  17.600  0.00  0.00    +0.000 C 
ENDROOT
BRANCH   1  16
ATOM     16  O   UNL     1       2.133   5.916  19.533  0.00  0.00    +0.000 OA
BRANCH  16  18
ATOM     17  C   UNL     1       2.450   4.006  20.881  0.00  0.00    +0.000 C 
ATOM     18  C   UNL     1       3.078   5.068  20.028  0.00  0.00    +0.000 C 
ATOM     19  O   UNL     1       4.275   5.125  19.802  0.00  0.00    +0.000 OA
ENDBRANCH  16  18
ENDBRANCH   1  16
TORSDOF 2
ENDMDL
MODEL 5
REMARK VINA RESULT:      -5.7      8.989     11.332
REMARK  Name = 
REMARK  7 active torsions:
REMARK  status: ('A' for Active; 'I' for Inactive)
REMARK    1  A    between atoms: C_1  and  C_2
REMARK    2  A    between atoms: C_2  and  O_4
REMARK    3  A    between atoms: O_4  and  C_5
REMARK    4  A    between atoms: C_8  and  C_9
REMARK    5  A    between atoms: C_8  and  C_10
REMARK    6  A    between atoms: C_13  and  C_14
REMARK    7  A    between atoms: C_18  and  C_19
REMARK                            x       y       z     vdW  Elec       q    Type
REMARK                         _______ _______ _______ _____ _____    ______ ____
ROOT
ATOM      1  C   UNL     1      -4.477  11.857  18.785  0.00  0.00    +0.000 C 
ATOM      2  C   UNL     1      -4.700  12.937  19.767  0.00  0.00    +0.000 C 
ATOM      3  C   UNL     1      -4.633  12.700  21.097  0.00  0.00    +0.000 C 
ATOM      4  C   UNL     1      -3.506  13.407  21.845  0.00  0.00    +0.000 C 
ATOM      5  C   UNL     1      -2.540  14.148  20.853  0.00  0.00    +0.000 C 
ATOM      6  C   UNL     1      -4.020  14.459  22.803  0.00  0.00    +0.000 C 
ATOM      7  C   UNL     1      -2.855  12.213  22.620  0.00  0.00    +0.000 C 
ATOM      8  C   UNL     1      -1.434  12.414  23.086  0.00  0.00    +0.000 C 
ATOM      9  C   UNL     1      -0.595  11.534  22.508  0.00  0.00    +0.000 C 
ATOM     10  C   UNL     1      -0.605  10.069  22.857  0.00  0.00    +0.000 C 
ATOM     11  C   UNL     1       0.071  11.989  21.242  0.00  0.00    +0.000 C 
ATOM     12  C   UNL     1      -0.471  11.457  19.876  0.00  0.00    +0.000 C 
ATOM     13  C   UNL     1      -1.752  11.182  19.041  0.00  0.00    +0.000 C 
ATOM     14  C   UNL     1      -3.044  11.216  18.592  0.00  0.00    +0.000 C 
ATOM     15  C   UNL     1      -3.286  10.076  17.568  0.00  0.00    +0.000 C 
ENDROOT
BRANCH   1  16
ATOM     16  O   UNL     1      -5.096  12.284  17.530  0.00  0.00    +0.000 OA
BRANCH  16  18
ATOM     17  C   UNL     1      -6.736  13.811  16.789  0.00  0.00    +0.000 C 
ATOM     18  C   UNL     1      -6.439  12.505  17.466  0.00  0.00    +0.000 C 
ATOM     19  O   UNL     1      -7.306  11.748  17.871  0.00  0.00    +0.000 OA
ENDBRANCH  16  18
ENDBRANCH   1  16
TORSDOF 2
ENDMDL
MODEL 6
REMARK VINA RESULT:      -5.6      1.670      3.278
REMARK  Name = 
REMARK  7 active torsions:
REMARK  status: ('A' for Active; 'I' for Inactive)
REMARK    1  A    between atoms: C_1  and  C_2
REMARK    2  A    between atoms: C_2  and  O_4
REMARK    3  A    between atoms: O_4  and  C_5
REMARK    4  A    between atoms: C_8  and  C_9
REMARK    5  A    between atoms: C_8  and  C_10
REMARK    6  A    between atoms: C_13  and  C_14
REMARK    7  A    between atoms: C_18  and  C_19
REMARK                            x       y       z     vdW  Elec       q    Type
REMARK                         _______ _______ _______ _____ _____    ______ ____
ROOT
ATOM      1  C   UNL     1       5.426   5.633  18.000  0.00  0.00    +0.000 C 
ATOM      2  C   UNL     1       5.801   4.281  18.463  0.00  0.00    +0.000 C 
ATOM      3  C   UNL     1       5.368   3.803  19.652  0.00  0.00    +0.000 C 
ATOM      4  C   UNL     1       4.433   2.599  19.587  0.00  0.00    +0.000 C 
ATOM      5  C   UNL     1       4.032   2.268  18.105  0.00  0.00    +0.000 C 
ATOM      6  C   UNL     1       5.067   1.344  20.145  0.00  0.00    +0.000 C 
ATOM      7  C   UNL     1       3.250   3.081  20.492  0.00  0.00    +0.000 C 
ATOM      8  C   UNL     1       1.928   2.381  20.291  0.00  0.00    +0.000 C 
ATOM      9  C   UNL     1       0.977   3.233  19.864  0.00  0.00    +0.000 C 
ATOM     10  C   UNL     1       0.391   4.293  20.759  0.00  0.00    +0.000 C 
ATOM     11  C   UNL     1       0.807   3.342  18.377  0.00  0.00    +0.000 C 
ATOM     12  C   UNL     1       1.405   4.585  17.642  0.00  0.00    +0.000 C 
ATOM     13  C   UNL     1       2.654   5.501  17.513  0.00  0.00    +0.000 C 
ATOM     14  C   UNL     1       3.938   5.968  17.586  0.00  0.00    +0.000 C 
ATOM     15  C   UNL     1       3.974   7.487  17.278  0.00  0.00    +0.000 C 
ENDROOT
BRANCH   1  16
ATOM     16  O   UNL     1       6.412   6.029  16.994  0.00  0.00    +0.000 OA
BRANCH  16  18
ATOM     17  C   UNL     1       5.955   5.032  14.904  0.00  0.00    +0.000 C 
ATOM     18  C   UNL     1       6.873   5.121  16.087  0.00  0.00    +0.000 C 
ATOM     19  O   UNL     1       7.903   4.476  16.186  0.00  0.00    +0.000 OA
ENDBRANCH  16  18
ENDBRANCH   1  16
TORSDOF 2
ENDMDL
MODEL 7
REMARK VINA RESULT:      -5.6      2.648      5.383
REMARK  Name = 
REMARK  7 active torsions:
REMARK  status: ('A' for Active; 'I' for Inactive)
REMARK    1  A    between atoms: C_1  and  C_2
REMARK    2  A    between atoms: C_2  and  O_4
REMARK    3  A    between atoms: O_4  and  C_5
REMARK    4  A    between atoms: C_8  and  C_9
REMARK    5  A    between atoms: C_8  and  C_10
REMARK    6  A    between atoms: C_13  and  C_14
REMARK    7  A    between atoms: C_18  and  C_19
REMARK                            x       y       z     vdW  Elec       q    Type
REMARK                         _______ _______ _______ _____ _____    ______ ____
ROOT
ATOM      1  C   UNL     1       2.430   6.991  19.241  0.00  0.00    +0.000 C 
ATOM      2  C   UNL     1       2.856   5.737  19.894  0.00  0.00    +0.000 C 
ATOM      3  C   UNL     1       2.816   4.555  19.237  0.00  0.00    +0.000 C 
ATOM      4  C   UNL     1       4.163   3.886  18.982  0.00  0.00    +0.000 C 
ATOM      5  C   UNL     1       5.353   4.821  19.404  0.00  0.00    +0.000 C 
ATOM      6  C   UNL     1       4.331   2.605  19.768  0.00  0.00    +0.000 C 
ATOM      7  C   UNL     1       4.075   3.594  17.446  0.00  0.00    +0.000 C 
ATOM      8  C   UNL     1       5.387   3.382  16.730  0.00  0.00    +0.000 C 
ATOM      9  C   UNL     1       5.595   4.324  15.791  0.00  0.00    +0.000 C 
ATOM     10  C   UNL     1       4.796   4.375  14.516  0.00  0.00    +0.000 C 
ATOM     11  C   UNL     1       6.371   5.533  16.228  0.00  0.00    +0.000 C 
ATOM     12  C   UNL     1       5.594   6.855  16.526  0.00  0.00    +0.000 C 
ATOM     13  C   UNL     1       4.350   7.463  17.233  0.00  0.00    +0.000 C 
ATOM     14  C   UNL     1       3.276   7.623  18.064  0.00  0.00    +0.000 C 
ATOM     15  C   UNL     1       2.427   8.841  17.614  0.00  0.00    +0.000 C 
ENDROOT
BRANCH   1  16
ATOM     16  O   UNL     1       2.115   7.942  20.307  0.00  0.00    +0.000 OA
BRANCH  16  18
ATOM     17  C   UNL     1       0.320   9.469  20.435  0.00  0.00    +0.000 C 
ATOM     18  C   UNL     1       0.831   8.091  20.739  0.00  0.00    +0.000 C 
ATOM     19  O   UNL     1       0.156   7.229  21.276  0.00  0.00    +0.000 OA
ENDBRANCH  16  18
ENDBRANCH   1  16
TORSDOF 2
ENDMDL
MODEL 8
REMARK VINA RESULT:      -5.5      3.844      6.723
REMARK  Name = 
REMARK  7 active torsions:
REMARK  status: ('A' for Active; 'I' for Inactive)
REMARK    1  A    between atoms: C_1  and  C_2
REMARK    2  A    between atoms: C_2  and  O_4
REMARK    3  A    between atoms: O_4  and  C_5
REMARK    4  A    between atoms: C_8  and  C_9
REMARK    5  A    between atoms: C_8  and  C_10
REMARK    6  A    between atoms: C_13  and  C_14
REMARK    7  A    between atoms: C_18  and  C_19
REMARK                            x       y       z     vdW  Elec       q    Type
REMARK                         _______ _______ _______ _____ _____    ______ ____
ROOT
ATOM      1  C   UNL     1       2.465   7.423  19.907  0.00  0.00    +0.000 C 
ATOM      2  C   UNL     1       1.695   7.575  21.158  0.00  0.00    +0.000 C 
ATOM      3  C   UNL     1       1.616   8.767  21.793  0.00  0.00    +0.000 C 
ATOM      4  C   UNL     1       0.228   9.398  21.858  0.00  0.00    +0.000 C 
ATOM      5  C   UNL     1      -0.809   8.583  21.006  0.00  0.00    +0.000 C 
ATOM      6  C   UNL     1      -0.321   9.442  23.267  0.00  0.00    +0.000 C 
ATOM      7  C   UNL     1       0.522  10.840  21.325  0.00  0.00    +0.000 C 
ATOM      8  C   UNL     1      -0.662  11.608  20.789  0.00  0.00    +0.000 C 
ATOM      9  C   UNL     1      -0.515  11.892  19.481  0.00  0.00    +0.000 C 
ATOM     10  C   UNL     1       0.487  12.901  18.986  0.00  0.00    +0.000 C 
ATOM     11  C   UNL     1      -1.102  10.899  18.520  0.00  0.00    +0.000 C 
ATOM     12  C   UNL     1      -0.145   9.899  17.795  0.00  0.00    +0.000 C 
ATOM     13  C   UNL     1       1.053   8.926  17.986  0.00  0.00    +0.000 C 
ATOM     14  C   UNL     1       1.977   8.100  18.564  0.00  0.00    +0.000 C 
ATOM     15  C   UNL     1       3.113   7.781  17.557  0.00  0.00    +0.000 C 
ENDROOT
BRANCH   1  16
ATOM     16  O   UNL     1       2.772   6.000  19.763  0.00  0.00    +0.000 OA
BRANCH  16  18
ATOM     17  C   UNL     1       1.680   4.500  18.305  0.00  0.00    +0.000 C 
ATOM     18  C   UNL     1       1.766   5.084  19.684  0.00  0.00    +0.000 C 
ATOM     19  O   UNL     1       1.038   4.745  20.602  0.00  0.00    +0.000 OA
ENDBRANCH  16  18
ENDBRANCH   1  16
TORSDOF 2
ENDMDL
MODEL 9
REMARK VINA RESULT:      -5.5      2.421      5.874
REMARK  Name = 
REMARK  7 active torsions:
REMARK  status: ('A' for Active; 'I' for Inactive)
REMARK    1  A    between atoms: C_1  and  C_2
REMARK    2  A    between atoms: C_2  and  O_4
REMARK    3  A    between atoms: O_4  and  C_5
REMARK    4  A    between atoms: C_8  and  C_9
REMARK    5  A    between atoms: C_8  and  C_10
REMARK    6  A    between atoms: C_13  and  C_14
REMARK    7  A    between atoms: C_18  and  C_19
REMARK                            x       y       z     vdW  Elec       q    Type
REMARK                         _______ _______ _______ _____ _____    ______ ____
ROOT
ATOM      1  C   UNL     1       2.676   4.470  17.987  0.00  0.00    +0.000 C 
ATOM      2  C   UNL     1       3.265   3.903  16.757  0.00  0.00    +0.000 C 
ATOM      3  C   UNL     1       3.889   4.690  15.851  0.00  0.00    +0.000 C 
ATOM      4  C   UNL     1       5.383   4.441  15.668  0.00  0.00    +0.000 C 
ATOM      5  C   UNL     1       5.922   3.407  16.719  0.00  0.00    +0.000 C 
ATOM      6  C   UNL     1       5.711   3.871  14.305  0.00  0.00    +0.000 C 
ATOM      7  C   UNL     1       5.957   5.889  15.823  0.00  0.00    +0.000 C 
ATOM      8  C   UNL     1       7.419   5.994  16.184  0.00  0.00    +0.000 C 
ATOM      9  C   UNL     1       7.591   6.591  17.378  0.00  0.00    +0.000 C 
ATOM     10  C   UNL     1       7.336   8.060  17.585  0.00  0.00    +0.000 C 
ATOM     11  C   UNL     1       7.669   5.679  18.568  0.00  0.00    +0.000 C 
ATOM     12  C   UNL     1       6.416   5.541  19.491  0.00  0.00    +0.000 C 
ATOM     13  C   UNL     1       4.873   5.353  19.515  0.00  0.00    +0.000 C 
ATOM     14  C   UNL     1       3.594   5.052  19.135  0.00  0.00    +0.000 C 
ATOM     15  C   UNL     1       2.582   5.627  20.160  0.00  0.00    +0.000 C 
ENDROOT
BRANCH   1  16
ATOM     16  O   UNL     1       1.683   3.509  18.468  0.00  0.00    +0.000 OA
BRANCH  16  18
ATOM     17  C   UNL     1       1.389   2.400  20.529  0.00  0.00    +0.000 C 
ATOM     18  C   UNL     1       2.071   2.423  19.193  0.00  0.00    +0.000 C 
ATOM     19  O   UNL     1       2.844   1.557  18.820  0.00  0.00    +0.000 OA
ENDBRANCH  16  18
ENDBRANCH   1  16
TORSDOF 2
ENDMDL
