MODEL 1
REMARK VINA RESULT:      -4.4      0.000      0.000
REMARK  Name = 
REMARK  9 active torsions:
REMARK  status: ('A' for Active; 'I' for Inactive)
REMARK    1  A    between atoms: N_1  and  C_2
REMARK    2  A    between atoms: C_2  and  C_3
REMARK    3  A    between atoms: C_2  and  C_5
REMARK    4  A    between atoms: C_3  and  S_4
REMARK    5  A    between atoms: C_5  and  C_6
REMARK    6  A    between atoms: C_6  and  C_7
REMARK    7  A    between atoms: C_7  and  P_8
REMARK    8  A    between atoms: P_8  and  O_10
REMARK    9  A    between atoms: P_8  and  O_11
REMARK                            x       y       z     vdW  Elec       q    Type
REMARK                         _______ _______ _______ _____ _____    ______ ____
ROOT
ATOM      1  C   UNL     1       3.348   4.451  18.683  0.00  0.00    +0.000 C 
ENDROOT
BRANCH   1   2
ATOM      2  C   UNL     1       3.426   2.926  18.890  0.00  0.00    +0.000 C 
BRANCH   2   3
ATOM      3  N   UNL     1       4.691   2.598  19.556  0.00  0.00    +0.000 NA
ATOM      4  H   UNL     1       5.219   1.975  18.944  0.00  0.00    +0.000 HD
ATOM      5  H   UNL     1       4.508   2.041  20.390  0.00  0.00    +0.000 HD
ENDBRANCH   2   3
BRANCH   2   6
ATOM      6  C   UNL     1       2.195   2.406  19.665  0.00  0.00    +0.000 C 
BRANCH   6   7
ATOM      7  S   UNL     1       2.284   2.841  21.437  0.00  0.00    +0.000 S 
ATOM      8  H   UNL     1       1.629   4.008  21.343  0.00  0.00    +0.000 HD
ENDBRANCH   6   7
ENDBRANCH   2   6
ENDBRANCH   1   2
BRANCH   1   9
ATOM      9  C   UNL     1       4.018   4.934  17.389  0.00  0.00    +0.000 C 
BRANCH   9  10
ATOM     10  C   UNL     1       5.222   5.840  17.642  0.00  0.00    +0.000 C 
BRANCH  10  11
ATOM     11  P   UNL     1       6.804   4.937  17.477  0.00  0.00    +0.000 P 
ATOM     12  O   UNL     1       6.787   4.569  18.962  0.00  0.00    +0.000 OA
BRANCH  11  13
ATOM     13  O   UNL     1       6.051   3.678  16.753  0.00  0.00    +0.000 OA
ATOM     14  H   UNL     1       5.193   3.966  16.389  0.00  0.00    +0.000 HD
ENDBRANCH  11  13
BRANCH  11  15
ATOM     15  O   UNL     1       8.300   4.084  17.320  0.00  0.00    +0.000 OA
ATOM     16  H   UNL     1       8.338   3.817  16.379  0.00  0.00    +0.000 HD
ENDBRANCH  11  15
ENDBRANCH  10  11
ENDBRANCH   9  10
ENDBRANCH   1   9
TORSDOF 9
ENDMDL
MODEL 2
REMARK VINA RESULT:      -4.3      1.460      1.700
REMARK  Name = 
REMARK  9 active torsions:
REMARK  status: ('A' for Active; 'I' for Inactive)
REMARK    1  A    between atoms: N_1  and  C_2
REMARK    2  A    between atoms: C_2  and  C_3
REMARK    3  A    between atoms: C_2  and  C_5
REMARK    4  A    between atoms: C_3  and  S_4
REMARK    5  A    between atoms: C_5  and  C_6
REMARK    6  A    between atoms: C_6  and  C_7
REMARK    7  A    between atoms: C_7  and  P_8
REMARK    8  A    between atoms: P_8  and  O_10
REMARK    9  A    between atoms: P_8  and  O_11
REMARK                            x       y       z     vdW  Elec       q    Type
REMARK                         _______ _______ _______ _____ _____    ______ ____
ROOT
ATOM      1  C   UNL     1       4.262   3.989  18.253  0.00  0.00    +0.000 C 
ENDROOT
BRANCH   1   2
ATOM      2  C   UNL     1       3.782   2.887  19.218  0.00  0.00    +0.000 C 
BRANCH   2   3
ATOM      3  N   UNL     1       4.944   2.134  19.701  0.00  0.00    +0.000 NA
ATOM      4  H   UNL     1       5.330   1.609  18.916  0.00  0.00    +0.000 HD
ATOM      5  H   UNL     1       4.642   1.419  20.362  0.00  0.00    +0.000 HD
ENDBRANCH   2   3
BRANCH   2   6
ATOM      6  C   UNL     1       2.940   3.483  20.368  0.00  0.00    +0.000 C 
BRANCH   6   7
ATOM      7  S   UNL     1       1.156   3.462  19.975  0.00  0.00    +0.000 S 
ATOM      8  H   UNL     1       0.735   3.968  21.144  0.00  0.00    +0.000 HD
ENDBRANCH   6   7
ENDBRANCH   2   6
ENDBRANCH   1   2
BRANCH   1   9
ATOM      9  C   UNL     1       4.887   5.200  18.960  0.00  0.00    +0.000 C 
BRANCH   9  10
ATOM     10  C   UNL     1       6.413   5.215  18.879  0.00  0.00    +0.000 C 
BRANCH  10  11
ATOM     11  P   UNL     1       7.009   4.947  17.170  0.00  0.00    +0.000 P 
ATOM     12  O   UNL     1       7.581   6.365  17.112  0.00  0.00    +0.000 OA
BRANCH  11  13
ATOM     13  O   UNL     1       8.261   4.043  17.711  0.00  0.00    +0.000 OA
ATOM     14  H   UNL     1       8.989   4.056  17.062  0.00  0.00    +0.000 HD
ENDBRANCH  11  13
BRANCH  11  15
ATOM     15  O   UNL     1       7.572   4.692  15.555  0.00  0.00    +0.000 OA
ATOM     16  H   UNL     1       6.978   4.006  15.189  0.00  0.00    +0.000 HD
ENDBRANCH  11  15
ENDBRANCH  10  11
ENDBRANCH   9  10
ENDBRANCH   1   9
TORSDOF 9
ENDMDL
MODEL 3
REMARK VINA RESULT:      -4.3      1.892      2.171
REMARK  Name = 
REMARK  9 active torsions:
REMARK  status: ('A' for Active; 'I' for Inactive)
REMARK    1  A    between atoms: N_1  and  C_2
REMARK    2  A    between atoms: C_2  and  C_3
REMARK    3  A    between atoms: C_2  and  C_5
REMARK    4  A    between atoms: C_3  and  S_4
REMARK    5  A    between atoms: C_5  and  C_6
REMARK    6  A    between atoms: C_6  and  C_7
REMARK    7  A    between atoms: C_7  and  P_8
REMARK    8  A    between atoms: P_8  and  O_10
REMARK    9  A    between atoms: P_8  and  O_11
REMARK                            x       y       z     vdW  Elec       q    Type
REMARK                         _______ _______ _______ _____ _____    ______ ____
ROOT
ATOM      1  C   UNL     1       5.300   4.144  18.716  0.00  0.00    +0.000 C 
ENDROOT
BRANCH   1   2
ATOM      2  C   UNL     1       4.233   3.137  19.190  0.00  0.00    +0.000 C 
BRANCH   2   3
ATOM      3  N   UNL     1       4.875   2.120  20.029  0.00  0.00    +0.000 NA
ATOM      4  H   UNL     1       4.512   2.217  20.977  0.00  0.00    +0.000 HD
ATOM      5  H   UNL     1       5.870   2.321  20.116  0.00  0.00    +0.000 HD
ENDBRANCH   2   3
BRANCH   2   6
ATOM      6  C   UNL     1       3.071   3.856  19.910  0.00  0.00    +0.000 C 
BRANCH   6   7
ATOM      7  S   UNL     1       2.414   2.854  21.289  0.00  0.00    +0.000 S 
ATOM      8  H   UNL     1       1.143   2.813  20.859  0.00  0.00    +0.000 HD
ENDBRANCH   6   7
ENDBRANCH   2   6
ENDBRANCH   1   2
BRANCH   1   9
ATOM      9  C   UNL     1       4.992   4.773  17.350  0.00  0.00    +0.000 C 
BRANCH   9  10
ATOM     10  C   UNL     1       5.443   3.904  16.177  0.00  0.00    +0.000 C 
BRANCH  10  11
ATOM     11  P   UNL     1       6.698   4.746  15.146  0.00  0.00    +0.000 P 
ATOM     12  O   UNL     1       6.105   6.115  15.485  0.00  0.00    +0.000 OA
BRANCH  11  13
ATOM     13  O   UNL     1       7.843   4.521  16.293  0.00  0.00    +0.000 OA
ATOM     14  H   UNL     1       7.475   4.007  17.037  0.00  0.00    +0.000 HD
ENDBRANCH  11  13
BRANCH  11  15
ATOM     15  O   UNL     1       7.885   5.541  14.171  0.00  0.00    +0.000 OA
ATOM     16  H   UNL     1       7.531   5.493  13.259  0.00  0.00    +0.000 HD
ENDBRANCH  11  15
ENDBRANCH  10  11
ENDBRANCH   9  10
ENDBRANCH   1   9
TORSDOF 9
ENDMDL
MODEL 4
REMARK VINA RESULT:      -4.3      1.625      1.849
REMARK  Name = 
REMARK  9 active torsions:
REMARK  status: ('A' for Active; 'I' for Inactive)
REMARK    1  A    between atoms: N_1  and  C_2
REMARK    2  A    between atoms: C_2  and  C_3
REMARK    3  A    between atoms: C_2  and  C_5
REMARK    4  A    between atoms: C_3  and  S_4
REMARK    5  A    between atoms: C_5  and  C_6
REMARK    6  A    between atoms: C_6  and  C_7
REMARK    7  A    between atoms: C_7  and  P_8
REMARK    8  A    between atoms: P_8  and  O_10
REMARK    9  A    between atoms: P_8  and  O_11
REMARK                            x       y       z     vdW  Elec       q    Type
REMARK                         _______ _______ _______ _____ _____    ______ ____
ROOT
ATOM      1  C   UNL     1       3.734   4.465  18.742  0.00  0.00    +0.000 C 
ENDROOT
BRANCH   1   2
ATOM      2  C   UNL     1       4.224   3.028  18.477  0.00  0.00    +0.000 C 
BRANCH   2   3
ATOM      3  N   UNL     1       4.914   2.530  19.671  0.00  0.00    +0.000 NA
ATOM      4  H   UNL     1       4.291   1.878  20.148  0.00  0.00    +0.000 HD
ATOM      5  H   UNL     1       5.045   3.291  20.337  0.00  0.00    +0.000 HD
ENDBRANCH   2   3
BRANCH   2   6
ATOM      6  C   UNL     1       3.056   2.115  18.041  0.00  0.00    +0.000 C 
BRANCH   6   7
ATOM      7  S   UNL     1       1.447   2.764  18.612  0.00  0.00    +0.000 S 
ATOM      8  H   UNL     1       1.147   3.439  17.492  0.00  0.00    +0.000 HD
ENDBRANCH   6   7
ENDBRANCH   2   6
ENDBRANCH   1   2
BRANCH   1   9
ATOM      9  C   UNL     1       4.550   5.540  18.010  0.00  0.00    +0.000 C 
BRANCH   9  10
ATOM     10  C   UNL     1       6.058   5.326  18.125  0.00  0.00    +0.000 C 
BRANCH  10  11
ATOM     11  P   UNL     1       6.865   5.251  16.485  0.00  0.00    +0.000 P 
ATOM     12  O   UNL     1       7.535   6.607  16.716  0.00  0.00    +0.000 OA
BRANCH  11  13
ATOM     13  O   UNL     1       7.965   4.172  17.036  0.00  0.00    +0.000 OA
ATOM     14  H   UNL     1       7.546   3.564  17.674  0.00  0.00    +0.000 HD
ENDBRANCH  11  13
BRANCH  11  15
ATOM     15  O   UNL     1       7.627   5.180  14.934  0.00  0.00    +0.000 OA
ATOM     16  H   UNL     1       7.455   4.271  14.613  0.00  0.00    +0.000 HD
ENDBRANCH  11  15
ENDBRANCH  10  11
ENDBRANCH   9  10
ENDBRANCH   1   9
TORSDOF 9
ENDMDL
MODEL 5
REMARK VINA RESULT:      -4.3      1.826      1.933
REMARK  Name = 
REMARK  9 active torsions:
REMARK  status: ('A' for Active; 'I' for Inactive)
REMARK    1  A    between atoms: N_1  and  C_2
REMARK    2  A    between atoms: C_2  and  C_3
REMARK    3  A    between atoms: C_2  and  C_5
REMARK    4  A    between atoms: C_3  and  S_4
REMARK    5  A    between atoms: C_5  and  C_6
REMARK    6  A    between atoms: C_6  and  C_7
REMARK    7  A    between atoms: C_7  and  P_8
REMARK    8  A    between atoms: P_8  and  O_10
REMARK    9  A    between atoms: P_8  and  O_11
REMARK                            x       y       z     vdW  Elec       q    Type
REMARK                         _______ _______ _______ _____ _____    ______ ____
ROOT
ATOM      1  C   UNL     1       3.178   3.698  17.878  0.00  0.00    +0.000 C 
ENDROOT
BRANCH   1   2
ATOM      2  C   UNL     1       2.366   2.387  17.882  0.00  0.00    +0.000 C 
BRANCH   2   3
ATOM      3  N   UNL     1       3.204   1.307  18.412  0.00  0.00    +0.000 NA
ATOM      4  H   UNL     1       2.787   0.981  19.284  0.00  0.00    +0.000 HD
ATOM      5  H   UNL     1       4.113   1.679  18.689  0.00  0.00    +0.000 HD
ENDBRANCH   2   3
BRANCH   2   6
ATOM      6  C   UNL     1       1.045   2.553  18.665  0.00  0.00    +0.000 C 
BRANCH   6   7
ATOM      7  S   UNL     1       1.273   3.588  20.153  0.00  0.00    +0.000 S 
ATOM      8  H   UNL     1       0.214   3.118  20.831  0.00  0.00    +0.000 HD
ENDBRANCH   6   7
ENDBRANCH   2   6
ENDBRANCH   1   2
BRANCH   1   9
ATOM      9  C   UNL     1       4.418   3.654  16.975  0.00  0.00    +0.000 C 
BRANCH   9  10
ATOM     10  C   UNL     1       5.509   4.630  17.412  0.00  0.00    +0.000 C 
BRANCH  10  11
ATOM     11  P   UNL     1       6.698   4.976  16.065  0.00  0.00    +0.000 P 
ATOM     12  O   UNL     1       6.856   6.424  16.532  0.00  0.00    +0.000 OA
BRANCH  11  13
ATOM     13  O   UNL     1       7.884   4.177  16.859  0.00  0.00    +0.000 OA
ATOM     14  H   UNL     1       8.756   4.535  16.607  0.00  0.00    +0.000 HD
ENDBRANCH  11  13
BRANCH  11  15
ATOM     15  O   UNL     1       7.820   5.302  14.791  0.00  0.00    +0.000 OA
ATOM     16  H   UNL     1       7.334   5.884  14.172  0.00  0.00    +0.000 HD
ENDBRANCH  11  15
ENDBRANCH  10  11
ENDBRANCH   9  10
ENDBRANCH   1   9
TORSDOF 9
ENDMDL
MODEL 6
REMARK VINA RESULT:      -4.3      1.374      1.489
REMARK  Name = 
REMARK  9 active torsions:
REMARK  status: ('A' for Active; 'I' for Inactive)
REMARK    1  A    between atoms: N_1  and  C_2
REMARK    2  A    between atoms: C_2  and  C_3
REMARK    3  A    between atoms: C_2  and  C_5
REMARK    4  A    between atoms: C_3  and  S_4
REMARK    5  A    between atoms: C_5  and  C_6
REMARK    6  A    between atoms: C_6  and  C_7
REMARK    7  A    between atoms: C_7  and  P_8
REMARK    8  A    between atoms: P_8  and  O_10
REMARK    9  A    between atoms: P_8  and  O_11
REMARK                            x       y       z     vdW  Elec       q    Type
REMARK                         _______ _______ _______ _____ _____    ______ ____
ROOT
ATOM      1  C   UNL     1       2.300   3.842  17.542  0.00  0.00    +0.000 C 
ENDROOT
BRANCH   1   2
ATOM      2  C   UNL     1       1.342   3.069  18.470  0.00  0.00    +0.000 C 
BRANCH   2   3
ATOM      3  N   UNL     1       1.872   1.719  18.686  0.00  0.00    +0.000 NA
ATOM      4  H   UNL     1       1.083   1.079  18.775  0.00  0.00    +0.000 HD
ATOM      5  H   UNL     1       2.340   1.673  19.591  0.00  0.00    +0.000 HD
ENDBRANCH   2   3
BRANCH   2   6
ATOM      6  C   UNL     1       1.109   3.835  19.791  0.00  0.00    +0.000 C 
BRANCH   6   7
ATOM      7  S   UNL     1       1.612   2.843  21.240  0.00  0.00    +0.000 S 
ATOM      8  H   UNL     1       0.831   1.783  20.980  0.00  0.00    +0.000 HD
ENDBRANCH   6   7
ENDBRANCH   2   6
ENDBRANCH   1   2
BRANCH   1   9
ATOM      9  C   UNL     1       3.698   4.057  18.138  0.00  0.00    +0.000 C 
BRANCH   9  10
ATOM     10  C   UNL     1       4.506   5.121  17.397  0.00  0.00    +0.000 C 
BRANCH  10  11
ATOM     11  P   UNL     1       6.267   4.652  17.232  0.00  0.00    +0.000 P 
ATOM     12  O   UNL     1       6.317   4.200  18.693  0.00  0.00    +0.000 OA
BRANCH  11  13
ATOM     13  O   UNL     1       5.864   3.292  16.416  0.00  0.00    +0.000 OA
ATOM     14  H   UNL     1       5.143   3.480  15.786  0.00  0.00    +0.000 HD
ENDBRANCH  11  13
BRANCH  11  15
ATOM     15  O   UNL     1       7.931   4.209  17.075  0.00  0.00    +0.000 OA
ATOM     16  H   UNL     1       8.073   3.524  17.760  0.00  0.00    +0.000 HD
ENDBRANCH  11  15
ENDBRANCH  10  11
ENDBRANCH   9  10
ENDBRANCH   1   9
TORSDOF 9
ENDMDL
MODEL 7
REMARK VINA RESULT:      -4.3      1.922      2.115
REMARK  Name = 
REMARK  9 active torsions:
REMARK  status: ('A' for Active; 'I' for Inactive)
REMARK    1  A    between atoms: N_1  and  C_2
REMARK    2  A    between atoms: C_2  and  C_3
REMARK    3  A    between atoms: C_2  and  C_5
REMARK    4  A    between atoms: C_3  and  S_4
REMARK    5  A    between atoms: C_5  and  C_6
REMARK    6  A    between atoms: C_6  and  C_7
REMARK    7  A    between atoms: C_7  and  P_8
REMARK    8  A    between atoms: P_8  and  O_10
REMARK    9  A    between atoms: P_8  and  O_11
REMARK                            x       y       z     vdW  Elec       q    Type
REMARK                         _______ _______ _______ _____ _____    ______ ____
ROOT
ATOM      1  C   UNL     1       4.649   4.298  19.260  0.00  0.00    +0.000 C 
ENDROOT
BRANCH   1   2
ATOM      2  C   UNL     1       4.230   2.839  18.988  0.00  0.00    +0.000 C 
BRANCH   2   3
ATOM      3  N   UNL     1       4.965   1.953  19.896  0.00  0.00    +0.000 NA
ATOM      4  H   UNL     1       4.418   1.100  20.018  0.00  0.00    +0.000 HD
ATOM      5  H   UNL     1       5.001   2.367  20.828  0.00  0.00    +0.000 HD
ENDBRANCH   2   3
BRANCH   2   6
ATOM      6  C   UNL     1       2.699   2.671  19.102  0.00  0.00    +0.000 C 
BRANCH   6   7
ATOM      7  S   UNL     1       1.811   3.867  18.046  0.00  0.00    +0.000 S 
ATOM      8  H   UNL     1       2.008   3.224  16.884  0.00  0.00    +0.000 HD
ENDBRANCH   6   7
ENDBRANCH   2   6
ENDBRANCH   1   2
BRANCH   1   9
ATOM      9  C   UNL     1       5.561   4.890  18.176  0.00  0.00    +0.000 C 
BRANCH   9  10
ATOM     10  C   UNL     1       5.438   4.171  16.834  0.00  0.00    +0.000 C 
BRANCH  10  11
ATOM     11  P   UNL     1       6.626   4.816  15.601  0.00  0.00    +0.000 P 
ATOM     12  O   UNL     1       7.811   4.375  16.464  0.00  0.00    +0.000 OA
BRANCH  11  13
ATOM     13  O   UNL     1       6.359   3.534  14.620  0.00  0.00    +0.000 OA
ATOM     14  H   UNL     1       6.343   3.823  13.688  0.00  0.00    +0.000 HD
ENDBRANCH  11  13
BRANCH  11  15
ATOM     15  O   UNL     1       7.749   5.426  14.436  0.00  0.00    +0.000 OA
ATOM     16  H   UNL     1       7.766   6.393  14.588  0.00  0.00    +0.000 HD
ENDBRANCH  11  15
ENDBRANCH  10  11
ENDBRANCH   9  10
ENDBRANCH   1   9
TORSDOF 9
ENDMDL
MODEL 8
REMARK VINA RESULT:      -4.2      1.654      1.978
REMARK  Name = 
REMARK  9 active torsions:
REMARK  status: ('A' for Active; 'I' for Inactive)
REMARK    1  A    between atoms: N_1  and  C_2
REMARK    2  A    between atoms: C_2  and  C_3
REMARK    3  A    between atoms: C_2  and  C_5
REMARK    4  A    between atoms: C_3  and  S_4
REMARK    5  A    between atoms: C_5  and  C_6
REMARK    6  A    between atoms: C_6  and  C_7
REMARK    7  A    between atoms: C_7  and  P_8
REMARK    8  A    between atoms: P_8  and  O_10
REMARK    9  A    between atoms: P_8  and  O_11
REMARK                            x       y       z     vdW  Elec       q    Type
REMARK                         _______ _______ _______ _____ _____    ______ ____
ROOT
ATOM      1  C   UNL     1       3.912   3.845  17.909  0.00  0.00    +0.000 C 
ENDROOT
BRANCH   1   2
ATOM      2  C   UNL     1       2.606   3.125  17.520  0.00  0.00    +0.000 C 
BRANCH   2   3
ATOM      3  N   UNL     1       2.671   1.734  17.977  0.00  0.00    +0.000 NA
ATOM      4  H   UNL     1       1.721   1.420  18.173  0.00  0.00    +0.000 HD
ATOM      5  H   UNL     1       3.146   1.689  18.878  0.00  0.00    +0.000 HD
ENDBRANCH   2   3
BRANCH   2   6
ATOM      6  C   UNL     1       1.372   3.875  18.072  0.00  0.00    +0.000 C 
BRANCH   6   7
ATOM      7  S   UNL     1       1.201   3.648  19.876  0.00  0.00    +0.000 S 
ATOM      8  H   UNL     1       2.382   4.190  20.212  0.00  0.00    +0.000 HD
ENDBRANCH   6   7
ENDBRANCH   2   6
ENDBRANCH   1   2
BRANCH   1   9
ATOM      9  C   UNL     1       3.975   5.306  17.442  0.00  0.00    +0.000 C 
BRANCH   9  10
ATOM     10  C   UNL     1       5.029   5.541  16.360  0.00  0.00    +0.000 C 
BRANCH  10  11
ATOM     11  P   UNL     1       6.644   4.806  16.808  0.00  0.00    +0.000 P 
ATOM     12  O   UNL     1       6.567   3.837  15.627  0.00  0.00    +0.000 OA
BRANCH  11  13
ATOM     13  O   UNL     1       7.441   6.099  16.201  0.00  0.00    +0.000 OA
ATOM     14  H   UNL     1       6.803   6.762  15.874  0.00  0.00    +0.000 HD
ENDBRANCH  11  13
BRANCH  11  15
ATOM     15  O   UNL     1       8.170   4.112  17.233  0.00  0.00    +0.000 OA
ATOM     16  H   UNL     1       8.022   3.699  18.108  0.00  0.00    +0.000 HD
ENDBRANCH  11  15
ENDBRANCH  10  11
ENDBRANCH   9  10
ENDBRANCH   1   9
TORSDOF 9
ENDMDL
MODEL 9
REMARK VINA RESULT:      -4.2      1.772      2.201
REMARK  Name = 
REMARK  9 active torsions:
REMARK  status: ('A' for Active; 'I' for Inactive)
REMARK    1  A    between atoms: N_1  and  C_2
REMARK    2  A    between atoms: C_2  and  C_3
REMARK    3  A    between atoms: C_2  and  C_5
REMARK    4  A    between atoms: C_3  and  S_4
REMARK    5  A    between atoms: C_5  and  C_6
REMARK    6  A    between atoms: C_6  and  C_7
REMARK    7  A    between atoms: C_7  and  P_8
REMARK    8  A    between atoms: P_8  and  O_10
REMARK    9  A    between atoms: P_8  and  O_11
REMARK                            x       y       z     vdW  Elec       q    Type
REMARK                         _______ _______ _______ _____ _____    ______ ____
ROOT
ATOM      1  C   UNL     1       1.805   3.914  17.693  0.00  0.00    +0.000 C 
ENDROOT
BRANCH   1   2
ATOM      2  C   UNL     1       1.141   2.936  18.683  0.00  0.00    +0.000 C 
BRANCH   2   3
ATOM      3  N   UNL     1       1.976   1.737  18.802  0.00  0.00    +0.000 NA
ATOM      4  H   UNL     1       2.336   1.508  17.876  0.00  0.00    +0.000 HD
ATOM      5  H   UNL     1       1.397   0.937  19.055  0.00  0.00    +0.000 HD
ENDBRANCH   2   3
BRANCH   2   6
ATOM      6  C   UNL     1       0.881   3.616  20.045  0.00  0.00    +0.000 C 
BRANCH   6   7
ATOM      7  S   UNL     1       1.785   2.783  21.396  0.00  0.00    +0.000 S 
ATOM      8  H   UNL     1       2.760   3.698  21.516  0.00  0.00    +0.000 HD
ENDBRANCH   6   7
ENDBRANCH   2   6
ENDBRANCH   1   2
BRANCH   1   9
ATOM      9  C   UNL     1       2.387   5.168  18.360  0.00  0.00    +0.000 C 
BRANCH   9  10
ATOM     10  C   UNL     1       3.854   5.007  18.755  0.00  0.00    +0.000 C 
BRANCH  10  11
ATOM     11  P   UNL     1       4.815   4.128  17.471  0.00  0.00    +0.000 P 
ATOM     12  O   UNL     1       5.098   5.441  16.737  0.00  0.00    +0.000 OA
BRANCH  11  13
ATOM     13  O   UNL     1       6.089   3.965  18.485  0.00  0.00    +0.000 OA
ATOM     14  H   UNL     1       6.152   4.744  19.070  0.00  0.00    +0.000 HD
ENDBRANCH  11  13
BRANCH  11  15
ATOM     15  O   UNL     1       5.723   3.296  16.257  0.00  0.00    +0.000 OA
ATOM     16  H   UNL     1       6.218   2.606  16.744  0.00  0.00    +0.000 HD
ENDBRANCH  11  15
ENDBRANCH  10  11
ENDBRANCH   9  10
ENDBRANCH   1   9
TORSDOF 9
ENDMDL
