MODEL 1
REMARK VINA RESULT:      -7.9      0.000      0.000
REMARK  Name = 
REMARK  3 active torsions:
REMARK  status: ('A' for Active; 'I' for Inactive)
REMARK    1  A    between atoms: C_1  and  N_2
REMARK    2  A    between atoms: C_3  and  N_4
REMARK    3  A    between atoms: C_5  and  C_6
REMARK                            x       y       z     vdW  Elec       q    Type
REMARK                         _______ _______ _______ _____ _____    ______ ____
ROOT
ATOM      1  N   UNL     1       8.700   8.261  18.888  0.00  0.00    +0.000 NA
ATOM      2  C   UNL     1       8.659   9.504  18.519  0.00  0.00    +0.000 C 
ENDROOT
BRANCH   1   5
ATOM      3  C   UNL     1       8.076   5.530  19.835  0.00  0.00    +0.000 C 
ATOM      4  N   UNL     1       7.573   6.169  18.645  0.00  0.00    +0.000 N 
ATOM      5  C   UNL     1       7.896   7.429  18.175  0.00  0.00    +0.000 A 
ATOM      6  N   UNL     1       7.270   7.651  17.033  0.00  0.00    +0.000 NA
ATOM      7  C   UNL     1       6.483   6.553  16.801  0.00  0.00    +0.000 A 
ATOM      8  C   UNL     1       5.583   6.305  15.755  0.00  0.00    +0.000 A 
ATOM      9  C   UNL     1       4.857   5.106  15.758  0.00  0.00    +0.000 A 
ATOM     10  C   UNL     1       5.036   4.167  16.776  0.00  0.00    +0.000 A 
ATOM     11  C   UNL     1       5.942   4.391  17.818  0.00  0.00    +0.000 A 
ATOM     12  C   UNL     1       6.645   5.603  17.800  0.00  0.00    +0.000 A 
ENDBRANCH   1   5
BRANCH   2  13
ATOM     13  C   UNL     1       9.406  10.496  19.276  0.00  0.00    +0.000 A 
ATOM     14  C   UNL     1       9.285  10.717  20.636  0.00  0.00    +0.000 A 
ATOM     15  N   UNL     1      10.113  11.743  20.992  0.00  0.00    +0.000 N 
ATOM     16  C   UNL     1      10.786  12.214  19.891  0.00  0.00    +0.000 A 
ATOM     17  C   UNL     1      11.722  13.253  19.796  0.00  0.00    +0.000 A 
ATOM     18  C   UNL     1      12.254  13.536  18.537  0.00  0.00    +0.000 A 
ATOM     19  C   UNL     1      11.862  12.804  17.418  0.00  0.00    +0.000 A 
ATOM     20  C   UNL     1      10.925  11.764  17.532  0.00  0.00    +0.000 A 
ATOM     21  C   UNL     1      10.368  11.455  18.796  0.00  0.00    +0.000 A 
ATOM     22  H   UNL     1      10.212  12.116  21.926  0.00  0.00    +0.000 HD
ENDBRANCH   2  13
TORSDOF 2
ENDMDL
MODEL 2
REMARK VINA RESULT:      -7.8      6.349      9.193
REMARK  Name = 
REMARK  3 active torsions:
REMARK  status: ('A' for Active; 'I' for Inactive)
REMARK    1  A    between atoms: C_1  and  N_2
REMARK    2  A    between atoms: C_3  and  N_4
REMARK    3  A    between atoms: C_5  and  C_6
REMARK                            x       y       z     vdW  Elec       q    Type
REMARK                         _______ _______ _______ _____ _____    ______ ____
ROOT
ATOM      1  N   UNL     1       2.225   7.511  19.276  0.00  0.00    +0.000 NA
ATOM      2  C   UNL     1       2.411   6.303  19.709  0.00  0.00    +0.000 C 
ENDROOT
BRANCH   1   5
ATOM      3  C   UNL     1       1.165  10.132  18.408  0.00  0.00    +0.000 C 
ATOM      4  N   UNL     1       1.031   9.533  19.712  0.00  0.00    +0.000 N 
ATOM      5  C   UNL     1       1.562   8.328  20.135  0.00  0.00    +0.000 A 
ATOM      6  N   UNL     1       1.263   8.133  21.407  0.00  0.00    +0.000 NA
ATOM      7  C   UNL     1       0.474   9.188  21.787  0.00  0.00    +0.000 A 
ATOM      8  C   UNL     1      -0.151   9.437  23.017  0.00  0.00    +0.000 A 
ATOM      9  C   UNL     1      -0.948  10.581  23.151  0.00  0.00    +0.000 A 
ATOM     10  C   UNL     1      -1.107  11.467  22.084  0.00  0.00    +0.000 A 
ATOM     11  C   UNL     1      -0.478  11.244  20.854  0.00  0.00    +0.000 A 
ATOM     12  C   UNL     1       0.302  10.085  20.742  0.00  0.00    +0.000 A 
ENDBRANCH   1   5
BRANCH   2  13
ATOM     13  C   UNL     1       3.025   5.318  18.831  0.00  0.00    +0.000 A 
ATOM     14  C   UNL     1       2.911   3.947  18.970  0.00  0.00    +0.000 A 
ATOM     15  N   UNL     1       3.644   3.342  17.990  0.00  0.00    +0.000 N 
ATOM     16  C   UNL     1       4.247   4.285  17.195  0.00  0.00    +0.000 A 
ATOM     17  C   UNL     1       5.085   4.113  16.086  0.00  0.00    +0.000 A 
ATOM     18  C   UNL     1       5.576   5.259  15.457  0.00  0.00    +0.000 A 
ATOM     19  C   UNL     1       5.237   6.527  15.923  0.00  0.00    +0.000 A 
ATOM     20  C   UNL     1       4.392   6.682  17.035  0.00  0.00    +0.000 A 
ATOM     21  C   UNL     1       3.880   5.539  17.694  0.00  0.00    +0.000 A 
ATOM     22  H   UNL     1       3.742   2.343  17.868  0.00  0.00    +0.000 HD
ENDBRANCH   2  13
TORSDOF 2
ENDMDL
MODEL 3
REMARK VINA RESULT:      -7.7      6.025      8.179
REMARK  Name = 
REMARK  3 active torsions:
REMARK  status: ('A' for Active; 'I' for Inactive)
REMARK    1  A    between atoms: C_1  and  N_2
REMARK    2  A    between atoms: C_3  and  N_4
REMARK    3  A    between atoms: C_5  and  C_6
REMARK                            x       y       z     vdW  Elec       q    Type
REMARK                         _______ _______ _______ _____ _____    ______ ____
ROOT
ATOM      1  N   UNL     1       5.560   4.732  17.712  0.00  0.00    +0.000 NA
ATOM      2  C   UNL     1       5.524   4.056  16.605  0.00  0.00    +0.000 C 
ENDROOT
BRANCH   1   5
ATOM      3  C   UNL     1       2.947   6.069  18.064  0.00  0.00    +0.000 C 
ATOM      4  N   UNL     1       3.437   4.924  18.789  0.00  0.00    +0.000 N 
ATOM      5  C   UNL     1       4.676   4.322  18.658  0.00  0.00    +0.000 A 
ATOM      6  N   UNL     1       4.779   3.326  19.519  0.00  0.00    +0.000 NA
ATOM      7  C   UNL     1       3.571   3.241  20.162  0.00  0.00    +0.000 A 
ATOM      8  C   UNL     1       3.138   2.325  21.131  0.00  0.00    +0.000 A 
ATOM      9  C   UNL     1       1.827   2.422  21.616  0.00  0.00    +0.000 A 
ATOM     10  C   UNL     1       0.970   3.424  21.155  0.00  0.00    +0.000 A 
ATOM     11  C   UNL     1       1.390   4.357  20.201  0.00  0.00    +0.000 A 
ATOM     12  C   UNL     1       2.701   4.229  19.722  0.00  0.00    +0.000 A 
ENDBRANCH   1   5
BRANCH   2  13
ATOM     13  C   UNL     1       6.360   4.471  15.489  0.00  0.00    +0.000 A 
ATOM     14  C   UNL     1       7.420   5.355  15.574  0.00  0.00    +0.000 A 
ATOM     15  N   UNL     1       7.948   5.532  14.328  0.00  0.00    +0.000 N 
ATOM     16  C   UNL     1       7.258   4.782  13.408  0.00  0.00    +0.000 A 
ATOM     17  C   UNL     1       7.452   4.666  12.025  0.00  0.00    +0.000 A 
ATOM     18  C   UNL     1       6.590   3.829  11.314  0.00  0.00    +0.000 A 
ATOM     19  C   UNL     1       5.575   3.134  11.966  0.00  0.00    +0.000 A 
ATOM     20  C   UNL     1       5.395   3.259  13.354  0.00  0.00    +0.000 A 
ATOM     21  C   UNL     1       6.253   4.101  14.101  0.00  0.00    +0.000 A 
ATOM     22  H   UNL     1       8.727   6.137  14.104  0.00  0.00    +0.000 HD
ENDBRANCH   2  13
TORSDOF 2
ENDMDL
MODEL 4
REMARK VINA RESULT:      -7.4      6.447      8.792
REMARK  Name = 
REMARK  3 active torsions:
REMARK  status: ('A' for Active; 'I' for Inactive)
REMARK    1  A    between atoms: C_1  and  N_2
REMARK    2  A    between atoms: C_3  and  N_4
REMARK    3  A    between atoms: C_5  and  C_6
REMARK                            x       y       z     vdW  Elec       q    Type
REMARK                         _______ _______ _______ _____ _____    ______ ____
ROOT
ATOM      1  N   UNL     1       1.945   8.293  18.974  0.00  0.00    +0.000 NA
ATOM      2  C   UNL     1       1.460   9.214  18.199  0.00  0.00    +0.000 C 
ENDROOT
BRANCH   1   5
ATOM      3  C   UNL     1       2.048   5.431  19.707  0.00  0.00    +0.000 C 
ATOM      4  N   UNL     1       2.822   6.091  18.686  0.00  0.00    +0.000 N 
ATOM      5  C   UNL     1       2.809   7.438  18.370  0.00  0.00    +0.000 A 
ATOM      6  N   UNL     1       3.683   7.676  17.409  0.00  0.00    +0.000 NA
ATOM      7  C   UNL     1       4.213   6.462  17.055  0.00  0.00    +0.000 A 
ATOM      8  C   UNL     1       5.145   6.153  16.054  0.00  0.00    +0.000 A 
ATOM      9  C   UNL     1       5.508   4.814  15.858  0.00  0.00    +0.000 A 
ATOM     10  C   UNL     1       4.964   3.805  16.655  0.00  0.00    +0.000 A 
ATOM     11  C   UNL     1       4.046   4.097  17.670  0.00  0.00    +0.000 A 
ATOM     12  C   UNL     1       3.689   5.442  17.836  0.00  0.00    +0.000 A 
ENDBRANCH   1   5
BRANCH   2  13
ATOM     13  C   UNL     1       0.451  10.124  18.718  0.00  0.00    +0.000 A 
ATOM     14  C   UNL     1       0.602  10.927  19.834  0.00  0.00    +0.000 A 
ATOM     15  N   UNL     1      -0.557  11.618  20.040  0.00  0.00    +0.000 N 
ATOM     16  C   UNL     1      -1.483  11.291  19.080  0.00  0.00    +0.000 A 
ATOM     17  C   UNL     1      -2.795  11.754  18.913  0.00  0.00    +0.000 A 
ATOM     18  C   UNL     1      -3.534  11.244  17.843  0.00  0.00    +0.000 A 
ATOM     19  C   UNL     1      -2.976  10.308  16.976  0.00  0.00    +0.000 A 
ATOM     20  C   UNL     1      -1.657   9.857  17.157  0.00  0.00    +0.000 A 
ATOM     21  C   UNL     1      -0.885  10.355  18.232  0.00  0.00    +0.000 A 
ATOM     22  H   UNL     1      -0.721  12.270  20.795  0.00  0.00    +0.000 HD
ENDBRANCH   2  13
TORSDOF 2
ENDMDL
MODEL 5
REMARK VINA RESULT:      -7.4      6.860     10.322
REMARK  Name = 
REMARK  3 active torsions:
REMARK  status: ('A' for Active; 'I' for Inactive)
REMARK    1  A    between atoms: C_1  and  N_2
REMARK    2  A    between atoms: C_3  and  N_4
REMARK    3  A    between atoms: C_5  and  C_6
REMARK                            x       y       z     vdW  Elec       q    Type
REMARK                         _______ _______ _______ _____ _____    ______ ____
ROOT
ATOM      1  N   UNL     1       1.624   8.354  19.258  0.00  0.00    +0.000 NA
ATOM      2  C   UNL     1       2.207   7.311  19.763  0.00  0.00    +0.000 C 
ENDROOT
BRANCH   1   5
ATOM      3  C   UNL     1       1.296  11.247  18.741  0.00  0.00    +0.000 C 
ATOM      4  N   UNL     1       0.850  10.520  19.903  0.00  0.00    +0.000 N 
ATOM      5  C   UNL     1       1.040   9.175  20.169  0.00  0.00    +0.000 A 
ATOM      6  N   UNL     1       0.528   8.880  21.350  0.00  0.00    +0.000 NA
ATOM      7  C   UNL     1      -0.058  10.028  21.818  0.00  0.00    +0.000 A 
ATOM      8  C   UNL     1      -0.782  10.243  23.000  0.00  0.00    +0.000 A 
ATOM      9  C   UNL     1      -1.321  11.513  23.241  0.00  0.00    +0.000 A 
ATOM     10  C   UNL     1      -1.129  12.553  22.329  0.00  0.00    +0.000 A 
ATOM     11  C   UNL     1      -0.395  12.362  21.154  0.00  0.00    +0.000 A 
ATOM     12  C   UNL     1       0.121  11.079  20.929  0.00  0.00    +0.000 A 
ENDBRANCH   1   5
BRANCH   2  13
ATOM     13  C   UNL     1       2.780   6.315  18.871  0.00  0.00    +0.000 A 
ATOM     14  C   UNL     1       3.785   6.553  17.951  0.00  0.00    +0.000 A 
ATOM     15  N   UNL     1       4.044   5.398  17.271  0.00  0.00    +0.000 N 
ATOM     16  C   UNL     1       3.228   4.389  17.720  0.00  0.00    +0.000 A 
ATOM     17  C   UNL     1       3.151   3.053  17.304  0.00  0.00    +0.000 A 
ATOM     18  C   UNL     1       2.214   2.229  17.930  0.00  0.00    +0.000 A 
ATOM     19  C   UNL     1       1.389   2.727  18.936  0.00  0.00    +0.000 A 
ATOM     20  C   UNL     1       1.481   4.068  19.343  0.00  0.00    +0.000 A 
ATOM     21  C   UNL     1       2.422   4.928  18.726  0.00  0.00    +0.000 A 
ATOM     22  H   UNL     1       4.727   5.297  16.533  0.00  0.00    +0.000 HD
ENDBRANCH   2  13
TORSDOF 2
ENDMDL
MODEL 6
REMARK VINA RESULT:      -7.4      6.266      8.187
REMARK  Name = 
REMARK  3 active torsions:
REMARK  status: ('A' for Active; 'I' for Inactive)
REMARK    1  A    between atoms: C_1  and  N_2
REMARK    2  A    between atoms: C_3  and  N_4
REMARK    3  A    between atoms: C_5  and  C_6
REMARK                            x       y       z     vdW  Elec       q    Type
REMARK                         _______ _______ _______ _____ _____    ______ ____
ROOT
ATOM      1  N   UNL     1       1.952   7.661  18.983  0.00  0.00    +0.000 NA
ATOM      2  C   UNL     1       1.895   8.925  18.699  0.00  0.00    +0.000 C 
ENDROOT
BRANCH   1   5
ATOM      3  C   UNL     1       2.081   4.709  19.104  0.00  0.00    +0.000 C 
ATOM      4  N   UNL     1       2.918   5.581  18.317  0.00  0.00    +0.000 N 
ATOM      5  C   UNL     1       2.889   6.964  18.291  0.00  0.00    +0.000 A 
ATOM      6  N   UNL     1       3.833   7.411  17.482  0.00  0.00    +0.000 NA
ATOM      7  C   UNL     1       4.428   6.307  16.929  0.00  0.00    +0.000 A 
ATOM      8  C   UNL     1       5.449   6.229  15.972  0.00  0.00    +0.000 A 
ATOM      9  C   UNL     1       5.868   4.966  15.531  0.00  0.00    +0.000 A 
ATOM     10  C   UNL     1       5.290   3.804  16.047  0.00  0.00    +0.000 A 
ATOM     11  C   UNL     1       4.282   3.863  17.016  0.00  0.00    +0.000 A 
ATOM     12  C   UNL     1       3.872   5.137  17.428  0.00  0.00    +0.000 A 
ENDBRANCH   1   5
BRANCH   2  13
ATOM     13  C   UNL     1       0.863   9.748  19.310  0.00  0.00    +0.000 A 
ATOM     14  C   UNL     1       0.090  10.681  18.644  0.00  0.00    +0.000 A 
ATOM     15  N   UNL     1      -0.746  11.282  19.541  0.00  0.00    +0.000 N 
ATOM     16  C   UNL     1      -0.546  10.767  20.798  0.00  0.00    +0.000 A 
ATOM     17  C   UNL     1      -1.176  11.093  22.006  0.00  0.00    +0.000 A 
ATOM     18  C   UNL     1      -0.770  10.413  23.156  0.00  0.00    +0.000 A 
ATOM     19  C   UNL     1       0.228   9.443  23.094  0.00  0.00    +0.000 A 
ATOM     20  C   UNL     1       0.848   9.126  21.874  0.00  0.00    +0.000 A 
ATOM     21  C   UNL     1       0.458   9.800  20.691  0.00  0.00    +0.000 A 
ATOM     22  H   UNL     1      -1.411  12.011  19.321  0.00  0.00    +0.000 HD
ENDBRANCH   2  13
TORSDOF 2
ENDMDL
MODEL 7
REMARK VINA RESULT:      -7.4      7.532     10.215
REMARK  Name = 
REMARK  3 active torsions:
REMARK  status: ('A' for Active; 'I' for Inactive)
REMARK    1  A    between atoms: C_1  and  N_2
REMARK    2  A    between atoms: C_3  and  N_4
REMARK    3  A    between atoms: C_5  and  C_6
REMARK                            x       y       z     vdW  Elec       q    Type
REMARK                         _______ _______ _______ _____ _____    ______ ____
ROOT
ATOM      1  N   UNL     1       2.102   6.971  20.337  0.00  0.00    +0.000 NA
ATOM      2  C   UNL     1       1.434   5.983  20.848  0.00  0.00    +0.000 C 
ENDROOT
BRANCH   1   5
ATOM      3  C   UNL     1       1.807   8.829  18.056  0.00  0.00    +0.000 C 
ATOM      4  N   UNL     1       1.345   9.036  19.406  0.00  0.00    +0.000 N 
ATOM      5  C   UNL     1       1.519   8.188  20.486  0.00  0.00    +0.000 A 
ATOM      6  N   UNL     1       0.995   8.736  21.568  0.00  0.00    +0.000 NA
ATOM      7  C   UNL     1       0.417   9.913  21.168  0.00  0.00    +0.000 A 
ATOM      8  C   UNL     1      -0.314  10.847  21.915  0.00  0.00    +0.000 A 
ATOM      9  C   UNL     1      -0.842  11.969  21.264  0.00  0.00    +0.000 A 
ATOM     10  C   UNL     1      -0.633  12.164  19.897  0.00  0.00    +0.000 A 
ATOM     11  C   UNL     1       0.109  11.250  19.139  0.00  0.00    +0.000 A 
ATOM     12  C   UNL     1       0.613  10.130  19.811  0.00  0.00    +0.000 A 
ENDBRANCH   1   5
BRANCH   2  13
ATOM     13  C   UNL     1       1.919   4.624  20.662  0.00  0.00    +0.000 A 
ATOM     14  C   UNL     1       2.203   3.733  21.681  0.00  0.00    +0.000 A 
ATOM     15  N   UNL     1       2.665   2.571  21.134  0.00  0.00    +0.000 N 
ATOM     16  C   UNL     1       2.695   2.667  19.765  0.00  0.00    +0.000 A 
ATOM     17  C   UNL     1       3.101   1.723  18.813  0.00  0.00    +0.000 A 
ATOM     18  C   UNL     1       3.039   2.087  17.466  0.00  0.00    +0.000 A 
ATOM     19  C   UNL     1       2.586   3.350  17.092  0.00  0.00    +0.000 A 
ATOM     20  C   UNL     1       2.180   4.284  18.059  0.00  0.00    +0.000 A 
ATOM     21  C   UNL     1       2.233   3.943  19.432  0.00  0.00    +0.000 A 
ATOM     22  H   UNL     1       2.956   1.756  21.657  0.00  0.00    +0.000 HD
ENDBRANCH   2  13
TORSDOF 2
ENDMDL
MODEL 8
REMARK VINA RESULT:      -7.2      7.236      9.961
REMARK  Name = 
REMARK  3 active torsions:
REMARK  status: ('A' for Active; 'I' for Inactive)
REMARK    1  A    between atoms: C_1  and  N_2
REMARK    2  A    between atoms: C_3  and  N_4
REMARK    3  A    between atoms: C_5  and  C_6
REMARK                            x       y       z     vdW  Elec       q    Type
REMARK                         _______ _______ _______ _____ _____    ______ ____
ROOT
ATOM      1  N   UNL     1       1.876   7.417  20.465  0.00  0.00    +0.000 NA
ATOM      2  C   UNL     1       1.418   6.258  20.825  0.00  0.00    +0.000 C 
ENDROOT
BRANCH   1   5
ATOM      3  C   UNL     1       1.070   9.635  18.683  0.00  0.00    +0.000 C 
ATOM      4  N   UNL     1       0.756   9.492  20.082  0.00  0.00    +0.000 N 
ATOM      5  C   UNL     1       1.167   8.478  20.930  0.00  0.00    +0.000 A 
ATOM      6  N   UNL     1       0.716   8.710  22.149  0.00  0.00    +0.000 NA
ATOM      7  C   UNL     1      -0.050   9.844  22.072  0.00  0.00    +0.000 A 
ATOM      8  C   UNL     1      -0.795  10.488  23.071  0.00  0.00    +0.000 A 
ATOM      9  C   UNL     1      -1.537  11.627  22.733  0.00  0.00    +0.000 A 
ATOM     10  C   UNL     1      -1.524  12.124  21.428  0.00  0.00    +0.000 A 
ATOM     11  C   UNL     1      -0.773  11.505  20.423  0.00  0.00    +0.000 A 
ATOM     12  C   UNL     1      -0.052  10.359  20.783  0.00  0.00    +0.000 A 
ENDBRANCH   1   5
BRANCH   2  13
ATOM     13  C   UNL     1       2.042   5.052  20.304  0.00  0.00    +0.000 A 
ATOM     14  C   UNL     1       1.984   3.805  20.898  0.00  0.00    +0.000 A 
ATOM     15  N   UNL     1       2.711   2.925  20.149  0.00  0.00    +0.000 N 
ATOM     16  C   UNL     1       3.256   3.562  19.062  0.00  0.00    +0.000 A 
ATOM     17  C   UNL     1       4.069   3.049  18.042  0.00  0.00    +0.000 A 
ATOM     18  C   UNL     1       4.499   3.930  17.047  0.00  0.00    +0.000 A 
ATOM     19  C   UNL     1       4.126   5.271  17.075  0.00  0.00    +0.000 A 
ATOM     20  C   UNL     1       3.308   5.769  18.103  0.00  0.00    +0.000 A 
ATOM     21  C   UNL     1       2.857   4.900  19.126  0.00  0.00    +0.000 A 
ATOM     22  H   UNL     1       2.843   1.946  20.364  0.00  0.00    +0.000 HD
ENDBRANCH   2  13
TORSDOF 2
ENDMDL
MODEL 9
REMARK VINA RESULT:      -7.2      1.173      7.797
REMARK  Name = 
REMARK  3 active torsions:
REMARK  status: ('A' for Active; 'I' for Inactive)
REMARK    1  A    between atoms: C_1  and  N_2
REMARK    2  A    between atoms: C_3  and  N_4
REMARK    3  A    between atoms: C_5  and  C_6
REMARK                            x       y       z     vdW  Elec       q    Type
REMARK                         _______ _______ _______ _____ _____    ______ ____
ROOT
ATOM      1  N   UNL     1       8.838   9.149  19.014  0.00  0.00    +0.000 NA
ATOM      2  C   UNL     1       8.195   8.615  18.022  0.00  0.00    +0.000 C 
ENDROOT
BRANCH   1   5
ATOM      3  C   UNL     1       9.118  11.123  21.198  0.00  0.00    +0.000 C 
ATOM      4  N   UNL     1       9.473  11.308  19.814  0.00  0.00    +0.000 N 
ATOM      5  C   UNL     1       9.304  10.404  18.781  0.00  0.00    +0.000 A 
ATOM      6  N   UNL     1       9.708  10.945  17.646  0.00  0.00    +0.000 NA
ATOM      7  C   UNL     1      10.207  12.183  17.961  0.00  0.00    +0.000 A 
ATOM      8  C   UNL     1      10.805  13.142  17.131  0.00  0.00    +0.000 A 
ATOM      9  C   UNL     1      11.276  14.331  17.703  0.00  0.00    +0.000 A 
ATOM     10  C   UNL     1      11.139  14.566  19.073  0.00  0.00    +0.000 A 
ATOM     11  C   UNL     1      10.529  13.628  19.913  0.00  0.00    +0.000 A 
ATOM     12  C   UNL     1      10.080  12.441  19.319  0.00  0.00    +0.000 A 
ENDBRANCH   1   5
BRANCH   2  13
ATOM     13  C   UNL     1       7.738   7.239  18.129  0.00  0.00    +0.000 A 
ATOM     14  C   UNL     1       8.173   6.325  19.071  0.00  0.00    +0.000 A 
ATOM     15  N   UNL     1       7.554   5.129  18.846  0.00  0.00    +0.000 N 
ATOM     16  C   UNL     1       6.710   5.226  17.767  0.00  0.00    +0.000 A 
ATOM     17  C   UNL     1       5.889   4.250  17.187  0.00  0.00    +0.000 A 
ATOM     18  C   UNL     1       5.127   4.617  16.076  0.00  0.00    +0.000 A 
ATOM     19  C   UNL     1       5.188   5.913  15.568  0.00  0.00    +0.000 A 
ATOM     20  C   UNL     1       6.015   6.880  16.164  0.00  0.00    +0.000 A 
ATOM     21  C   UNL     1       6.799   6.537  17.291  0.00  0.00    +0.000 A 
ATOM     22  H   UNL     1       7.700   4.286  19.385  0.00  0.00    +0.000 HD
ENDBRANCH   2  13
TORSDOF 2
ENDMDL
