MODEL 1
REMARK VINA RESULT:      -7.9      0.000      0.000
REMARK  Name = 
REMARK  12 active torsions:
REMARK  status: ('A' for Active; 'I' for Inactive)
REMARK    1  A    between atoms: C_1  and  C_2
REMARK    2  A    between atoms: C_2  and  C_3
REMARK    3  A    between atoms: N_15  and  C_16
REMARK    4  A    between atoms: C_16  and  C_17
REMARK    5  A    between atoms: C_17  and  N_18
REMARK    6  A    between atoms: N_18  and  C_19
REMARK    7  A    between atoms: N_18  and  C_22
REMARK    8  A    between atoms: C_19  and  C_20
REMARK    9  A    between atoms: C_20  and  O_21
REMARK   10  A    between atoms: C_22  and  C_23
REMARK   11  A    between atoms: C_23  and  O_24
REMARK   12  A    between atoms: C_27  and  C_28
REMARK                            x       y       z     vdW  Elec       q    Type
REMARK                         _______ _______ _______ _____ _____    ______ ____
ROOT
ATOM      1  C   UNL     1       1.214   8.950  20.019  0.00  0.00    +0.000 A 
ATOM      2  C   UNL     1       1.261   7.716  20.679  0.00  0.00    +0.000 A 
ATOM      3  C   UNL     1       1.957   6.621  20.148  0.00  0.00    +0.000 A 
ATOM      4  N   UNL     1       1.938   5.439  20.912  0.00  0.00    +0.000 NA
ATOM      5  C   UNL     1       2.606   4.416  20.482  0.00  0.00    +0.000 A 
ATOM      6  C   UNL     1       2.592   3.125  21.263  0.00  0.00    +0.000 A 
ATOM      7  O   UNL     1       1.977   2.989  22.307  0.00  0.00    +0.000 OA
ATOM      8  N   UNL     1       3.306   2.125  20.675  0.00  0.00    +0.000 N 
ATOM      9  C   UNL     1       3.934   2.192  19.467  0.00  0.00    +0.000 A 
ATOM     10  O   UNL     1       4.389   1.161  18.984  0.00  0.00    +0.000 OA
ATOM     11  N   UNL     1       4.016   3.382  18.809  0.00  0.00    +0.000 NA
ATOM     12  C   UNL     1       3.397   4.456  19.200  0.00  0.00    +0.000 A 
ATOM     13  N   UNL     1       3.408   5.636  18.456  0.00  0.00    +0.000 N 
ATOM     14  C   UNL     1       2.647   6.734  18.915  0.00  0.00    +0.000 A 
ATOM     15  C   UNL     1       2.541   7.961  18.237  0.00  0.00    +0.000 A 
ATOM     16  C   UNL     1       1.832   9.064  18.762  0.00  0.00    +0.000 A 
ATOM     17  C   UNL     1       1.779  10.343  17.970  0.00  0.00    +0.000 C 
ATOM     18  H   UNL     1       3.267   1.213  21.102  0.00  0.00    +0.000 HD
ENDROOT
BRANCH   1  20
ATOM     19  C   UNL     1       0.093   9.723  22.110  0.00  0.00    +0.000 C 
ATOM     20  C   UNL     1       0.587  10.130  20.726  0.00  0.00    +0.000 C 
ENDBRANCH   1  20
BRANCH  13  21
ATOM     21  C   UNL     1       4.081   5.630  17.135  0.00  0.00    +0.000 C 
BRANCH  21  22
ATOM     22  C   UNL     1       5.494   6.260  17.270  0.00  0.00    +0.000 C 
BRANCH  22  23
ATOM     23  N   UNL     1       6.706   5.481  16.882  0.00  0.00    +0.000 NA
BRANCH  23  24
ATOM     24  C   UNL     1       7.356   4.897  18.095  0.00  0.00    +0.000 C 
BRANCH  24  25
ATOM     25  C   UNL     1       7.026   5.587  19.437  0.00  0.00    +0.000 C 
BRANCH  25  26
ATOM     26  O   UNL     1       8.086   5.428  20.373  0.00  0.00    +0.000 OA
ATOM     27  H   UNL     1       8.609   6.249  20.331  0.00  0.00    +0.000 HD
ENDBRANCH  25  26
ENDBRANCH  24  25
ENDBRANCH  23  24
BRANCH  23  28
ATOM     28  C   UNL     1       6.274   4.370  15.975  0.00  0.00    +0.000 C 
BRANCH  28  29
ATOM     29  C   UNL     1       6.680   4.544  14.499  0.00  0.00    +0.000 C 
BRANCH  29  30
ATOM     30  O   UNL     1       6.314   3.393  13.746  0.00  0.00    +0.000 OA
ATOM     31  H   UNL     1       6.909   3.381  12.974  0.00  0.00    +0.000 HD
ENDBRANCH  29  30
ENDBRANCH  28  29
ENDBRANCH  23  28
ENDBRANCH  22  23
ENDBRANCH  21  22
ENDBRANCH  13  21
TORSDOF 10
ENDMDL
MODEL 2
REMARK VINA RESULT:      -7.5      1.152      2.201
REMARK  Name = 
REMARK  12 active torsions:
REMARK  status: ('A' for Active; 'I' for Inactive)
REMARK    1  A    between atoms: C_1  and  C_2
REMARK    2  A    between atoms: C_2  and  C_3
REMARK    3  A    between atoms: N_15  and  C_16
REMARK    4  A    between atoms: C_16  and  C_17
REMARK    5  A    between atoms: C_17  and  N_18
REMARK    6  A    between atoms: N_18  and  C_19
REMARK    7  A    between atoms: N_18  and  C_22
REMARK    8  A    between atoms: C_19  and  C_20
REMARK    9  A    between atoms: C_20  and  O_21
REMARK   10  A    between atoms: C_22  and  C_23
REMARK   11  A    between atoms: C_23  and  O_24
REMARK   12  A    between atoms: C_27  and  C_28
REMARK                            x       y       z     vdW  Elec       q    Type
REMARK                         _______ _______ _______ _____ _____    ______ ____
ROOT
ATOM      1  C   UNL     1       1.225   8.887  20.149  0.00  0.00    +0.000 A 
ATOM      2  C   UNL     1       1.285   7.639  20.782  0.00  0.00    +0.000 A 
ATOM      3  C   UNL     1       1.959   6.551  20.208  0.00  0.00    +0.000 A 
ATOM      4  N   UNL     1       1.955   5.355  20.948  0.00  0.00    +0.000 NA
ATOM      5  C   UNL     1       2.604   4.337  20.479  0.00  0.00    +0.000 A 
ATOM      6  C   UNL     1       2.606   3.030  21.232  0.00  0.00    +0.000 A 
ATOM      7  O   UNL     1       2.020   2.876  22.291  0.00  0.00    +0.000 OA
ATOM      8  N   UNL     1       3.297   2.040  20.603  0.00  0.00    +0.000 N 
ATOM      9  C   UNL     1       3.890   2.128  19.380  0.00  0.00    +0.000 A 
ATOM     10  O   UNL     1       4.325   1.105  18.862  0.00  0.00    +0.000 OA
ATOM     11  N   UNL     1       3.960   3.331  18.744  0.00  0.00    +0.000 NA
ATOM     12  C   UNL     1       3.358   4.399  19.175  0.00  0.00    +0.000 A 
ATOM     13  N   UNL     1       3.354   5.595  18.455  0.00  0.00    +0.000 N 
ATOM     14  C   UNL     1       2.613   6.687  18.958  0.00  0.00    +0.000 A 
ATOM     15  C   UNL     1       2.495   7.928  18.309  0.00  0.00    +0.000 A 
ATOM     16  C   UNL     1       1.807   9.023  18.877  0.00  0.00    +0.000 A 
ATOM     17  C   UNL     1       1.738  10.319  18.113  0.00  0.00    +0.000 C 
ATOM     18  H   UNL     1       3.265   1.119  21.013  0.00  0.00    +0.000 HD
ENDROOT
BRANCH   1  20
ATOM     19  C   UNL     1       0.343   9.673  22.347  0.00  0.00    +0.000 C 
ATOM     20  C   UNL     1       0.625  10.055  20.898  0.00  0.00    +0.000 C 
ENDBRANCH   1  20
BRANCH  13  21
ATOM     21  C   UNL     1       3.989   5.613  17.115  0.00  0.00    +0.000 C 
BRANCH  21  22
ATOM     22  C   UNL     1       5.399   6.255  17.218  0.00  0.00    +0.000 C 
BRANCH  22  23
ATOM     23  N   UNL     1       6.516   5.516  17.879  0.00  0.00    +0.000 NA
BRANCH  23  24
ATOM     24  C   UNL     1       7.126   4.541  16.924  0.00  0.00    +0.000 C 
BRANCH  24  25
ATOM     25  C   UNL     1       6.800   4.762  15.431  0.00  0.00    +0.000 C 
BRANCH  25  26
ATOM     26  O   UNL     1       7.838   5.483  14.778  0.00  0.00    +0.000 OA
ATOM     27  H   UNL     1       7.426   5.910  14.005  0.00  0.00    +0.000 HD
ENDBRANCH  25  26
ENDBRANCH  24  25
ENDBRANCH  23  24
BRANCH  23  28
ATOM     28  C   UNL     1       7.554   6.515  18.290  0.00  0.00    +0.000 C 
BRANCH  28  29
ATOM     29  C   UNL     1       7.540   7.830  17.487  0.00  0.00    +0.000 C 
BRANCH  29  30
ATOM     30  O   UNL     1       8.394   8.791  18.098  0.00  0.00    +0.000 OA
ATOM     31  H   UNL     1       9.282   8.388  18.109  0.00  0.00    +0.000 HD
ENDBRANCH  29  30
ENDBRANCH  28  29
ENDBRANCH  23  28
ENDBRANCH  22  23
ENDBRANCH  21  22
ENDBRANCH  13  21
TORSDOF 10
ENDMDL
MODEL 3
REMARK VINA RESULT:      -7.5      0.670      2.367
REMARK  Name = 
REMARK  12 active torsions:
REMARK  status: ('A' for Active; 'I' for Inactive)
REMARK    1  A    between atoms: C_1  and  C_2
REMARK    2  A    between atoms: C_2  and  C_3
REMARK    3  A    between atoms: N_15  and  C_16
REMARK    4  A    between atoms: C_16  and  C_17
REMARK    5  A    between atoms: C_17  and  N_18
REMARK    6  A    between atoms: N_18  and  C_19
REMARK    7  A    between atoms: N_18  and  C_22
REMARK    8  A    between atoms: C_19  and  C_20
REMARK    9  A    between atoms: C_20  and  O_21
REMARK   10  A    between atoms: C_22  and  C_23
REMARK   11  A    between atoms: C_23  and  O_24
REMARK   12  A    between atoms: C_27  and  C_28
REMARK                            x       y       z     vdW  Elec       q    Type
REMARK                         _______ _______ _______ _____ _____    ______ ____
ROOT
ATOM      1  C   UNL     1       1.352   8.956  20.070  0.00  0.00    +0.000 A 
ATOM      2  C   UNL     1       1.368   7.725  20.737  0.00  0.00    +0.000 A 
ATOM      3  C   UNL     1       1.980   6.592  20.182  0.00  0.00    +0.000 A 
ATOM      4  N   UNL     1       1.938   5.418  20.956  0.00  0.00    +0.000 NA
ATOM      5  C   UNL     1       2.530   4.359  20.504  0.00  0.00    +0.000 A 
ATOM      6  C   UNL     1       2.489   3.075  21.295  0.00  0.00    +0.000 A 
ATOM      7  O   UNL     1       1.919   2.978  22.369  0.00  0.00    +0.000 OA
ATOM      8  N   UNL     1       3.122   2.037  20.682  0.00  0.00    +0.000 N 
ATOM      9  C   UNL     1       3.693   2.064  19.446  0.00  0.00    +0.000 A 
ATOM     10  O   UNL     1       4.071   1.007  18.950  0.00  0.00    +0.000 OA
ATOM     11  N   UNL     1       3.804   3.244  18.774  0.00  0.00    +0.000 NA
ATOM     12  C   UNL     1       3.260   4.350  19.185  0.00  0.00    +0.000 A 
ATOM     13  N   UNL     1       3.295   5.525  18.431  0.00  0.00    +0.000 N 
ATOM     14  C   UNL     1       2.615   6.663  18.917  0.00  0.00    +0.000 A 
ATOM     15  C   UNL     1       2.539   7.889  18.234  0.00  0.00    +0.000 A 
ATOM     16  C   UNL     1       1.913   9.030  18.784  0.00  0.00    +0.000 A 
ATOM     17  C   UNL     1       1.888  10.306  17.984  0.00  0.00    +0.000 C 
ATOM     18  H   UNL     1       3.056   1.131  21.119  0.00  0.00    +0.000 HD
ENDROOT
BRANCH   1  20
ATOM     19  C   UNL     1      -0.596  10.493  20.334  0.00  0.00    +0.000 C 
ATOM     20  C   UNL     1       0.820  10.171  20.796  0.00  0.00    +0.000 C 
ENDBRANCH   1  20
BRANCH  13  21
ATOM     21  C   UNL     1       3.903   5.476  17.080  0.00  0.00    +0.000 C 
BRANCH  21  22
ATOM     22  C   UNL     1       5.432   5.723  17.190  0.00  0.00    +0.000 C 
BRANCH  22  23
ATOM     23  N   UNL     1       6.378   4.571  17.251  0.00  0.00    +0.000 NA
BRANCH  23  24
ATOM     24  C   UNL     1       6.842   4.208  15.876  0.00  0.00    +0.000 C 
BRANCH  24  25
ATOM     25  C   UNL     1       6.638   5.286  14.789  0.00  0.00    +0.000 C 
BRANCH  25  26
ATOM     26  O   UNL     1       7.845   5.532  14.075  0.00  0.00    +0.000 OA
ATOM     27  H   UNL     1       8.507   4.919  14.444  0.00  0.00    +0.000 HD
ENDBRANCH  25  26
ENDBRANCH  24  25
ENDBRANCH  23  24
BRANCH  23  28
ATOM     28  C   UNL     1       7.561   4.984  18.074  0.00  0.00    +0.000 C 
BRANCH  28  29
ATOM     29  C   UNL     1       7.214   5.736  19.372  0.00  0.00    +0.000 C 
BRANCH  29  30
ATOM     30  O   UNL     1       8.122   5.379  20.408  0.00  0.00    +0.000 OA
ATOM     31  H   UNL     1       7.580   5.280  21.213  0.00  0.00    +0.000 HD
ENDBRANCH  29  30
ENDBRANCH  28  29
ENDBRANCH  23  28
ENDBRANCH  22  23
ENDBRANCH  21  22
ENDBRANCH  13  21
TORSDOF 10
ENDMDL
MODEL 4
REMARK VINA RESULT:      -7.2      1.284      1.663
REMARK  Name = 
REMARK  12 active torsions:
REMARK  status: ('A' for Active; 'I' for Inactive)
REMARK    1  A    between atoms: C_1  and  C_2
REMARK    2  A    between atoms: C_2  and  C_3
REMARK    3  A    between atoms: N_15  and  C_16
REMARK    4  A    between atoms: C_16  and  C_17
REMARK    5  A    between atoms: C_17  and  N_18
REMARK    6  A    between atoms: N_18  and  C_19
REMARK    7  A    between atoms: N_18  and  C_22
REMARK    8  A    between atoms: C_19  and  C_20
REMARK    9  A    between atoms: C_20  and  O_21
REMARK   10  A    between atoms: C_22  and  C_23
REMARK   11  A    between atoms: C_23  and  O_24
REMARK   12  A    between atoms: C_27  and  C_28
REMARK                            x       y       z     vdW  Elec       q    Type
REMARK                         _______ _______ _______ _____ _____    ______ ____
ROOT
ATOM      1  C   UNL     1       1.200   9.142  20.029  0.00  0.00    +0.000 A 
ATOM      2  C   UNL     1       1.221   7.893  20.663  0.00  0.00    +0.000 A 
ATOM      3  C   UNL     1       1.908   6.800  20.118  0.00  0.00    +0.000 A 
ATOM      4  N   UNL     1       1.861   5.603  20.855  0.00  0.00    +0.000 NA
ATOM      5  C   UNL     1       2.520   4.579  20.414  0.00  0.00    +0.000 A 
ATOM      6  C   UNL     1       2.477   3.272  21.166  0.00  0.00    +0.000 A 
ATOM      7  O   UNL     1       1.845   3.123  22.198  0.00  0.00    +0.000 OA
ATOM      8  N   UNL     1       3.185   2.275  20.566  0.00  0.00    +0.000 N 
ATOM      9  C   UNL     1       3.830   2.358  19.369  0.00  0.00    +0.000 A 
ATOM     10  O   UNL     1       4.278   1.331  18.870  0.00  0.00    +0.000 OA
ATOM     11  N   UNL     1       3.939   3.561  18.738  0.00  0.00    +0.000 NA
ATOM     12  C   UNL     1       3.330   4.634  19.143  0.00  0.00    +0.000 A 
ATOM     13  N   UNL     1       3.368   5.831  18.425  0.00  0.00    +0.000 N 
ATOM     14  C   UNL     1       2.617   6.929  18.897  0.00  0.00    +0.000 A 
ATOM     15  C   UNL     1       2.539   8.172  18.244  0.00  0.00    +0.000 A 
ATOM     16  C   UNL     1       1.838   9.274  18.784  0.00  0.00    +0.000 A 
ATOM     17  C   UNL     1       1.815  10.570  18.019  0.00  0.00    +0.000 C 
ATOM     18  H   UNL     1       3.126   1.354  20.973  0.00  0.00    +0.000 HD
ENDROOT
BRANCH   1  20
ATOM     19  C   UNL     1      -0.832  10.574  20.240  0.00  0.00    +0.000 C 
ATOM     20  C   UNL     1       0.580  10.316  20.753  0.00  0.00    +0.000 C 
ENDBRANCH   1  20
BRANCH  13  21
ATOM     21  C   UNL     1       4.060   5.843  17.114  0.00  0.00    +0.000 C 
BRANCH  21  22
ATOM     22  C   UNL     1       5.266   6.820  17.174  0.00  0.00    +0.000 C 
BRANCH  22  23
ATOM     23  N   UNL     1       6.499   6.544  16.378  0.00  0.00    +0.000 NA
BRANCH  23  24
ATOM     24  C   UNL     1       7.682   7.200  17.014  0.00  0.00    +0.000 C 
BRANCH  24  25
ATOM     25  C   UNL     1       7.414   8.554  17.706  0.00  0.00    +0.000 C 
BRANCH  25  26
ATOM     26  O   UNL     1       8.541   8.977  18.465  0.00  0.00    +0.000 OA
ATOM     27  H   UNL     1       8.612   8.356  19.212  0.00  0.00    +0.000 HD
ENDBRANCH  25  26
ENDBRANCH  24  25
ENDBRANCH  23  24
BRANCH  23  28
ATOM     28  C   UNL     1       6.714   5.061  16.353  0.00  0.00    +0.000 C 
BRANCH  28  29
ATOM     29  C   UNL     1       7.607   4.519  17.485  0.00  0.00    +0.000 C 
BRANCH  29  30
ATOM     30  O   UNL     1       6.810   4.103  18.588  0.00  0.00    +0.000 OA
ATOM     31  H   UNL     1       7.222   3.283  18.918  0.00  0.00    +0.000 HD
ENDBRANCH  29  30
ENDBRANCH  28  29
ENDBRANCH  23  28
ENDBRANCH  22  23
ENDBRANCH  21  22
ENDBRANCH  13  21
TORSDOF 10
ENDMDL
MODEL 5
REMARK VINA RESULT:      -7.0      1.008      1.008
REMARK  Name = 
REMARK  12 active torsions:
REMARK  status: ('A' for Active; 'I' for Inactive)
REMARK    1  A    between atoms: C_1  and  C_2
REMARK    2  A    between atoms: C_2  and  C_3
REMARK    3  A    between atoms: N_15  and  C_16
REMARK    4  A    between atoms: C_16  and  C_17
REMARK    5  A    between atoms: C_17  and  N_18
REMARK    6  A    between atoms: N_18  and  C_19
REMARK    7  A    between atoms: N_18  and  C_22
REMARK    8  A    between atoms: C_19  and  C_20
REMARK    9  A    between atoms: C_20  and  O_21
REMARK   10  A    between atoms: C_22  and  C_23
REMARK   11  A    between atoms: C_23  and  O_24
REMARK   12  A    between atoms: C_27  and  C_28
REMARK                            x       y       z     vdW  Elec       q    Type
REMARK                         _______ _______ _______ _____ _____    ______ ____
ROOT
ATOM      1  C   UNL     1       1.293   8.967  20.048  0.00  0.00    +0.000 A 
ATOM      2  C   UNL     1       1.346   7.726  20.694  0.00  0.00    +0.000 A 
ATOM      3  C   UNL     1       1.992   6.622  20.121  0.00  0.00    +0.000 A 
ATOM      4  N   UNL     1       1.985   5.434  20.874  0.00  0.00    +0.000 NA
ATOM      5  C   UNL     1       2.610   4.401  20.405  0.00  0.00    +0.000 A 
ATOM      6  C   UNL     1       2.606   3.103  21.174  0.00  0.00    +0.000 A 
ATOM      7  O   UNL     1       2.039   2.970  22.245  0.00  0.00    +0.000 OA
ATOM      8  N   UNL     1       3.271   2.095  20.544  0.00  0.00    +0.000 N 
ATOM      9  C   UNL     1       3.841   2.161  19.309  0.00  0.00    +0.000 A 
ATOM     10  O   UNL     1       4.252   1.124  18.795  0.00  0.00    +0.000 OA
ATOM     11  N   UNL     1       3.917   3.355  18.657  0.00  0.00    +0.000 NA
ATOM     12  C   UNL     1       3.339   4.437  19.087  0.00  0.00    +0.000 A 
ATOM     13  N   UNL     1       3.340   5.624  18.353  0.00  0.00    +0.000 N 
ATOM     14  C   UNL     1       2.625   6.733  18.857  0.00  0.00    +0.000 A 
ATOM     15  C   UNL     1       2.513   7.968  18.196  0.00  0.00    +0.000 A 
ATOM     16  C   UNL     1       1.852   9.080  18.764  0.00  0.00    +0.000 A 
ATOM     17  C   UNL     1       1.789  10.368  17.986  0.00  0.00    +0.000 C 
ATOM     18  H   UNL     1       3.232   1.180  20.965  0.00  0.00    +0.000 HD
ENDROOT
BRANCH   1  20
ATOM     19  C   UNL     1       0.084   9.704  22.103  0.00  0.00    +0.000 C 
ATOM     20  C   UNL     1       0.724  10.153  20.794  0.00  0.00    +0.000 C 
ENDBRANCH   1  20
BRANCH  13  21
ATOM     21  C   UNL     1       3.950   5.617  17.001  0.00  0.00    +0.000 C 
BRANCH  21  22
ATOM     22  C   UNL     1       5.115   6.643  16.953  0.00  0.00    +0.000 C 
BRANCH  22  23
ATOM     23  N   UNL     1       6.511   6.184  16.694  0.00  0.00    +0.000 NA
BRANCH  23  24
ATOM     24  C   UNL     1       7.290   6.155  17.971  0.00  0.00    +0.000 C 
BRANCH  24  25
ATOM     25  C   UNL     1       8.100   7.429  18.297  0.00  0.00    +0.000 C 
BRANCH  25  26
ATOM     26  O   UNL     1       7.921   8.424  17.296  0.00  0.00    +0.000 OA
ATOM     27  H   UNL     1       7.327   9.093  17.682  0.00  0.00    +0.000 HD
ENDBRANCH  25  26
ENDBRANCH  24  25
ENDBRANCH  23  24
BRANCH  23  28
ATOM     28  C   UNL     1       6.448   4.799  16.127  0.00  0.00    +0.000 C 
BRANCH  28  29
ATOM     29  C   UNL     1       6.722   4.706  14.614  0.00  0.00    +0.000 C 
BRANCH  29  30
ATOM     30  O   UNL     1       5.617   4.107  13.947  0.00  0.00    +0.000 OA
ATOM     31  H   UNL     1       4.824   4.560  14.289  0.00  0.00    +0.000 HD
ENDBRANCH  29  30
ENDBRANCH  28  29
ENDBRANCH  23  28
ENDBRANCH  22  23
ENDBRANCH  21  22
ENDBRANCH  13  21
TORSDOF 10
ENDMDL
MODEL 6
REMARK VINA RESULT:      -6.9      1.975      4.850
REMARK  Name = 
REMARK  12 active torsions:
REMARK  status: ('A' for Active; 'I' for Inactive)
REMARK    1  A    between atoms: C_1  and  C_2
REMARK    2  A    between atoms: C_2  and  C_3
REMARK    3  A    between atoms: N_15  and  C_16
REMARK    4  A    between atoms: C_16  and  C_17
REMARK    5  A    between atoms: C_17  and  N_18
REMARK    6  A    between atoms: N_18  and  C_19
REMARK    7  A    between atoms: N_18  and  C_22
REMARK    8  A    between atoms: C_19  and  C_20
REMARK    9  A    between atoms: C_20  and  O_21
REMARK   10  A    between atoms: C_22  and  C_23
REMARK   11  A    between atoms: C_23  and  O_24
REMARK   12  A    between atoms: C_27  and  C_28
REMARK                            x       y       z     vdW  Elec       q    Type
REMARK                         _______ _______ _______ _____ _____    ______ ____
ROOT
ATOM      1  C   UNL     1       0.618   9.918  19.339  0.00  0.00    +0.000 A 
ATOM      2  C   UNL     1       1.557   9.498  18.389  0.00  0.00    +0.000 A 
ATOM      3  C   UNL     1       2.274   8.302  18.537  0.00  0.00    +0.000 A 
ATOM      4  N   UNL     1       3.180   7.986  17.509  0.00  0.00    +0.000 NA
ATOM      5  C   UNL     1       3.831   6.869  17.580  0.00  0.00    +0.000 A 
ATOM      6  C   UNL     1       4.827   6.505  16.507  0.00  0.00    +0.000 A 
ATOM      7  O   UNL     1       5.055   7.221  15.547  0.00  0.00    +0.000 OA
ATOM      8  N   UNL     1       5.461   5.321  16.732  0.00  0.00    +0.000 N 
ATOM      9  C   UNL     1       5.314   4.528  17.830  0.00  0.00    +0.000 A 
ATOM     10  O   UNL     1       6.079   3.581  17.978  0.00  0.00    +0.000 OA
ATOM     11  N   UNL     1       4.353   4.816  18.752  0.00  0.00    +0.000 NA
ATOM     12  C   UNL     1       3.643   5.905  18.724  0.00  0.00    +0.000 A 
ATOM     13  N   UNL     1       2.738   6.231  19.735  0.00  0.00    +0.000 N 
ATOM     14  C   UNL     1       2.061   7.469  19.664  0.00  0.00    +0.000 A 
ATOM     15  C   UNL     1       1.159   7.933  20.637  0.00  0.00    +0.000 A 
ATOM     16  C   UNL     1       0.443   9.143  20.498  0.00  0.00    +0.000 A 
ATOM     17  C   UNL     1      -0.510   9.557  21.588  0.00  0.00    +0.000 C 
ATOM     18  H   UNL     1       6.200   5.063  16.096  0.00  0.00    +0.000 HD
ENDROOT
BRANCH   1  20
ATOM     19  C   UNL     1      -1.407  10.747  18.141  0.00  0.00    +0.000 C 
ATOM     20  C   UNL     1      -0.233  11.130  19.036  0.00  0.00    +0.000 C 
ENDBRANCH   1  20
BRANCH  13  21
ATOM     21  C   UNL     1       2.651   5.342  20.918  0.00  0.00    +0.000 C 
BRANCH  21  22
ATOM     22  C   UNL     1       1.474   4.347  20.733  0.00  0.00    +0.000 C 
BRANCH  22  23
ATOM     23  N   UNL     1       1.726   2.875  20.726  0.00  0.00    +0.000 NA
BRANCH  23  24
ATOM     24  C   UNL     1       1.817   2.374  19.320  0.00  0.00    +0.000 C 
BRANCH  24  25
ATOM     25  C   UNL     1       1.115   3.236  18.248  0.00  0.00    +0.000 C 
BRANCH  25  26
ATOM     26  O   UNL     1       1.954   3.437  17.117  0.00  0.00    +0.000 OA
ATOM     27  H   UNL     1       2.194   4.382  17.122  0.00  0.00    +0.000 HD
ENDBRANCH  25  26
ENDBRANCH  24  25
ENDBRANCH  23  24
BRANCH  23  28
ATOM     28  C   UNL     1       3.029   2.624  21.421  0.00  0.00    +0.000 C 
BRANCH  28  29
ATOM     29  C   UNL     1       4.139   2.044  20.524  0.00  0.00    +0.000 C 
BRANCH  29  30
ATOM     30  O   UNL     1       5.221   1.571  21.319  0.00  0.00    +0.000 OA
ATOM     31  H   UNL     1       5.152   2.045  22.169  0.00  0.00    +0.000 HD
ENDBRANCH  29  30
ENDBRANCH  28  29
ENDBRANCH  23  28
ENDBRANCH  22  23
ENDBRANCH  21  22
ENDBRANCH  13  21
TORSDOF 10
ENDMDL
MODEL 7
REMARK VINA RESULT:      -6.8      0.889      2.338
REMARK  Name = 
REMARK  12 active torsions:
REMARK  status: ('A' for Active; 'I' for Inactive)
REMARK    1  A    between atoms: C_1  and  C_2
REMARK    2  A    between atoms: C_2  and  C_3
REMARK    3  A    between atoms: N_15  and  C_16
REMARK    4  A    between atoms: C_16  and  C_17
REMARK    5  A    between atoms: C_17  and  N_18
REMARK    6  A    between atoms: N_18  and  C_19
REMARK    7  A    between atoms: N_18  and  C_22
REMARK    8  A    between atoms: C_19  and  C_20
REMARK    9  A    between atoms: C_20  and  O_21
REMARK   10  A    between atoms: C_22  and  C_23
REMARK   11  A    between atoms: C_23  and  O_24
REMARK   12  A    between atoms: C_27  and  C_28
REMARK                            x       y       z     vdW  Elec       q    Type
REMARK                         _______ _______ _______ _____ _____    ______ ____
ROOT
ATOM      1  C   UNL     1       1.287   9.223  20.406  0.00  0.00    +0.000 A 
ATOM      2  C   UNL     1       1.352   7.955  20.997  0.00  0.00    +0.000 A 
ATOM      3  C   UNL     1       1.875   6.847  20.315  0.00  0.00    +0.000 A 
ATOM      4  N   UNL     1       1.894   5.631  21.022  0.00  0.00    +0.000 NA
ATOM      5  C   UNL     1       2.410   4.591  20.447  0.00  0.00    +0.000 A 
ATOM      6  C   UNL     1       2.431   3.265  21.165  0.00  0.00    +0.000 A 
ATOM      7  O   UNL     1       1.983   3.114  22.290  0.00  0.00    +0.000 OA
ATOM      8  N   UNL     1       2.969   2.255  20.428  0.00  0.00    +0.000 N 
ATOM      9  C   UNL     1       3.398   2.345  19.138  0.00  0.00    +0.000 A 
ATOM     10  O   UNL     1       3.696   1.313  18.544  0.00  0.00    +0.000 OA
ATOM     11  N   UNL     1       3.458   3.560  18.524  0.00  0.00    +0.000 NA
ATOM     12  C   UNL     1       2.986   4.648  19.056  0.00  0.00    +0.000 A 
ATOM     13  N   UNL     1       2.962   5.863  18.369  0.00  0.00    +0.000 N 
ATOM     14  C   UNL     1       2.364   6.981  18.991  0.00  0.00    +0.000 A 
ATOM     15  C   UNL     1       2.238   8.246  18.391  0.00  0.00    +0.000 A 
ATOM     16  C   UNL     1       1.702   9.363  19.071  0.00  0.00    +0.000 A 
ATOM     17  C   UNL     1       1.614  10.682  18.351  0.00  0.00    +0.000 C 
ATOM     18  H   UNL     1       2.934   1.326  20.818  0.00  0.00    +0.000 HD
ENDROOT
BRANCH   1  20
ATOM     19  C   UNL     1      -0.643  10.601  21.180  0.00  0.00    +0.000 C 
ATOM     20  C   UNL     1       0.866  10.401  21.254  0.00  0.00    +0.000 C 
ENDBRANCH   1  20
BRANCH  13  21
ATOM     21  C   UNL     1       3.412   5.884  16.957  0.00  0.00    +0.000 C 
BRANCH  21  22
ATOM     22  C   UNL     1       4.962   5.980  16.908  0.00  0.00    +0.000 C 
BRANCH  22  23
ATOM     23  N   UNL     1       5.765   4.890  16.281  0.00  0.00    +0.000 NA
BRANCH  23  24
ATOM     24  C   UNL     1       5.552   4.878  14.800  0.00  0.00    +0.000 C 
BRANCH  24  25
ATOM     25  C   UNL     1       6.746   4.393  13.950  0.00  0.00    +0.000 C 
BRANCH  25  26
ATOM     26  O   UNL     1       6.403   3.240  13.189  0.00  0.00    +0.000 OA
ATOM     27  H   UNL     1       6.367   3.531  12.260  0.00  0.00    +0.000 HD
ENDBRANCH  25  26
ENDBRANCH  24  25
ENDBRANCH  23  24
BRANCH  23  28
ATOM     28  C   UNL     1       7.211   5.155  16.566  0.00  0.00    +0.000 C 
BRANCH  28  29
ATOM     29  C   UNL     1       7.716   4.606  17.914  0.00  0.00    +0.000 C 
BRANCH  29  30
ATOM     30  O   UNL     1       6.640   4.030  18.647  0.00  0.00    +0.000 OA
ATOM     31  H   UNL     1       7.024   3.733  19.493  0.00  0.00    +0.000 HD
ENDBRANCH  29  30
ENDBRANCH  28  29
ENDBRANCH  23  28
ENDBRANCH  22  23
ENDBRANCH  21  22
ENDBRANCH  13  21
TORSDOF 10
ENDMDL
MODEL 8
REMARK VINA RESULT:      -6.8      1.524      2.243
REMARK  Name = 
REMARK  12 active torsions:
REMARK  status: ('A' for Active; 'I' for Inactive)
REMARK    1  A    between atoms: C_1  and  C_2
REMARK    2  A    between atoms: C_2  and  C_3
REMARK    3  A    between atoms: N_15  and  C_16
REMARK    4  A    between atoms: C_16  and  C_17
REMARK    5  A    between atoms: C_17  and  N_18
REMARK    6  A    between atoms: N_18  and  C_19
REMARK    7  A    between atoms: N_18  and  C_22
REMARK    8  A    between atoms: C_19  and  C_20
REMARK    9  A    between atoms: C_20  and  O_21
REMARK   10  A    between atoms: C_22  and  C_23
REMARK   11  A    between atoms: C_23  and  O_24
REMARK   12  A    between atoms: C_27  and  C_28
REMARK                            x       y       z     vdW  Elec       q    Type
REMARK                         _______ _______ _______ _____ _____    ______ ____
ROOT
ATOM      1  C   UNL     1       0.907   8.982  20.517  0.00  0.00    +0.000 A 
ATOM      2  C   UNL     1       0.978   7.701  21.079  0.00  0.00    +0.000 A 
ATOM      3  C   UNL     1       1.691   6.663  20.464  0.00  0.00    +0.000 A 
ATOM      4  N   UNL     1       1.695   5.426  21.134  0.00  0.00    +0.000 NA
ATOM      5  C   UNL     1       2.379   4.451  20.626  0.00  0.00    +0.000 A 
ATOM      6  C   UNL     1       2.391   3.103  21.305  0.00  0.00    +0.000 A 
ATOM      7  O   UNL     1       1.782   2.877  22.337  0.00  0.00    +0.000 OA
ATOM      8  N   UNL     1       3.120   2.165  20.640  0.00  0.00    +0.000 N 
ATOM      9  C   UNL     1       3.742   2.336  19.440  0.00  0.00    +0.000 A 
ATOM     10  O   UNL     1       4.213   1.352  18.877  0.00  0.00    +0.000 OA
ATOM     11  N   UNL     1       3.801   3.574  18.874  0.00  0.00    +0.000 NA
ATOM     12  C   UNL     1       3.165   4.603  19.349  0.00  0.00    +0.000 A 
ATOM     13  N   UNL     1       3.153   5.838  18.698  0.00  0.00    +0.000 N 
ATOM     14  C   UNL     1       2.375   6.883  19.242  0.00  0.00    +0.000 A 
ATOM     15  C   UNL     1       2.245   8.156  18.660  0.00  0.00    +0.000 A 
ATOM     16  C   UNL     1       1.518   9.203  19.271  0.00  0.00    +0.000 A 
ATOM     17  C   UNL     1       1.441  10.538  18.580  0.00  0.00    +0.000 C 
ATOM     18  H   UNL     1       3.098   1.222  20.996  0.00  0.00    +0.000 HD
ENDROOT
BRANCH   1  20
ATOM     19  C   UNL     1      -0.012   9.636  22.742  0.00  0.00    +0.000 C 
ATOM     20  C   UNL     1       0.262  10.093  21.314  0.00  0.00    +0.000 C 
ENDBRANCH   1  20
BRANCH  13  21
ATOM     21  C   UNL     1       3.821   5.945  17.379  0.00  0.00    +0.000 C 
BRANCH  21  22
ATOM     22  C   UNL     1       5.158   6.720  17.537  0.00  0.00    +0.000 C 
BRANCH  22  23
ATOM     23  N   UNL     1       6.442   5.978  17.710  0.00  0.00    +0.000 NA
BRANCH  23  24
ATOM     24  C   UNL     1       7.578   6.773  17.150  0.00  0.00    +0.000 C 
BRANCH  24  25
ATOM     25  C   UNL     1       8.063   7.958  18.013  0.00  0.00    +0.000 C 
BRANCH  25  26
ATOM     26  O   UNL     1       7.491   9.184  17.573  0.00  0.00    +0.000 OA
ATOM     27  H   UNL     1       8.239   9.766  17.345  0.00  0.00    +0.000 HD
ENDBRANCH  25  26
ENDBRANCH  24  25
ENDBRANCH  23  24
BRANCH  23  28
ATOM     28  C   UNL     1       6.665   5.771  19.177  0.00  0.00    +0.000 C 
BRANCH  28  29
ATOM     29  C   UNL     1       8.084   5.306  19.556  0.00  0.00    +0.000 C 
BRANCH  29  30
ATOM     30  O   UNL     1       8.236   5.284  20.971  0.00  0.00    +0.000 OA
ATOM     31  H   UNL     1       7.912   6.148  21.286  0.00  0.00    +0.000 HD
ENDBRANCH  29  30
ENDBRANCH  28  29
ENDBRANCH  23  28
ENDBRANCH  22  23
ENDBRANCH  21  22
ENDBRANCH  13  21
TORSDOF 10
ENDMDL
MODEL 9
REMARK VINA RESULT:      -6.7      2.569      5.029
REMARK  Name = 
REMARK  12 active torsions:
REMARK  status: ('A' for Active; 'I' for Inactive)
REMARK    1  A    between atoms: C_1  and  C_2
REMARK    2  A    between atoms: C_2  and  C_3
REMARK    3  A    between atoms: N_15  and  C_16
REMARK    4  A    between atoms: C_16  and  C_17
REMARK    5  A    between atoms: C_17  and  N_18
REMARK    6  A    between atoms: N_18  and  C_19
REMARK    7  A    between atoms: N_18  and  C_22
REMARK    8  A    between atoms: C_19  and  C_20
REMARK    9  A    between atoms: C_20  and  O_21
REMARK   10  A    between atoms: C_22  and  C_23
REMARK   11  A    between atoms: C_23  and  O_24
REMARK   12  A    between atoms: C_27  and  C_28
REMARK                            x       y       z     vdW  Elec       q    Type
REMARK                         _______ _______ _______ _____ _____    ______ ____
ROOT
ATOM      1  C   UNL     1       2.794   3.511  20.635  0.00  0.00    +0.000 A 
ATOM      2  C   UNL     1       2.170   4.740  20.884  0.00  0.00    +0.000 A 
ATOM      3  C   UNL     1       2.346   5.843  20.036  0.00  0.00    +0.000 A 
ATOM      4  N   UNL     1       1.656   7.017  20.389  0.00  0.00    +0.000 NA
ATOM      5  C   UNL     1       1.752   8.047  19.610  0.00  0.00    +0.000 A 
ATOM      6  C   UNL     1       1.045   9.331  19.966  0.00  0.00    +0.000 A 
ATOM      7  O   UNL     1       0.363   9.455  20.970  0.00  0.00    +0.000 OA
ATOM      8  N   UNL     1       1.265  10.339  19.076  0.00  0.00    +0.000 N 
ATOM      9  C   UNL     1       2.088  10.285  17.992  0.00  0.00    +0.000 A 
ATOM     10  O   UNL     1       2.324  11.323  17.382  0.00  0.00    +0.000 OA
ATOM     11  N   UNL     1       2.656   9.102  17.627  0.00  0.00    +0.000 NA
ATOM     12  C   UNL     1       2.573   8.022  18.346  0.00  0.00    +0.000 A 
ATOM     13  N   UNL     1       3.249   6.848  18.009  0.00  0.00    +0.000 N 
ATOM     14  C   UNL     1       3.166   5.743  18.884  0.00  0.00    +0.000 A 
ATOM     15  C   UNL     1       3.832   4.522  18.681  0.00  0.00    +0.000 A 
ATOM     16  C   UNL     1       3.666   3.411  19.538  0.00  0.00    +0.000 A 
ATOM     17  C   UNL     1       4.413   2.139  19.237  0.00  0.00    +0.000 C 
ATOM     18  H   UNL     1       0.890  11.247  19.302  0.00  0.00    +0.000 HD
ENDROOT
BRANCH   1  20
ATOM     19  C   UNL     1       1.050   2.512  22.114  0.00  0.00    +0.000 C 
ATOM     20  C   UNL     1       2.430   2.322  21.495  0.00  0.00    +0.000 C 
ENDBRANCH   1  20
BRANCH  13  21
ATOM     21  C   UNL     1       4.155   6.869  16.836  0.00  0.00    +0.000 C 
BRANCH  21  22
ATOM     22  C   UNL     1       5.621   7.045  17.316  0.00  0.00    +0.000 C 
BRANCH  22  23
ATOM     23  N   UNL     1       6.727   6.295  16.649  0.00  0.00    +0.000 NA
BRANCH  23  24
ATOM     24  C   UNL     1       7.398   5.386  17.628  0.00  0.00    +0.000 C 
BRANCH  24  25
ATOM     25  C   UNL     1       7.162   5.707  19.121  0.00  0.00    +0.000 C 
BRANCH  25  26
ATOM     26  O   UNL     1       8.335   5.469  19.890  0.00  0.00    +0.000 OA
ATOM     27  H   UNL     1       9.077   5.824  19.369  0.00  0.00    +0.000 HD
ENDBRANCH  25  26
ENDBRANCH  24  25
ENDBRANCH  23  24
BRANCH  23  28
ATOM     28  C   UNL     1       6.132   5.474  15.546  0.00  0.00    +0.000 C 
BRANCH  28  29
ATOM     29  C   UNL     1       6.477   3.974  15.598  0.00  0.00    +0.000 C 
BRANCH  29  30
ATOM     30  O   UNL     1       6.177   3.354  14.353  0.00  0.00    +0.000 OA
ATOM     31  H   UNL     1       5.450   3.875  13.965  0.00  0.00    +0.000 HD
ENDBRANCH  29  30
ENDBRANCH  28  29
ENDBRANCH  23  28
ENDBRANCH  22  23
ENDBRANCH  21  22
ENDBRANCH  13  21
TORSDOF 10
ENDMDL
