MODEL 1
REMARK VINA RESULT:      -7.4      0.000      0.000
REMARK  Name = 
REMARK  9 active torsions:
REMARK  status: ('A' for Active; 'I' for Inactive)
REMARK    1  A    between atoms: C_1  and  O_2
REMARK    2  A    between atoms: O_2  and  C_3
REMARK    3  A    between atoms: C_8  and  N_9
REMARK    4  A    between atoms: C_10  and  C_12
REMARK    5  A    between atoms: C_12  and  C_13
REMARK    6  A    between atoms: C_13  and  N_14
REMARK    7  A    between atoms: C_13  and  C_21
REMARK    8  A    between atoms: N_14  and  C_15
REMARK    9  A    between atoms: C_21  and  O_23
REMARK                            x       y       z     vdW  Elec       q    Type
REMARK                         _______ _______ _______ _____ _____    ______ ____
ROOT
ATOM      1  C   UNK A   1       3.118   3.997  20.661  0.00  0.00    +0.000 C 
ENDROOT
BRANCH   1   3
ATOM      2  N   UNK A   1       2.791   6.332  19.863  0.00  0.00    +0.000 N 
ATOM      3  C   UNK A   1       2.148   5.173  20.313  0.00  0.00    +0.000 C 
ATOM      4  O   UNK A   1       0.931   5.014  20.350  0.00  0.00    +0.000 OA
ATOM      5  H   UNK A   1       3.797   6.361  19.938  0.00  0.00    +0.000 HD
BRANCH   2  11
ATOM      6  C   UNK A   1       1.550   8.415  20.331  0.00  0.00    +0.000 A 
ATOM      7  C   UNK A   1       0.869   9.574  19.913  0.00  0.00    +0.000 A 
ATOM      8  C   UNK A   1       0.863   9.943  18.571  0.00  0.00    +0.000 A 
ATOM      9  C   UNK A   1       1.554   9.154  17.656  0.00  0.00    +0.000 A 
ATOM     10  C   UNK A   1       2.228   7.985  18.071  0.00  0.00    +0.000 A 
ATOM     11  C   UNK A   1       2.216   7.565  19.408  0.00  0.00    +0.000 A 
BRANCH   6  13
ATOM     12  C   UNK A   1       0.539   8.980  22.351  0.00  0.00    +0.000 C 
ATOM     13  O   UNK A   1       1.446   8.116  21.667  0.00  0.00    +0.000 OA
ENDBRANCH   6  13
ENDBRANCH   2  11
ENDBRANCH   1   3
BRANCH   1  14
ATOM     14  C   UNK A   1       4.040   3.586  19.480  0.00  0.00    +0.000 C 
BRANCH  14  15
ATOM     15  N   UNK A   1       5.380   4.240  19.226  0.00  0.00    +0.000 NA
ATOM     16  H   UNK A   1       6.078   3.749  19.791  0.00  0.00    +0.000 HD
BRANCH  15  17
ATOM     17  C   UNK A   0       5.925   4.366  17.854  0.00  0.00    +0.000 C 
ATOM     18  C   UNK A   0       5.310   5.396  16.881  0.00  0.00    +0.000 C 
ATOM     19  C   UNK A   0       5.610   6.873  17.174  0.00  0.00    +0.000 C 
ATOM     20  C   UNK A   0       7.071   7.171  17.498  0.00  0.00    +0.000 C 
ATOM     21  C   UNK A   0       7.686   6.148  18.445  0.00  0.00    +0.000 C 
ATOM     22  C   UNK A   0       7.437   4.716  17.960  0.00  0.00    +0.000 C 
ENDBRANCH  15  17
ENDBRANCH  14  15
BRANCH  14  23
ATOM     23  C   UNK A   1       4.246   2.064  19.367  0.00  0.00    +0.000 C 
ATOM     24  O   UNK A   1       3.637   1.305  18.648  0.00  0.00    +0.000 OA
BRANCH  23  25
ATOM     25  O   UNK A   1       5.222   1.669  20.237  0.00  0.00    +0.000 OA
ATOM     26  H   UNK A   1       5.918   2.369  20.223  0.00  0.00    +0.000 HD
ENDBRANCH  23  25
ENDBRANCH  14  23
ENDBRANCH   1  14
TORSDOF 8
ENDMDL
MODEL 2
REMARK VINA RESULT:      -7.2      3.761      7.137
REMARK  Name = 
REMARK  9 active torsions:
REMARK  status: ('A' for Active; 'I' for Inactive)
REMARK    1  A    between atoms: C_1  and  O_2
REMARK    2  A    between atoms: O_2  and  C_3
REMARK    3  A    between atoms: C_8  and  N_9
REMARK    4  A    between atoms: C_10  and  C_12
REMARK    5  A    between atoms: C_12  and  C_13
REMARK    6  A    between atoms: C_13  and  N_14
REMARK    7  A    between atoms: C_13  and  C_21
REMARK    8  A    between atoms: N_14  and  C_15
REMARK    9  A    between atoms: C_21  and  O_23
REMARK                            x       y       z     vdW  Elec       q    Type
REMARK                         _______ _______ _______ _____ _____    ______ ____
ROOT
ATOM      1  C   UNK A   1       5.626   6.762  17.543  0.00  0.00    +0.000 C 
ENDROOT
BRANCH   1   3
ATOM      2  N   UNK A   1       6.118   5.185  15.681  0.00  0.00    +0.000 N 
ATOM      3  C   UNK A   1       5.551   6.419  16.019  0.00  0.00    +0.000 C 
ATOM      4  O   UNK A   1       4.946   7.152  15.242  0.00  0.00    +0.000 OA
ATOM      5  H   UNK A   1       6.641   4.704  16.398  0.00  0.00    +0.000 HD
BRANCH   2  11
ATOM      6  C   UNK A   1       7.246   4.819  13.515  0.00  0.00    +0.000 A 
ATOM      7  C   UNK A   1       7.281   4.300  12.206  0.00  0.00    +0.000 A 
ATOM      8  C   UNK A   1       6.270   3.456  11.755  0.00  0.00    +0.000 A 
ATOM      9  C   UNK A   1       5.236   3.123  12.626  0.00  0.00    +0.000 A 
ATOM     10  C   UNK A   1       5.193   3.651  13.934  0.00  0.00    +0.000 A 
ATOM     11  C   UNK A   1       6.173   4.537  14.402  0.00  0.00    +0.000 A 
BRANCH   6  13
ATOM     12  C   UNK A   1       8.999   6.111  12.691  0.00  0.00    +0.000 C 
ATOM     13  O   UNK A   1       8.262   5.683  13.836  0.00  0.00    +0.000 OA
ENDBRANCH   6  13
ENDBRANCH   2  11
ENDBRANCH   1   3
BRANCH   1  14
ATOM     14  C   UNK A   1       4.959   5.691  18.452  0.00  0.00    +0.000 C 
BRANCH  14  15
ATOM     15  N   UNK A   1       3.883   4.753  17.951  0.00  0.00    +0.000 NA
ATOM     16  H   UNK A   1       3.998   3.861  18.440  0.00  0.00    +0.000 HD
BRANCH  15  17
ATOM     17  C   UNK A   0       2.450   5.120  18.020  0.00  0.00    +0.000 C 
ATOM     18  C   UNK A   0       1.373   4.031  17.818  0.00  0.00    +0.000 C 
ATOM     19  C   UNK A   0       1.206   3.020  18.962  0.00  0.00    +0.000 C 
ATOM     20  C   UNK A   0       1.160   3.640  20.355  0.00  0.00    +0.000 C 
ATOM     21  C   UNK A   0       2.210   4.726  20.552  0.00  0.00    +0.000 C 
ATOM     22  C   UNK A   0       2.175   5.752  19.414  0.00  0.00    +0.000 C 
ENDBRANCH  15  17
ENDBRANCH  14  15
BRANCH  14  23
ATOM     23  C   UNK A   1       5.973   4.845  19.243  0.00  0.00    +0.000 C 
ATOM     24  O   UNK A   1       6.914   5.257  19.882  0.00  0.00    +0.000 OA
BRANCH  23  25
ATOM     25  O   UNK A   1       5.673   3.520  19.099  0.00  0.00    +0.000 OA
ATOM     26  H   UNK A   1       6.403   3.118  18.568  0.00  0.00    +0.000 HD
ENDBRANCH  23  25
ENDBRANCH  14  23
ENDBRANCH   1  14
TORSDOF 8
ENDMDL
MODEL 3
REMARK VINA RESULT:      -7.0      1.256      1.683
REMARK  Name = 
REMARK  9 active torsions:
REMARK  status: ('A' for Active; 'I' for Inactive)
REMARK    1  A    between atoms: C_1  and  O_2
REMARK    2  A    between atoms: O_2  and  C_3
REMARK    3  A    between atoms: C_8  and  N_9
REMARK    4  A    between atoms: C_10  and  C_12
REMARK    5  A    between atoms: C_12  and  C_13
REMARK    6  A    between atoms: C_13  and  N_14
REMARK    7  A    between atoms: C_13  and  C_21
REMARK    8  A    between atoms: N_14  and  C_15
REMARK    9  A    between atoms: C_21  and  O_23
REMARK                            x       y       z     vdW  Elec       q    Type
REMARK                         _______ _______ _______ _____ _____    ______ ____
ROOT
ATOM      1  C   UNK A   1       3.083   4.141  19.839  0.00  0.00    +0.000 C 
ENDROOT
BRANCH   1   3
ATOM      2  N   UNK A   1       2.550   6.573  19.827  0.00  0.00    +0.000 N 
ATOM      3  C   UNK A   1       2.309   5.343  19.204  0.00  0.00    +0.000 C 
ATOM      4  O   UNK A   1       1.639   5.189  18.187  0.00  0.00    +0.000 OA
ATOM      5  H   UNK A   1       3.069   6.559  20.692  0.00  0.00    +0.000 HD
BRANCH   2  11
ATOM      6  C   UNK A   1       1.366   8.650  20.443  0.00  0.00    +0.000 A 
ATOM      7  C   UNK A   1       0.763   9.879  20.113  0.00  0.00    +0.000 A 
ATOM      8  C   UNK A   1       0.865  10.390  18.823  0.00  0.00    +0.000 A 
ATOM      9  C   UNK A   1       1.585   9.672  17.872  0.00  0.00    +0.000 A 
ATOM     10  C   UNK A   1       2.180   8.434  18.197  0.00  0.00    +0.000 A 
ATOM     11  C   UNK A   1       2.059   7.874  19.476  0.00  0.00    +0.000 A 
BRANCH   6  13
ATOM     12  C   UNK A   1       0.575   9.218  22.558  0.00  0.00    +0.000 C 
ATOM     13  O   UNK A   1       1.158   8.214  21.728  0.00  0.00    +0.000 OA
ENDBRANCH   6  13
ENDBRANCH   2  11
ENDBRANCH   1   3
BRANCH   1  14
ATOM     14  C   UNK A   1       3.453   3.033  18.813  0.00  0.00    +0.000 C 
BRANCH  14  15
ATOM     15  N   UNK A   1       3.989   3.345  17.434  0.00  0.00    +0.000 NA
ATOM     16  H   UNK A   1       3.364   4.034  17.006  0.00  0.00    +0.000 HD
BRANCH  15  17
ATOM     17  C   UNK A   0       5.379   3.821  17.239  0.00  0.00    +0.000 C 
ATOM     18  C   UNK A   0       6.012   3.769  15.831  0.00  0.00    +0.000 C 
ATOM     19  C   UNK A   0       5.484   4.787  14.810  0.00  0.00    +0.000 C 
ATOM     20  C   UNK A   0       5.351   6.210  15.342  0.00  0.00    +0.000 C 
ATOM     21  C   UNK A   0       4.742   6.263  16.737  0.00  0.00    +0.000 C 
ATOM     22  C   UNK A   0       5.455   5.305  17.697  0.00  0.00    +0.000 C 
ENDBRANCH  15  17
ENDBRANCH  14  15
BRANCH  14  23
ATOM     23  C   UNK A   1       4.339   1.923  19.408  0.00  0.00    +0.000 C 
ATOM     24  O   UNK A   1       5.028   2.002  20.400  0.00  0.00    +0.000 OA
BRANCH  23  25
ATOM     25  O   UNK A   1       4.262   0.807  18.624  0.00  0.00    +0.000 OA
ATOM     26  H   UNK A   1       4.574   0.049  19.174  0.00  0.00    +0.000 HD
ENDBRANCH  23  25
ENDBRANCH  14  23
ENDBRANCH   1  14
TORSDOF 8
ENDMDL
MODEL 4
REMARK VINA RESULT:      -7.0      2.313      6.144
REMARK  Name = 
REMARK  9 active torsions:
REMARK  status: ('A' for Active; 'I' for Inactive)
REMARK    1  A    between atoms: C_1  and  O_2
REMARK    2  A    between atoms: O_2  and  C_3
REMARK    3  A    between atoms: C_8  and  N_9
REMARK    4  A    between atoms: C_10  and  C_12
REMARK    5  A    between atoms: C_12  and  C_13
REMARK    6  A    between atoms: C_13  and  N_14
REMARK    7  A    between atoms: C_13  and  C_21
REMARK    8  A    between atoms: N_14  and  C_15
REMARK    9  A    between atoms: C_21  and  O_23
REMARK                            x       y       z     vdW  Elec       q    Type
REMARK                         _______ _______ _______ _____ _____    ______ ____
ROOT
ATOM      1  C   UNK A   1       2.513   7.168  19.167  0.00  0.00    +0.000 C 
ENDROOT
BRANCH   1   3
ATOM      2  N   UNK A   1       3.876   6.128  17.361  0.00  0.00    +0.000 N 
ATOM      3  C   UNK A   1       3.700   6.241  18.745  0.00  0.00    +0.000 C 
ATOM      4  O   UNK A   1       4.447   5.757  19.591  0.00  0.00    +0.000 OA
ATOM      5  H   UNK A   1       3.158   6.522  16.771  0.00  0.00    +0.000 HD
BRANCH   2  11
ATOM      6  C   UNK A   1       6.128   6.048  16.352  0.00  0.00    +0.000 A 
ATOM      7  C   UNK A   1       7.104   5.436  15.542  0.00  0.00    +0.000 A 
ATOM      8  C   UNK A   1       6.890   4.162  15.023  0.00  0.00    +0.000 A 
ATOM      9  C   UNK A   1       5.704   3.502  15.331  0.00  0.00    +0.000 A 
ATOM     10  C   UNK A   1       4.720   4.119  16.133  0.00  0.00    +0.000 A 
ATOM     11  C   UNK A   1       4.888   5.416  16.635  0.00  0.00    +0.000 A 
BRANCH   6  13
ATOM     12  C   UNK A   1       7.552   7.375  17.630  0.00  0.00    +0.000 C 
ATOM     13  O   UNK A   1       6.417   7.325  16.765  0.00  0.00    +0.000 OA
ENDBRANCH   6  13
ENDBRANCH   2  11
ENDBRANCH   1   3
BRANCH   1  14
ATOM     14  C   UNK A   1       1.602   6.547  20.263  0.00  0.00    +0.000 C 
BRANCH  14  15
ATOM     15  N   UNK A   1       2.029   5.364  21.104  0.00  0.00    +0.000 NA
ATOM     16  H   UNK A   1       1.978   5.647  22.086  0.00  0.00    +0.000 HD
BRANCH  15  17
ATOM     17  C   UNK A   0       1.354   4.051  20.982  0.00  0.00    +0.000 C 
ATOM     18  C   UNK A   0       0.814   3.596  19.607  0.00  0.00    +0.000 C 
ATOM     19  C   UNK A   0       1.865   3.193  18.564  0.00  0.00    +0.000 C 
ATOM     20  C   UNK A   0       2.967   2.280  19.092  0.00  0.00    +0.000 C 
ATOM     21  C   UNK A   0       3.490   2.716  20.455  0.00  0.00    +0.000 C 
ATOM     22  C   UNK A   0       2.345   2.947  21.447  0.00  0.00    +0.000 C 
ENDBRANCH  15  17
ENDBRANCH  14  15
BRANCH  14  23
ATOM     23  C   UNK A   1       0.998   7.592  21.218  0.00  0.00    +0.000 C 
ATOM     24  O   UNK A   1      -0.177   7.759  21.455  0.00  0.00    +0.000 OA
BRANCH  23  25
ATOM     25  O   UNK A   1       1.996   8.350  21.759  0.00  0.00    +0.000 OA
ATOM     26  H   UNK A   1       1.574   9.168  22.116  0.00  0.00    +0.000 HD
ENDBRANCH  23  25
ENDBRANCH  14  23
ENDBRANCH   1  14
TORSDOF 8
ENDMDL
MODEL 5
REMARK VINA RESULT:      -7.0      0.827      1.111
REMARK  Name = 
REMARK  9 active torsions:
REMARK  status: ('A' for Active; 'I' for Inactive)
REMARK    1  A    between atoms: C_1  and  O_2
REMARK    2  A    between atoms: O_2  and  C_3
REMARK    3  A    between atoms: C_8  and  N_9
REMARK    4  A    between atoms: C_10  and  C_12
REMARK    5  A    between atoms: C_12  and  C_13
REMARK    6  A    between atoms: C_13  and  N_14
REMARK    7  A    between atoms: C_13  and  C_21
REMARK    8  A    between atoms: N_14  and  C_15
REMARK    9  A    between atoms: C_21  and  O_23
REMARK                            x       y       z     vdW  Elec       q    Type
REMARK                         _______ _______ _______ _____ _____    ______ ____
ROOT
ATOM      1  C   UNK A   1       3.486   4.310  19.982  0.00  0.00    +0.000 C 
ENDROOT
BRANCH   1   3
ATOM      2  N   UNK A   1       2.855   6.666  19.482  0.00  0.00    +0.000 N 
ATOM      3  C   UNK A   1       2.375   5.403  19.847  0.00  0.00    +0.000 C 
ATOM      4  O   UNK A   1       1.189   5.108  19.961  0.00  0.00    +0.000 OA
ATOM      5  H   UNK A   1       3.856   6.798  19.481  0.00  0.00    +0.000 HD
BRANCH   2  11
ATOM      6  C   UNK A   1       1.477   8.551  20.285  0.00  0.00    +0.000 A 
ATOM      7  C   UNK A   1       0.647   9.667  20.060  0.00  0.00    +0.000 A 
ATOM      8  C   UNK A   1       0.465  10.160  18.771  0.00  0.00    +0.000 A 
ATOM      9  C   UNK A   1       1.128   9.540  17.715  0.00  0.00    +0.000 A 
ATOM     10  C   UNK A   1       1.951   8.414  17.938  0.00  0.00    +0.000 A 
ATOM     11  C   UNK A   1       2.120   7.870  19.218  0.00  0.00    +0.000 A 
BRANCH   6  13
ATOM     12  C   UNK A   1       1.070   9.092  22.513  0.00  0.00    +0.000 C 
ATOM     13  O   UNK A   1       1.543   8.116  21.585  0.00  0.00    +0.000 OA
ENDBRANCH   6  13
ENDBRANCH   2  11
ENDBRANCH   1   3
BRANCH   1  14
ATOM     14  C   UNK A   1       4.033   3.814  18.614  0.00  0.00    +0.000 C 
BRANCH  14  15
ATOM     15  N   UNK A   1       5.511   3.642  18.341  0.00  0.00    +0.000 NA
ATOM     16  H   UNK A   1       5.724   2.643  18.402  0.00  0.00    +0.000 HD
BRANCH  15  17
ATOM     17  C   UNK A   0       6.126   4.155  17.094  0.00  0.00    +0.000 C 
ATOM     18  C   UNK A   0       5.400   5.249  16.280  0.00  0.00    +0.000 C 
ATOM     19  C   UNK A   0       5.385   6.656  16.894  0.00  0.00    +0.000 C 
ATOM     20  C   UNK A   0       6.731   7.126  17.438  0.00  0.00    +0.000 C 
ATOM     21  C   UNK A   0       7.456   6.044  18.228  0.00  0.00    +0.000 C 
ATOM     22  C   UNK A   0       7.528   4.730  17.443  0.00  0.00    +0.000 C 
ENDBRANCH  15  17
ENDBRANCH  14  15
BRANCH  14  23
ATOM     23  C   UNK A   1       3.323   2.550  18.095  0.00  0.00    +0.000 C 
ATOM     24  O   UNK A   1       3.555   1.407  18.418  0.00  0.00    +0.000 OA
BRANCH  23  25
ATOM     25  O   UNK A   1       2.381   2.901  17.171  0.00  0.00    +0.000 OA
ATOM     26  H   UNK A   1       2.446   2.247  16.433  0.00  0.00    +0.000 HD
ENDBRANCH  23  25
ENDBRANCH  14  23
ENDBRANCH   1  14
TORSDOF 8
ENDMDL
MODEL 6
REMARK VINA RESULT:      -6.9      0.867      1.566
REMARK  Name = 
REMARK  9 active torsions:
REMARK  status: ('A' for Active; 'I' for Inactive)
REMARK    1  A    between atoms: C_1  and  O_2
REMARK    2  A    between atoms: O_2  and  C_3
REMARK    3  A    between atoms: C_8  and  N_9
REMARK    4  A    between atoms: C_10  and  C_12
REMARK    5  A    between atoms: C_12  and  C_13
REMARK    6  A    between atoms: C_13  and  N_14
REMARK    7  A    between atoms: C_13  and  C_21
REMARK    8  A    between atoms: N_14  and  C_15
REMARK    9  A    between atoms: C_21  and  O_23
REMARK                            x       y       z     vdW  Elec       q    Type
REMARK                         _______ _______ _______ _____ _____    ______ ____
ROOT
ATOM      1  C   UNK A   1       3.039   4.298  20.652  0.00  0.00    +0.000 C 
ENDROOT
BRANCH   1   3
ATOM      2  N   UNK A   1       2.608   6.646  19.946  0.00  0.00    +0.000 N 
ATOM      3  C   UNK A   1       2.019   5.451  20.375  0.00  0.00    +0.000 C 
ATOM      4  O   UNK A   1       0.810   5.248  20.443  0.00  0.00    +0.000 OA
ATOM      5  H   UNK A   1       3.615   6.707  19.991  0.00  0.00    +0.000 HD
BRANCH   2  11
ATOM      6  C   UNK A   1       1.346   8.686  20.532  0.00  0.00    +0.000 A 
ATOM      7  C   UNK A   1       0.614   9.836  20.180  0.00  0.00    +0.000 A 
ATOM      8  C   UNK A   1       0.520  10.232  18.849  0.00  0.00    +0.000 A 
ATOM      9  C   UNK A   1       1.175   9.480  17.878  0.00  0.00    +0.000 A 
ATOM     10  C   UNK A   1       1.901   8.321  18.227  0.00  0.00    +0.000 A 
ATOM     11  C   UNK A   1       1.978   7.873  19.553  0.00  0.00    +0.000 A 
BRANCH   6  13
ATOM     12  C   UNK A   1       0.294   9.032  22.580  0.00  0.00    +0.000 C 
ATOM     13  O   UNK A   1       1.328   8.357  21.864  0.00  0.00    +0.000 OA
ENDBRANCH   6  13
ENDBRANCH   2  11
ENDBRANCH   1   3
BRANCH   1  14
ATOM     14  C   UNK A   1       3.460   3.525  19.371  0.00  0.00    +0.000 C 
BRANCH  14  15
ATOM     15  N   UNK A   1       4.120   4.201  18.190  0.00  0.00    +0.000 NA
ATOM     16  H   UNK A   1       3.380   4.610  17.613  0.00  0.00    +0.000 HD
BRANCH  15  17
ATOM     17  C   UNK A   0       5.162   5.237  18.381  0.00  0.00    +0.000 C 
ATOM     18  C   UNK A   0       6.653   4.839  18.318  0.00  0.00    +0.000 C 
ATOM     19  C   UNK A   0       7.206   4.490  16.929  0.00  0.00    +0.000 C 
ATOM     20  C   UNK A   0       6.812   5.466  15.825  0.00  0.00    +0.000 C 
ATOM     21  C   UNK A   0       5.345   5.873  15.894  0.00  0.00    +0.000 C 
ATOM     22  C   UNK A   0       4.958   6.338  17.302  0.00  0.00    +0.000 C 
ENDBRANCH  15  17
ENDBRANCH  14  15
BRANCH  14  23
ATOM     23  C   UNK A   1       4.259   2.242  19.667  0.00  0.00    +0.000 C 
ATOM     24  O   UNK A   1       4.990   2.049  20.612  0.00  0.00    +0.000 OA
BRANCH  23  25
ATOM     25  O   UNK A   1       4.045   1.330  18.674  0.00  0.00    +0.000 OA
ATOM     26  H   UNK A   1       4.548   0.516  18.919  0.00  0.00    +0.000 HD
ENDBRANCH  23  25
ENDBRANCH  14  23
ENDBRANCH   1  14
TORSDOF 8
ENDMDL
MODEL 7
REMARK VINA RESULT:      -6.9      2.338      4.234
REMARK  Name = 
REMARK  9 active torsions:
REMARK  status: ('A' for Active; 'I' for Inactive)
REMARK    1  A    between atoms: C_1  and  O_2
REMARK    2  A    between atoms: O_2  and  C_3
REMARK    3  A    between atoms: C_8  and  N_9
REMARK    4  A    between atoms: C_10  and  C_12
REMARK    5  A    between atoms: C_12  and  C_13
REMARK    6  A    between atoms: C_13  and  N_14
REMARK    7  A    between atoms: C_13  and  C_21
REMARK    8  A    between atoms: N_14  and  C_15
REMARK    9  A    between atoms: C_21  and  O_23
REMARK                            x       y       z     vdW  Elec       q    Type
REMARK                         _______ _______ _______ _____ _____    ______ ____
ROOT
ATOM      1  C   UNK A   1       4.262   5.509  18.836  0.00  0.00    +0.000 C 
ENDROOT
BRANCH   1   3
ATOM      2  N   UNK A   1       2.736   7.134  19.944  0.00  0.00    +0.000 N 
ATOM      3  C   UNK A   1       2.880   6.240  18.877  0.00  0.00    +0.000 C 
ATOM      4  O   UNK A   1       2.064   6.087  17.973  0.00  0.00    +0.000 OA
ATOM      5  H   UNK A   1       3.452   7.123  20.655  0.00  0.00    +0.000 HD
BRANCH   2  11
ATOM      6  C   UNK A   1       1.350   9.103  19.400  0.00  0.00    +0.000 A 
ATOM      7  C   UNK A   1       0.359  10.051  19.723  0.00  0.00    +0.000 A 
ATOM      8  C   UNK A   1      -0.400   9.910  20.881  0.00  0.00    +0.000 A 
ATOM      9  C   UNK A   1      -0.171   8.811  21.703  0.00  0.00    +0.000 A 
ATOM     10  C   UNK A   1       0.829   7.866  21.388  0.00  0.00    +0.000 A 
ATOM     11  C   UNK A   1       1.637   8.003  20.252  0.00  0.00    +0.000 A 
BRANCH   6  13
ATOM     12  C   UNK A   1       2.115  10.760  17.954  0.00  0.00    +0.000 C 
ATOM     13  O   UNK A   1       2.075   9.368  18.265  0.00  0.00    +0.000 OA
ENDBRANCH   6  13
ENDBRANCH   2  11
ENDBRANCH   1   3
BRANCH   1  14
ATOM     14  C   UNK A   1       4.265   4.243  17.933  0.00  0.00    +0.000 C 
BRANCH  14  15
ATOM     15  N   UNK A   1       3.007   3.466  17.613  0.00  0.00    +0.000 NA
ATOM     16  H   UNK A   1       3.038   3.222  16.619  0.00  0.00    +0.000 HD
BRANCH  15  17
ATOM     17  C   UNK A   0       2.649   2.241  18.364  0.00  0.00    +0.000 C 
ATOM     18  C   UNK A   0       3.356   1.933  19.703  0.00  0.00    +0.000 C 
ATOM     19  C   UNK A   0       2.969   2.819  20.895  0.00  0.00    +0.000 C 
ATOM     20  C   UNK A   0       1.469   3.042  21.061  0.00  0.00    +0.000 C 
ATOM     21  C   UNK A   0       0.767   3.330  19.741  0.00  0.00    +0.000 C 
ATOM     22  C   UNK A   0       1.126   2.288  18.676  0.00  0.00    +0.000 C 
ENDBRANCH  15  17
ENDBRANCH  14  15
BRANCH  14  23
ATOM     23  C   UNK A   1       5.031   4.438  16.612  0.00  0.00    +0.000 C 
ATOM     24  O   UNK A   1       5.043   5.434  15.924  0.00  0.00    +0.000 OA
BRANCH  23  25
ATOM     25  O   UNK A   1       5.697   3.289  16.295  0.00  0.00    +0.000 OA
ATOM     26  H   UNK A   1       5.553   2.659  17.042  0.00  0.00    +0.000 HD
ENDBRANCH  23  25
ENDBRANCH  14  23
ENDBRANCH   1  14
TORSDOF 8
ENDMDL
MODEL 8
REMARK VINA RESULT:      -6.9      2.072      4.085
REMARK  Name = 
REMARK  9 active torsions:
REMARK  status: ('A' for Active; 'I' for Inactive)
REMARK    1  A    between atoms: C_1  and  O_2
REMARK    2  A    between atoms: O_2  and  C_3
REMARK    3  A    between atoms: C_8  and  N_9
REMARK    4  A    between atoms: C_10  and  C_12
REMARK    5  A    between atoms: C_12  and  C_13
REMARK    6  A    between atoms: C_13  and  N_14
REMARK    7  A    between atoms: C_13  and  C_21
REMARK    8  A    between atoms: N_14  and  C_15
REMARK    9  A    between atoms: C_21  and  O_23
REMARK                            x       y       z     vdW  Elec       q    Type
REMARK                         _______ _______ _______ _____ _____    ______ ____
ROOT
ATOM      1  C   UNK A   1       4.053   5.701  17.760  0.00  0.00    +0.000 C 
ENDROOT
BRANCH   1   3
ATOM      2  N   UNK A   1       2.789   7.292  19.199  0.00  0.00    +0.000 N 
ATOM      3  C   UNK A   1       2.680   6.270  18.248  0.00  0.00    +0.000 C 
ATOM      4  O   UNK A   1       1.629   5.892  17.739  0.00  0.00    +0.000 OA
ATOM      5  H   UNK A   1       3.705   7.468  19.585  0.00  0.00    +0.000 HD
BRANCH   2  11
ATOM      6  C   UNK A   1       1.289   9.252  19.179  0.00  0.00    +0.000 A 
ATOM      7  C   UNK A   1       0.358  10.109  19.798  0.00  0.00    +0.000 A 
ATOM      8  C   UNK A   1      -0.170   9.792  21.047  0.00  0.00    +0.000 A 
ATOM      9  C   UNK A   1       0.228   8.609  21.662  0.00  0.00    +0.000 A 
ATOM     10  C   UNK A   1       1.170   7.755  21.049  0.00  0.00    +0.000 A 
ATOM     11  C   UNK A   1       1.750   8.068  19.812  0.00  0.00    +0.000 A 
BRANCH   6  13
ATOM     12  C   UNK A   1       2.138  11.070  17.997  0.00  0.00    +0.000 C 
ATOM     13  O   UNK A   1       1.784   9.687  17.975  0.00  0.00    +0.000 OA
ENDBRANCH   6  13
ENDBRANCH   2  11
ENDBRANCH   1   3
BRANCH   1  14
ATOM     14  C   UNK A   1       4.611   4.568  18.667  0.00  0.00    +0.000 C 
BRANCH  14  15
ATOM     15  N   UNK A   1       4.339   3.104  18.402  0.00  0.00    +0.000 NA
ATOM     16  H   UNK A   1       5.228   2.665  18.144  0.00  0.00    +0.000 HD
BRANCH  15  17
ATOM     17  C   UNK A   0       3.697   2.245  19.424  0.00  0.00    +0.000 C 
ATOM     18  C   UNK A   0       3.295   2.851  20.786  0.00  0.00    +0.000 C 
ATOM     19  C   UNK A   0       2.090   3.803  20.778  0.00  0.00    +0.000 C 
ATOM     20  C   UNK A   0       0.889   3.301  19.982  0.00  0.00    +0.000 C 
ATOM     21  C   UNK A   0       1.284   2.687  18.644  0.00  0.00    +0.000 C 
ATOM     22  C   UNK A   0       2.398   1.648  18.812  0.00  0.00    +0.000 C 
ENDBRANCH  15  17
ENDBRANCH  14  15
BRANCH  14  23
ATOM     23  C   UNK A   1       6.115   4.708  18.962  0.00  0.00    +0.000 C 
ATOM     24  O   UNK A   1       6.618   5.343  19.861  0.00  0.00    +0.000 OA
BRANCH  23  25
ATOM     25  O   UNK A   1       6.832   4.018  18.027  0.00  0.00    +0.000 OA
ATOM     26  H   UNK A   1       6.868   3.079  18.329  0.00  0.00    +0.000 HD
ENDBRANCH  23  25
ENDBRANCH  14  23
ENDBRANCH   1  14
TORSDOF 8
ENDMDL
MODEL 9
REMARK VINA RESULT:      -6.8      3.762      7.050
REMARK  Name = 
REMARK  9 active torsions:
REMARK  status: ('A' for Active; 'I' for Inactive)
REMARK    1  A    between atoms: C_1  and  O_2
REMARK    2  A    between atoms: O_2  and  C_3
REMARK    3  A    between atoms: C_8  and  N_9
REMARK    4  A    between atoms: C_10  and  C_12
REMARK    5  A    between atoms: C_12  and  C_13
REMARK    6  A    between atoms: C_13  and  N_14
REMARK    7  A    between atoms: C_13  and  C_21
REMARK    8  A    between atoms: N_14  and  C_15
REMARK    9  A    between atoms: C_21  and  O_23
REMARK                            x       y       z     vdW  Elec       q    Type
REMARK                         _______ _______ _______ _____ _____    ______ ____
ROOT
ATOM      1  C   UNK A   1       5.887   6.864  17.728  0.00  0.00    +0.000 C 
ENDROOT
BRANCH   1   3
ATOM      2  N   UNK A   1       6.316   5.317  15.825  0.00  0.00    +0.000 N 
ATOM      3  C   UNK A   1       5.666   6.491  16.225  0.00  0.00    +0.000 C 
ATOM      4  O   UNK A   1       4.900   7.145  15.524  0.00  0.00    +0.000 OA
ATOM      5  H   UNK A   1       6.968   4.904  16.476  0.00  0.00    +0.000 HD
BRANCH   2  11
ATOM      6  C   UNK A   1       7.311   4.910  13.603  0.00  0.00    +0.000 A 
ATOM      7  C   UNK A   1       7.262   4.380  12.299  0.00  0.00    +0.000 A 
ATOM      8  C   UNK A   1       6.211   3.553  11.914  0.00  0.00    +0.000 A 
ATOM      9  C   UNK A   1       5.221   3.249  12.844  0.00  0.00    +0.000 A 
ATOM     10  C   UNK A   1       5.263   3.788  14.148  0.00  0.00    +0.000 A 
ATOM     11  C   UNK A   1       6.285   4.657  14.552  0.00  0.00    +0.000 A 
BRANCH   6  13
ATOM     12  C   UNK A   1       9.109   6.070  12.684  0.00  0.00    +0.000 C 
ATOM     13  O   UNK A   1       8.362   5.755  13.859  0.00  0.00    +0.000 OA
ENDBRANCH   6  13
ENDBRANCH   2  11
ENDBRANCH   1   3
BRANCH   1  14
ATOM     14  C   UNK A   1       5.922   5.630  18.673  0.00  0.00    +0.000 C 
BRANCH  14  15
ATOM     15  N   UNK A   1       5.036   4.421  18.469  0.00  0.00    +0.000 NA
ATOM     16  H   UNK A   1       5.645   3.613  18.316  0.00  0.00    +0.000 HD
BRANCH  15  17
ATOM     17  C   UNK A   0       4.023   4.033  19.478  0.00  0.00    +0.000 C 
ATOM     18  C   UNK A   0       2.561   4.506  19.311  0.00  0.00    +0.000 C 
ATOM     19  C   UNK A   0       1.754   3.836  18.190  0.00  0.00    +0.000 C 
ATOM     20  C   UNK A   0       1.890   2.318  18.130  0.00  0.00    +0.000 C 
ATOM     21  C   UNK A   0       3.328   1.848  18.310  0.00  0.00    +0.000 C 
ATOM     22  C   UNK A   0       3.973   2.481  19.547  0.00  0.00    +0.000 C 
ENDBRANCH  15  17
ENDBRANCH  14  15
BRANCH  14  23
ATOM     23  C   UNK A   1       7.346   5.112  18.947  0.00  0.00    +0.000 C 
ATOM     24  O   UNK A   1       8.030   4.451  18.199  0.00  0.00    +0.000 OA
BRANCH  23  25
ATOM     25  O   UNK A   1       7.737   5.489  20.200  0.00  0.00    +0.000 OA
ATOM     26  H   UNK A   1       8.259   6.321  20.099  0.00  0.00    +0.000 HD
ENDBRANCH  23  25
ENDBRANCH  14  23
ENDBRANCH   1  14
TORSDOF 8
ENDMDL
