MODEL 1
REMARK VINA RESULT:      -8.2      0.000      0.000
REMARK  Name = 
REMARK  9 active torsions:
REMARK  status: ('A' for Active; 'I' for Inactive)
REMARK    1  A    between atoms: C_1  and  C_2
REMARK    2  A    between atoms: C_8  and  C_9
REMARK    3  A    between atoms: C_9  and  C_10
REMARK    4  A    between atoms: C_10  and  C_11
REMARK    5  A    between atoms: N_13  and  CA_14
REMARK    6  A    between atoms: CA_14  and  C_15
REMARK    7  A    between atoms: CA_14  and  CB_17
REMARK    8  A    between atoms: C_15  and  O_16
REMARK    9  A    between atoms: CB_17  and  CG_18
REMARK                            x       y       z     vdW  Elec       q    Type
REMARK                         _______ _______ _______ _____ _____    ______ ____
ROOT
ATOM      1  C   UNK A   0       5.783   4.616  19.051  0.00  0.00    +0.000 C 
ATOM      2  O   UNK A   0       5.343   5.312  19.960  0.00  0.00    +0.000 OA
ATOM      3  N   PHE A   1       5.037   3.636  18.443  0.00  0.00    +0.000 N 
ATOM      4  H   PHE A   1       5.449   3.133  17.667  0.00  0.00    +0.000 HD
ENDROOT
BRANCH   1   5
ATOM      5  C   UNK A   0       7.167   4.792  18.464  0.00  0.00    +0.000 C 
BRANCH   5   6
ATOM      6  C   UNK A   0       7.171   5.874  17.391  0.00  0.00    +0.000 C 
BRANCH   6  14
ATOM      7  C   UNK A   0       5.678   2.079  11.388  0.00  0.00    +0.000 C 
ATOM      8  C   UNK A   0       6.287   3.150  12.251  0.00  0.00    +0.000 A 
ATOM      9  C   UNK A   0       7.068   4.118  11.730  0.00  0.00    +0.000 A 
ATOM     10  C   UNK A   0       7.653   5.165  12.618  0.00  0.00    +0.000 A 
ATOM     11  O   UNK A   0       8.374   6.068  12.215  0.00  0.00    +0.000 OA
ATOM     12  N   UNK A   0       7.302   5.028  13.964  0.00  0.00    +0.000 N 
ATOM     13  N   UNK A   0       7.697   5.855  14.967  0.00  0.00    +0.000 NA
ATOM     14  C   UNK A   0       7.079   5.304  16.021  0.00  0.00    +0.000 A 
ATOM     15  N   UNK A   0       6.350   4.169  15.754  0.00  0.00    +0.000 NA
ATOM     16  C   UNK A   0       6.499   4.026  14.463  0.00  0.00    +0.000 A 
ATOM     17  N   UNK A   0       6.012   3.103  13.607  0.00  0.00    +0.000 N 
ATOM     18  H   UNK A   0       5.408   2.363  13.955  0.00  0.00    +0.000 HD
ENDBRANCH   6  14
ENDBRANCH   5   6
ENDBRANCH   1   5
BRANCH   3  19
ATOM     19  CA  PHE A   1       3.672   3.243  18.840  0.00  0.00    +0.000 C 
BRANCH  19  20
ATOM     20  C   PHE A   1       3.427   1.735  18.609  0.00  0.00    +0.000 C 
BRANCH  20  21
ATOM     21  O   PHE A   1       2.069   1.417  18.325  0.00  0.00    +0.000 OA
ATOM     22  H   PHE A   1       2.052   0.861  17.513  0.00  0.00    +0.000 HD
ENDBRANCH  20  21
ENDBRANCH  19  20
BRANCH  19  23
ATOM     23  CB  PHE A   1       2.539   4.081  18.199  0.00  0.00    +0.000 C 
BRANCH  23  24
ATOM     24  CG  PHE A   1       2.304   5.425  18.848  0.00  0.00    +0.000 A 
ATOM     25  CD1 PHE A   1       1.829   5.487  20.166  0.00  0.00    +0.000 A 
ATOM     26  CE1 PHE A   1       1.588   6.716  20.778  0.00  0.00    +0.000 A 
ATOM     27  CZ  PHE A   1       1.839   7.897  20.085  0.00  0.00    +0.000 A 
ATOM     28  CE2 PHE A   1       2.334   7.849  18.783  0.00  0.00    +0.000 A 
ATOM     29  CD2 PHE A   1       2.565   6.618  18.163  0.00  0.00    +0.000 A 
ENDBRANCH  23  24
ENDBRANCH  19  23
ENDBRANCH   3  19
TORSDOF 8
ENDMDL
MODEL 2
REMARK VINA RESULT:      -7.7      1.844      3.053
REMARK  Name = 
REMARK  9 active torsions:
REMARK  status: ('A' for Active; 'I' for Inactive)
REMARK    1  A    between atoms: C_1  and  C_2
REMARK    2  A    between atoms: C_8  and  C_9
REMARK    3  A    between atoms: C_9  and  C_10
REMARK    4  A    between atoms: C_10  and  C_11
REMARK    5  A    between atoms: N_13  and  CA_14
REMARK    6  A    between atoms: CA_14  and  C_15
REMARK    7  A    between atoms: CA_14  and  CB_17
REMARK    8  A    between atoms: C_15  and  O_16
REMARK    9  A    between atoms: CB_17  and  CG_18
REMARK                            x       y       z     vdW  Elec       q    Type
REMARK                         _______ _______ _______ _____ _____    ______ ____
ROOT
ATOM      1  C   UNK A   0       5.009   6.869  17.387  0.00  0.00    +0.000 C 
ATOM      2  O   UNK A   0       4.585   7.033  16.247  0.00  0.00    +0.000 OA
ATOM      3  N   PHE A   1       4.183   6.595  18.450  0.00  0.00    +0.000 N 
ATOM      4  H   PHE A   1       4.608   6.423  19.353  0.00  0.00    +0.000 HD
ENDROOT
BRANCH   1   5
ATOM      5  C   UNK A   0       6.481   6.894  17.739  0.00  0.00    +0.000 C 
BRANCH   5   6
ATOM      6  C   UNK A   0       7.108   5.516  17.561  0.00  0.00    +0.000 C 
BRANCH   6  14
ATOM      7  C   UNK A   0       5.563   2.133  11.330  0.00  0.00    +0.000 C 
ATOM      8  C   UNK A   0       6.189   3.136  12.259  0.00  0.00    +0.000 A 
ATOM      9  C   UNK A   0       6.990   4.120  11.801  0.00  0.00    +0.000 A 
ATOM     10  C   UNK A   0       7.592   5.098  12.755  0.00  0.00    +0.000 A 
ATOM     11  O   UNK A   0       8.331   6.010  12.411  0.00  0.00    +0.000 OA
ATOM     12  N   UNK A   0       7.234   4.884  14.088  0.00  0.00    +0.000 N 
ATOM     13  N   UNK A   0       7.641   5.639  15.143  0.00  0.00    +0.000 NA
ATOM     14  C   UNK A   0       7.010   5.034  16.159  0.00  0.00    +0.000 A 
ATOM     15  N   UNK A   0       6.260   3.932  15.819  0.00  0.00    +0.000 NA
ATOM     16  C   UNK A   0       6.411   3.867  14.522  0.00  0.00    +0.000 A 
ATOM     17  N   UNK A   0       5.910   3.009  13.609  0.00  0.00    +0.000 N 
ATOM     18  H   UNK A   0       5.290   2.261  13.909  0.00  0.00    +0.000 HD
ENDBRANCH   6  14
ENDBRANCH   5   6
ENDBRANCH   1   5
BRANCH   3  19
ATOM     19  CA  PHE A   1       2.712   6.541  18.386  0.00  0.00    +0.000 C 
BRANCH  19  20
ATOM     20  C   PHE A   1       2.066   7.158  19.647  0.00  0.00    +0.000 C 
BRANCH  20  21
ATOM     21  O   PHE A   1       1.711   8.528  19.493  0.00  0.00    +0.000 OA
ATOM     22  H   PHE A   1       0.838   8.665  19.925  0.00  0.00    +0.000 HD
ENDBRANCH  20  21
ENDBRANCH  19  20
BRANCH  19  23
ATOM     23  CB  PHE A   1       2.120   5.139  18.106  0.00  0.00    +0.000 C 
BRANCH  23  24
ATOM     24  CG  PHE A   1       2.167   4.188  19.280  0.00  0.00    +0.000 A 
ATOM     25  CD1 PHE A   1       3.378   3.576  19.630  0.00  0.00    +0.000 A 
ATOM     26  CE1 PHE A   1       3.441   2.683  20.698  0.00  0.00    +0.000 A 
ATOM     27  CZ  PHE A   1       2.296   2.406  21.440  0.00  0.00    +0.000 A 
ATOM     28  CE2 PHE A   1       1.090   3.027  21.116  0.00  0.00    +0.000 A 
ATOM     29  CD2 PHE A   1       1.023   3.914  20.038  0.00  0.00    +0.000 A 
ENDBRANCH  23  24
ENDBRANCH  19  23
ENDBRANCH   3  19
TORSDOF 8
ENDMDL
MODEL 3
REMARK VINA RESULT:      -7.7      6.083      8.148
REMARK  Name = 
REMARK  9 active torsions:
REMARK  status: ('A' for Active; 'I' for Inactive)
REMARK    1  A    between atoms: C_1  and  C_2
REMARK    2  A    between atoms: C_8  and  C_9
REMARK    3  A    between atoms: C_9  and  C_10
REMARK    4  A    between atoms: C_10  and  C_11
REMARK    5  A    between atoms: N_13  and  CA_14
REMARK    6  A    between atoms: CA_14  and  C_15
REMARK    7  A    between atoms: CA_14  and  CB_17
REMARK    8  A    between atoms: C_15  and  O_16
REMARK    9  A    between atoms: CB_17  and  CG_18
REMARK                            x       y       z     vdW  Elec       q    Type
REMARK                         _______ _______ _______ _____ _____    ______ ____
ROOT
ATOM      1  C   UNK A   0       7.873   7.743  17.987  0.00  0.00    +0.000 C 
ATOM      2  O   UNK A   0       8.248   6.966  18.859  0.00  0.00    +0.000 OA
ATOM      3  N   PHE A   1       6.937   7.398  17.042  0.00  0.00    +0.000 N 
ATOM      4  H   PHE A   1       6.639   8.106  16.383  0.00  0.00    +0.000 HD
ENDROOT
BRANCH   1   5
ATOM      5  C   UNK A   0       8.350   9.176  17.889  0.00  0.00    +0.000 C 
BRANCH   5   6
ATOM      6  C   UNK A   0       8.968   9.638  19.203  0.00  0.00    +0.000 C 
BRANCH   6  14
ATOM      7  C   UNK A   0      12.333  16.000  20.129  0.00  0.00    +0.000 C 
ATOM      8  C   UNK A   0      11.759  14.814  19.405  0.00  0.00    +0.000 A 
ATOM      9  C   UNK A   0      11.872  14.680  18.068  0.00  0.00    +0.000 A 
ATOM     10  C   UNK A   0      11.290  13.487  17.385  0.00  0.00    +0.000 A 
ATOM     11  O   UNK A   0      11.349  13.304  16.176  0.00  0.00    +0.000 OA
ATOM     12  N   UNK A   0      10.667  12.585  18.252  0.00  0.00    +0.000 N 
ATOM     13  N   UNK A   0      10.070  11.422  17.879  0.00  0.00    +0.000 NA
ATOM     14  C   UNK A   0       9.665  10.943  19.064  0.00  0.00    +0.000 A 
ATOM     15  N   UNK A   0       9.938  11.741  20.150  0.00  0.00    +0.000 NA
ATOM     16  C   UNK A   0      10.570  12.753  19.616  0.00  0.00    +0.000 A 
ATOM     17  N   UNK A   0      11.107  13.860  20.169  0.00  0.00    +0.000 N 
ATOM     18  H   UNK A   0      11.058  13.995  21.175  0.00  0.00    +0.000 HD
ENDBRANCH   6  14
ENDBRANCH   5   6
ENDBRANCH   1   5
BRANCH   3  19
ATOM     19  CA  PHE A   1       6.334   6.060  16.899  0.00  0.00    +0.000 C 
BRANCH  19  20
ATOM     20  C   PHE A   1       7.232   5.119  16.066  0.00  0.00    +0.000 C 
BRANCH  20  21
ATOM     21  O   PHE A   1       7.821   4.072  16.828  0.00  0.00    +0.000 OA
ATOM     22  H   PHE A   1       7.271   3.937  17.632  0.00  0.00    +0.000 HD
ENDBRANCH  20  21
ENDBRANCH  19  20
BRANCH  19  23
ATOM     23  CB  PHE A   1       4.886   6.052  16.352  0.00  0.00    +0.000 C 
BRANCH  23  24
ATOM     24  CG  PHE A   1       3.891   5.306  17.211  0.00  0.00    +0.000 A 
ATOM     25  CD1 PHE A   1       3.694   3.932  17.013  0.00  0.00    +0.000 A 
ATOM     26  CE1 PHE A   1       2.769   3.228  17.781  0.00  0.00    +0.000 A 
ATOM     27  CZ  PHE A   1       2.045   3.887  18.771  0.00  0.00    +0.000 A 
ATOM     28  CE2 PHE A   1       2.248   5.248  18.995  0.00  0.00    +0.000 A 
ATOM     29  CD2 PHE A   1       3.166   5.958  18.217  0.00  0.00    +0.000 A 
ENDBRANCH  23  24
ENDBRANCH  19  23
ENDBRANCH   3  19
TORSDOF 8
ENDMDL
MODEL 4
REMARK VINA RESULT:      -7.7      5.680      8.131
REMARK  Name = 
REMARK  9 active torsions:
REMARK  status: ('A' for Active; 'I' for Inactive)
REMARK    1  A    between atoms: C_1  and  C_2
REMARK    2  A    between atoms: C_8  and  C_9
REMARK    3  A    between atoms: C_9  and  C_10
REMARK    4  A    between atoms: C_10  and  C_11
REMARK    5  A    between atoms: N_13  and  CA_14
REMARK    6  A    between atoms: CA_14  and  C_15
REMARK    7  A    between atoms: CA_14  and  CB_17
REMARK    8  A    between atoms: C_15  and  O_16
REMARK    9  A    between atoms: CB_17  and  CG_18
REMARK                            x       y       z     vdW  Elec       q    Type
REMARK                         _______ _______ _______ _____ _____    ______ ____
ROOT
ATOM      1  C   UNK A   0       7.580   7.233  17.778  0.00  0.00    +0.000 C 
ATOM      2  O   UNK A   0       7.902   6.515  18.719  0.00  0.00    +0.000 OA
ATOM      3  N   PHE A   1       6.810   6.782  16.733  0.00  0.00    +0.000 N 
ATOM      4  H   PHE A   1       6.543   7.444  16.015  0.00  0.00    +0.000 HD
ENDROOT
BRANCH   1   5
ATOM      5  C   UNK A   0       7.942   8.700  17.690  0.00  0.00    +0.000 C 
BRANCH   5   6
ATOM      6  C   UNK A   0       8.903   9.094  18.805  0.00  0.00    +0.000 C 
BRANCH   6  14
ATOM      7  C   UNK A   0       9.298  16.255  17.700  0.00  0.00    +0.000 C 
ATOM      8  C   UNK A   0       9.362  14.949  18.442  0.00  0.00    +0.000 A 
ATOM      9  C   UNK A   0       9.639  14.898  19.760  0.00  0.00    +0.000 A 
ATOM     10  C   UNK A   0       9.692  13.582  20.463  0.00  0.00    +0.000 A 
ATOM     11  O   UNK A   0       9.944  13.461  21.654  0.00  0.00    +0.000 OA
ATOM     12  N   UNK A   0       9.426  12.487  19.636  0.00  0.00    +0.000 N 
ATOM     13  N   UNK A   0       9.406  11.188  20.035  0.00  0.00    +0.000 NA
ATOM     14  C   UNK A   0       9.086  10.566  18.891  0.00  0.00    +0.000 A 
ATOM     15  N   UNK A   0       8.937  11.383  17.795  0.00  0.00    +0.000 NA
ATOM     16  C   UNK A   0       9.146  12.575  18.290  0.00  0.00    +0.000 A 
ATOM     17  N   UNK A   0       9.125  13.795  17.714  0.00  0.00    +0.000 N 
ATOM     18  H   UNK A   0       8.907  13.881  16.725  0.00  0.00    +0.000 HD
ENDBRANCH   6  14
ENDBRANCH   5   6
ENDBRANCH   1   5
BRANCH   3  19
ATOM     19  CA  PHE A   1       6.348   5.393  16.562  0.00  0.00    +0.000 C 
BRANCH  19  20
ATOM     20  C   PHE A   1       6.984   4.732  15.319  0.00  0.00    +0.000 C 
BRANCH  20  21
ATOM     21  O   PHE A   1       7.877   5.587  14.614  0.00  0.00    +0.000 OA
ATOM     22  H   PHE A   1       7.627   6.517  14.813  0.00  0.00    +0.000 HD
ENDBRANCH  20  21
ENDBRANCH  19  20
BRANCH  19  23
ATOM     23  CB  PHE A   1       4.810   5.214  16.544  0.00  0.00    +0.000 C 
BRANCH  23  24
ATOM     24  CG  PHE A   1       4.287   4.156  17.487  0.00  0.00    +0.000 A 
ATOM     25  CD1 PHE A   1       3.182   3.378  17.116  0.00  0.00    +0.000 A 
ATOM     26  CE1 PHE A   1       2.672   2.410  17.979  0.00  0.00    +0.000 A 
ATOM     27  CZ  PHE A   1       3.274   2.195  19.215  0.00  0.00    +0.000 A 
ATOM     28  CE2 PHE A   1       4.389   2.945  19.586  0.00  0.00    +0.000 A 
ATOM     29  CD2 PHE A   1       4.895   3.925  18.728  0.00  0.00    +0.000 A 
ENDBRANCH  23  24
ENDBRANCH  19  23
ENDBRANCH   3  19
TORSDOF 8
ENDMDL
MODEL 5
REMARK VINA RESULT:      -7.5      1.205      1.805
REMARK  Name = 
REMARK  9 active torsions:
REMARK  status: ('A' for Active; 'I' for Inactive)
REMARK    1  A    between atoms: C_1  and  C_2
REMARK    2  A    between atoms: C_8  and  C_9
REMARK    3  A    between atoms: C_9  and  C_10
REMARK    4  A    between atoms: C_10  and  C_11
REMARK    5  A    between atoms: N_13  and  CA_14
REMARK    6  A    between atoms: CA_14  and  C_15
REMARK    7  A    between atoms: CA_14  and  CB_17
REMARK    8  A    between atoms: C_15  and  O_16
REMARK    9  A    between atoms: CB_17  and  CG_18
REMARK                            x       y       z     vdW  Elec       q    Type
REMARK                         _______ _______ _______ _____ _____    ______ ____
ROOT
ATOM      1  C   UNK A   0       5.324   4.362  19.293  0.00  0.00    +0.000 C 
ATOM      2  O   UNK A   0       5.271   3.244  19.793  0.00  0.00    +0.000 OA
ATOM      3  N   PHE A   1       4.212   5.156  19.137  0.00  0.00    +0.000 N 
ATOM      4  H   PHE A   1       4.339   6.087  18.761  0.00  0.00    +0.000 HD
ENDROOT
BRANCH   1   5
ATOM      5  C   UNK A   0       6.615   5.014  18.848  0.00  0.00    +0.000 C 
BRANCH   5   6
ATOM      6  C   UNK A   0       6.358   6.047  17.757  0.00  0.00    +0.000 C 
BRANCH   6  14
ATOM      7  C   UNK A   0       5.566   2.420  11.521  0.00  0.00    +0.000 C 
ATOM      8  C   UNK A   0       6.159   3.380  12.515  0.00  0.00    +0.000 A 
ATOM      9  C   UNK A   0       7.212   4.161  12.202  0.00  0.00    +0.000 A 
ATOM     10  C   UNK A   0       7.772   5.103  13.215  0.00  0.00    +0.000 A 
ATOM     11  O   UNK A   0       8.729   5.835  13.002  0.00  0.00    +0.000 OA
ATOM     12  N   UNK A   0       7.102   5.080  14.442  0.00  0.00    +0.000 N 
ATOM     13  N   UNK A   0       7.411   5.847  15.520  0.00  0.00    +0.000 NA
ATOM     14  C   UNK A   0       6.472   5.460  16.396  0.00  0.00    +0.000 A 
ATOM     15  N   UNK A   0       5.616   4.481  15.952  0.00  0.00    +0.000 NA
ATOM     16  C   UNK A   0       6.026   4.269  14.729  0.00  0.00    +0.000 A 
ATOM     17  N   UNK A   0       5.577   3.431  13.771  0.00  0.00    +0.000 N 
ATOM     18  H   UNK A   0       4.776   2.834  13.960  0.00  0.00    +0.000 HD
ENDBRANCH   6  14
ENDBRANCH   5   6
ENDBRANCH   1   5
BRANCH   3  19
ATOM     19  CA  PHE A   1       2.833   4.752  19.463  0.00  0.00    +0.000 C 
BRANCH  19  20
ATOM     20  C   PHE A   1       2.059   4.306  18.202  0.00  0.00    +0.000 C 
BRANCH  20  21
ATOM     21  O   PHE A   1       2.898   3.805  17.167  0.00  0.00    +0.000 OA
ATOM     22  H   PHE A   1       3.001   4.514  16.492  0.00  0.00    +0.000 HD
ENDBRANCH  20  21
ENDBRANCH  19  20
BRANCH  19  23
ATOM     23  CB  PHE A   1       2.016   5.800  20.257  0.00  0.00    +0.000 C 
BRANCH  23  24
ATOM     24  CG  PHE A   1       1.922   7.157  19.599  0.00  0.00    +0.000 A 
ATOM     25  CD1 PHE A   1       2.382   7.327  18.286  0.00  0.00    +0.000 A 
ATOM     26  CE1 PHE A   1       2.321   8.573  17.667  0.00  0.00    +0.000 A 
ATOM     27  CZ  PHE A   1       1.781   9.661  18.347  0.00  0.00    +0.000 A 
ATOM     28  CE2 PHE A   1       1.297   9.500  19.645  0.00  0.00    +0.000 A 
ATOM     29  CD2 PHE A   1       1.369   8.254  20.272  0.00  0.00    +0.000 A 
ENDBRANCH  23  24
ENDBRANCH  19  23
ENDBRANCH   3  19
TORSDOF 8
ENDMDL
MODEL 6
REMARK VINA RESULT:      -7.4      6.026      8.151
REMARK  Name = 
REMARK  9 active torsions:
REMARK  status: ('A' for Active; 'I' for Inactive)
REMARK    1  A    between atoms: C_1  and  C_2
REMARK    2  A    between atoms: C_8  and  C_9
REMARK    3  A    between atoms: C_9  and  C_10
REMARK    4  A    between atoms: C_10  and  C_11
REMARK    5  A    between atoms: N_13  and  CA_14
REMARK    6  A    between atoms: CA_14  and  C_15
REMARK    7  A    between atoms: CA_14  and  CB_17
REMARK    8  A    between atoms: C_15  and  O_16
REMARK    9  A    between atoms: CB_17  and  CG_18
REMARK                            x       y       z     vdW  Elec       q    Type
REMARK                         _______ _______ _______ _____ _____    ______ ____
ROOT
ATOM      1  C   UNK A   0       7.843   7.644  17.916  0.00  0.00    +0.000 C 
ATOM      2  O   UNK A   0       8.274   6.894  18.785  0.00  0.00    +0.000 OA
ATOM      3  N   PHE A   1       7.088   7.195  16.859  0.00  0.00    +0.000 N 
ATOM      4  H   PHE A   1       6.726   7.878  16.206  0.00  0.00    +0.000 HD
ENDROOT
BRANCH   1   5
ATOM      5  C   UNK A   0       8.043   9.144  17.938  0.00  0.00    +0.000 C 
BRANCH   5   6
ATOM      6  C   UNK A   0       9.029   9.548  19.028  0.00  0.00    +0.000 C 
BRANCH   6  14
ATOM      7  C   UNK A   0      10.807  16.235  16.840  0.00  0.00    +0.000 C 
ATOM      8  C   UNK A   0      10.548  15.096  17.786  0.00  0.00    +0.000 A 
ATOM      9  C   UNK A   0      10.643  15.252  19.122  0.00  0.00    +0.000 A 
ATOM     10  C   UNK A   0      10.376  14.097  20.030  0.00  0.00    +0.000 A 
ATOM     11  O   UNK A   0      10.451  14.165  21.250  0.00  0.00    +0.000 OA
ATOM     12  N   UNK A   0      10.029  12.920  19.363  0.00  0.00    +0.000 N 
ATOM     13  N   UNK A   0       9.731  11.736  19.961  0.00  0.00    +0.000 NA
ATOM     14  C   UNK A   0       9.454  10.967  18.899  0.00  0.00    +0.000 A 
ATOM     15  N   UNK A   0       9.589  11.577  17.674  0.00  0.00    +0.000 NA
ATOM     16  C   UNK A   0       9.940  12.795  17.994  0.00  0.00    +0.000 A 
ATOM     17  N   UNK A   0      10.205  13.875  17.229  0.00  0.00    +0.000 N 
ATOM     18  H   UNK A   0      10.132  13.806  16.218  0.00  0.00    +0.000 HD
ENDBRANCH   6  14
ENDBRANCH   5   6
ENDBRANCH   1   5
BRANCH   3  19
ATOM     19  CA  PHE A   1       6.771   5.781  16.588  0.00  0.00    +0.000 C 
BRANCH  19  20
ATOM     20  C   PHE A   1       5.853   5.633  15.354  0.00  0.00    +0.000 C 
BRANCH  20  21
ATOM     21  O   PHE A   1       5.190   6.838  14.989  0.00  0.00    +0.000 OA
ATOM     22  H   PHE A   1       4.760   7.203  15.795  0.00  0.00    +0.000 HD
ENDBRANCH  20  21
ENDBRANCH  19  20
BRANCH  19  23
ATOM     23  CB  PHE A   1       6.191   4.999  17.791  0.00  0.00    +0.000 C 
BRANCH  23  24
ATOM     24  CG  PHE A   1       4.683   4.916  17.822  0.00  0.00    +0.000 A 
ATOM     25  CD1 PHE A   1       4.045   3.728  17.438  0.00  0.00    +0.000 A 
ATOM     26  CE1 PHE A   1       2.654   3.635  17.441  0.00  0.00    +0.000 A 
ATOM     27  CZ  PHE A   1       1.887   4.723  17.848  0.00  0.00    +0.000 A 
ATOM     28  CE2 PHE A   1       2.510   5.902  18.255  0.00  0.00    +0.000 A 
ATOM     29  CD2 PHE A   1       3.903   6.001  18.240  0.00  0.00    +0.000 A 
ENDBRANCH  23  24
ENDBRANCH  19  23
ENDBRANCH   3  19
TORSDOF 8
ENDMDL
MODEL 7
REMARK VINA RESULT:      -7.3      5.181      7.349
REMARK  Name = 
REMARK  9 active torsions:
REMARK  status: ('A' for Active; 'I' for Inactive)
REMARK    1  A    between atoms: C_1  and  C_2
REMARK    2  A    between atoms: C_8  and  C_9
REMARK    3  A    between atoms: C_9  and  C_10
REMARK    4  A    between atoms: C_10  and  C_11
REMARK    5  A    between atoms: N_13  and  CA_14
REMARK    6  A    between atoms: CA_14  and  C_15
REMARK    7  A    between atoms: CA_14  and  CB_17
REMARK    8  A    between atoms: C_15  and  O_16
REMARK    9  A    between atoms: CB_17  and  CG_18
REMARK                            x       y       z     vdW  Elec       q    Type
REMARK                         _______ _______ _______ _____ _____    ______ ____
ROOT
ATOM      1  C   UNK A   0       7.749   6.261  18.478  0.00  0.00    +0.000 C 
ATOM      2  O   UNK A   0       7.890   5.264  19.178  0.00  0.00    +0.000 OA
ATOM      3  N   PHE A   1       6.920   6.283  17.382  0.00  0.00    +0.000 N 
ATOM      4  H   PHE A   1       6.816   7.155  16.879  0.00  0.00    +0.000 HD
ENDROOT
BRANCH   1   5
ATOM      5  C   UNK A   0       8.420   7.586  18.771  0.00  0.00    +0.000 C 
BRANCH   5   6
ATOM      6  C   UNK A   0       7.913   8.674  17.831  0.00  0.00    +0.000 C 
BRANCH   6  14
ATOM      7  C   UNK A   0       9.902  15.646  18.136  0.00  0.00    +0.000 C 
ATOM      8  C   UNK A   0       9.872  14.184  18.485  0.00  0.00    +0.000 A 
ATOM      9  C   UNK A   0      10.620  13.681  19.488  0.00  0.00    +0.000 A 
ATOM     10  C   UNK A   0      10.562  12.223  19.806  0.00  0.00    +0.000 A 
ATOM     11  O   UNK A   0      11.217  11.699  20.696  0.00  0.00    +0.000 OA
ATOM     12  N   UNK A   0       9.684  11.501  18.993  0.00  0.00    +0.000 N 
ATOM     13  N   UNK A   0       9.446  10.165  19.086  0.00  0.00    +0.000 NA
ATOM     14  C   UNK A   0       8.535   9.993  18.118  0.00  0.00    +0.000 A 
ATOM     15  N   UNK A   0       8.208  11.121  17.403  0.00  0.00    +0.000 NA
ATOM     16  C   UNK A   0       8.933  12.047  17.976  0.00  0.00    +0.000 A 
ATOM     17  N   UNK A   0       9.041  13.370  17.733  0.00  0.00    +0.000 N 
ATOM     18  H   UNK A   0       8.485  13.794  16.995  0.00  0.00    +0.000 HD
ENDBRANCH   6  14
ENDBRANCH   5   6
ENDBRANCH   1   5
BRANCH   3  19
ATOM     19  CA  PHE A   1       6.173   5.123  16.864  0.00  0.00    +0.000 C 
BRANCH  19  20
ATOM     20  C   PHE A   1       6.859   4.515  15.620  0.00  0.00    +0.000 C 
BRANCH  20  21
ATOM     21  O   PHE A   1       7.638   5.452  14.884  0.00  0.00    +0.000 OA
ATOM     22  H   PHE A   1       7.203   5.587  14.012  0.00  0.00    +0.000 HD
ENDBRANCH  20  21
ENDBRANCH  19  20
BRANCH  19  23
ATOM     23  CB  PHE A   1       4.674   5.385  16.580  0.00  0.00    +0.000 C 
BRANCH  23  24
ATOM     24  CG  PHE A   1       3.833   5.630  17.812  0.00  0.00    +0.000 A 
ATOM     25  CD1 PHE A   1       3.242   6.885  18.012  0.00  0.00    +0.000 A 
ATOM     26  CE1 PHE A   1       2.477   7.137  19.149  0.00  0.00    +0.000 A 
ATOM     27  CZ  PHE A   1       2.278   6.131  20.090  0.00  0.00    +0.000 A 
ATOM     28  CE2 PHE A   1       2.840   4.870  19.890  0.00  0.00    +0.000 A 
ATOM     29  CD2 PHE A   1       3.618   4.619  18.757  0.00  0.00    +0.000 A 
ENDBRANCH  23  24
ENDBRANCH  19  23
ENDBRANCH   3  19
TORSDOF 8
ENDMDL
MODEL 8
REMARK VINA RESULT:      -7.3      5.215      7.778
REMARK  Name = 
REMARK  9 active torsions:
REMARK  status: ('A' for Active; 'I' for Inactive)
REMARK    1  A    between atoms: C_1  and  C_2
REMARK    2  A    between atoms: C_8  and  C_9
REMARK    3  A    between atoms: C_9  and  C_10
REMARK    4  A    between atoms: C_10  and  C_11
REMARK    5  A    between atoms: N_13  and  CA_14
REMARK    6  A    between atoms: CA_14  and  C_15
REMARK    7  A    between atoms: CA_14  and  CB_17
REMARK    8  A    between atoms: C_15  and  O_16
REMARK    9  A    between atoms: CB_17  and  CG_18
REMARK                            x       y       z     vdW  Elec       q    Type
REMARK                         _______ _______ _______ _____ _____    ______ ____
ROOT
ATOM      1  C   UNK A   0       7.383   6.432  18.420  0.00  0.00    +0.000 C 
ATOM      2  O   UNK A   0       6.886   5.725  19.291  0.00  0.00    +0.000 OA
ATOM      3  N   PHE A   1       7.002   6.358  17.102  0.00  0.00    +0.000 N 
ATOM      4  H   PHE A   1       7.421   7.006  16.447  0.00  0.00    +0.000 HD
ENDROOT
BRANCH   1   5
ATOM      5  C   UNK A   0       8.421   7.496  18.704  0.00  0.00    +0.000 C 
BRANCH   5   6
ATOM      6  C   UNK A   0       8.125   8.770  17.922  0.00  0.00    +0.000 C 
BRANCH   6  14
ATOM      7  C   UNK A   0      12.160  14.711  18.963  0.00  0.00    +0.000 C 
ATOM      8  C   UNK A   0      11.261  13.554  19.301  0.00  0.00    +0.000 A 
ATOM      9  C   UNK A   0      10.798  13.361  20.553  0.00  0.00    +0.000 A 
ATOM     10  C   UNK A   0       9.906  12.201  20.849  0.00  0.00    +0.000 A 
ATOM     11  O   UNK A   0       9.456  11.961  21.961  0.00  0.00    +0.000 OA
ATOM     12  N   UNK A   0       9.623  11.404  19.736  0.00  0.00    +0.000 N 
ATOM     13  N   UNK A   0       8.832  10.299  19.742  0.00  0.00    +0.000 NA
ATOM     14  C   UNK A   0       8.877   9.938  18.451  0.00  0.00    +0.000 A 
ATOM     15  N   UNK A   0       9.668  10.720  17.644  0.00  0.00    +0.000 NA
ATOM     16  C   UNK A   0      10.113  11.632  18.469  0.00  0.00    +0.000 A 
ATOM     17  N   UNK A   0      10.925  12.691  18.271  0.00  0.00    +0.000 N 
ATOM     18  H   UNK A   0      11.285  12.883  17.340  0.00  0.00    +0.000 HD
ENDBRANCH   6  14
ENDBRANCH   5   6
ENDBRANCH   1   5
BRANCH   3  19
ATOM     19  CA  PHE A   1       6.033   5.392  16.555  0.00  0.00    +0.000 C 
BRANCH  19  20
ATOM     20  C   PHE A   1       6.286   5.122  15.055  0.00  0.00    +0.000 C 
BRANCH  20  21
ATOM     21  O   PHE A   1       7.633   5.344  14.656  0.00  0.00    +0.000 OA
ATOM     22  H   PHE A   1       7.622   5.935  13.869  0.00  0.00    +0.000 HD
ENDBRANCH  20  21
ENDBRANCH  19  20
BRANCH  19  23
ATOM     23  CB  PHE A   1       4.546   5.750  16.797  0.00  0.00    +0.000 C 
BRANCH  23  24
ATOM     24  CG  PHE A   1       3.704   4.617  17.336  0.00  0.00    +0.000 A 
ATOM     25  CD1 PHE A   1       4.266   3.340  17.479  0.00  0.00    +0.000 A 
ATOM     26  CE1 PHE A   1       3.502   2.277  17.957  0.00  0.00    +0.000 A 
ATOM     27  CZ  PHE A   1       2.173   2.483  18.316  0.00  0.00    +0.000 A 
ATOM     28  CE2 PHE A   1       1.610   3.753  18.201  0.00  0.00    +0.000 A 
ATOM     29  CD2 PHE A   1       2.370   4.818  17.711  0.00  0.00    +0.000 A 
ENDBRANCH  23  24
ENDBRANCH  19  23
ENDBRANCH   3  19
TORSDOF 8
ENDMDL
MODEL 9
REMARK VINA RESULT:      -7.2      5.983      7.935
REMARK  Name = 
REMARK  9 active torsions:
REMARK  status: ('A' for Active; 'I' for Inactive)
REMARK    1  A    between atoms: C_1  and  C_2
REMARK    2  A    between atoms: C_8  and  C_9
REMARK    3  A    between atoms: C_9  and  C_10
REMARK    4  A    between atoms: C_10  and  C_11
REMARK    5  A    between atoms: N_13  and  CA_14
REMARK    6  A    between atoms: CA_14  and  C_15
REMARK    7  A    between atoms: CA_14  and  CB_17
REMARK    8  A    between atoms: C_15  and  O_16
REMARK    9  A    between atoms: CB_17  and  CG_18
REMARK                            x       y       z     vdW  Elec       q    Type
REMARK                         _______ _______ _______ _____ _____    ______ ____
ROOT
ATOM      1  C   UNK A   0       7.869   7.731  17.732  0.00  0.00    +0.000 C 
ATOM      2  O   UNK A   0       8.120   7.078  18.739  0.00  0.00    +0.000 OA
ATOM      3  N   PHE A   1       6.926   7.338  16.812  0.00  0.00    +0.000 N 
ATOM      4  H   PHE A   1       6.738   7.952  16.030  0.00  0.00    +0.000 HD
ENDROOT
BRANCH   1   5
ATOM      5  C   UNK A   0       8.521   9.060  17.419  0.00  0.00    +0.000 C 
BRANCH   5   6
ATOM      6  C   UNK A   0       8.829   9.832  18.696  0.00  0.00    +0.000 C 
BRANCH   6  14
ATOM      7  C   UNK A   0      10.161  16.959  18.384  0.00  0.00    +0.000 C 
ATOM      8  C   UNK A   0      10.325  15.492  18.099  0.00  0.00    +0.000 A 
ATOM      9  C   UNK A   0      11.324  15.031  17.320  0.00  0.00    +0.000 A 
ATOM     10  C   UNK A   0      11.456  13.566  17.061  0.00  0.00    +0.000 A 
ATOM     11  O   UNK A   0      12.332  13.079  16.360  0.00  0.00    +0.000 OA
ATOM     12  N   UNK A   0      10.484  12.789  17.697  0.00  0.00    +0.000 N 
ATOM     13  N   UNK A   0      10.391  11.434  17.627  0.00  0.00    +0.000 NA
ATOM     14  C   UNK A   0       9.330  11.203  18.414  0.00  0.00    +0.000 A 
ATOM     15  N   UNK A   0       8.731  12.320  18.945  0.00  0.00    +0.000 NA
ATOM     16  C   UNK A   0       9.476  13.293  18.489  0.00  0.00    +0.000 A 
ATOM     17  N   UNK A   0       9.406  14.628  18.672  0.00  0.00    +0.000 N 
ATOM     18  H   UNK A   0       8.678  15.018  19.264  0.00  0.00    +0.000 HD
ENDBRANCH   6  14
ENDBRANCH   5   6
ENDBRANCH   1   5
BRANCH   3  19
ATOM     19  CA  PHE A   1       6.168   6.075  16.865  0.00  0.00    +0.000 C 
BRANCH  19  20
ATOM     20  C   PHE A   1       6.846   4.971  16.025  0.00  0.00    +0.000 C 
BRANCH  20  21
ATOM     21  O   PHE A   1       7.639   5.474  14.956  0.00  0.00    +0.000 OA
ATOM     22  H   PHE A   1       7.822   4.731  14.338  0.00  0.00    +0.000 HD
ENDBRANCH  20  21
ENDBRANCH  19  20
BRANCH  19  23
ATOM     23  CB  PHE A   1       4.670   6.197  16.493  0.00  0.00    +0.000 C 
BRANCH  23  24
ATOM     24  CG  PHE A   1       3.714   5.719  17.560  0.00  0.00    +0.000 A 
ATOM     25  CD1 PHE A   1       3.189   6.633  18.484  0.00  0.00    +0.000 A 
ATOM     26  CE1 PHE A   1       2.320   6.211  19.487  0.00  0.00    +0.000 A 
ATOM     27  CZ  PHE A   1       1.949   4.872  19.567  0.00  0.00    +0.000 A 
ATOM     28  CE2 PHE A   1       2.445   3.956  18.640  0.00  0.00    +0.000 A 
ATOM     29  CD2 PHE A   1       3.327   4.375  17.640  0.00  0.00    +0.000 A 
ENDBRANCH  23  24
ENDBRANCH  19  23
ENDBRANCH   3  19
TORSDOF 8
ENDMDL
