MODEL 1
REMARK VINA RESULT:      -8.4      0.000      0.000
REMARK  Name = 
REMARK  7 active torsions:
REMARK  status: ('A' for Active; 'I' for Inactive)
REMARK    1  A    between atoms: C_1  and  C_2
REMARK    2  A    between atoms: C_2  and  N_3
REMARK    3  A    between atoms: N_8  and  C_9
REMARK    4  A    between atoms: C_9  and  C_10
REMARK    5  A    between atoms: C_14  and  C_15
REMARK    6  A    between atoms: C_16  and  C_17
REMARK    7  A    between atoms: N_19  and  O_20
REMARK                            x       y       z     vdW  Elec       q    Type
REMARK                         _______ _______ _______ _____ _____    ______ ____
ROOT
ATOM      1  N   UNL     1      -3.775  11.100  17.085  0.00  0.00    +0.000 N 
ATOM      2  C   UNL     1      -3.280  10.299  16.091  0.00  0.00    +0.000 A 
ATOM      3  N   UNL     1      -2.053   9.901  16.347  0.00  0.00    +0.000 NA
ATOM      4  C   UNL     1      -1.736  10.496  17.553  0.00  0.00    +0.000 A 
ATOM      5  C   UNL     1      -0.562  10.510  18.323  0.00  0.00    +0.000 A 
ATOM      6  N   UNL     1       0.578   9.852  17.886  0.00  0.00    +0.000 N 
ATOM      7  N   UNL     1      -0.588  11.219  19.487  0.00  0.00    +0.000 NA
ATOM      8  C   UNL     1      -1.708  11.880  19.886  0.00  0.00    +0.000 A 
ATOM      9  N   UNL     1      -1.677  12.539  21.098  0.00  0.00    +0.000 N 
ATOM     10  C   UNL     1      -2.842  13.247  21.612  0.00  0.00    +0.000 C 
ATOM     11  C   UNL     1      -2.530  14.739  21.730  0.00  0.00    +0.000 C 
ATOM     12  C   UNL     1      -1.249  14.979  22.530  0.00  0.00    +0.000 C 
ATOM     13  C   UNL     1      -0.085  14.171  21.958  0.00  0.00    +0.000 C 
ATOM     14  C   UNL     1      -0.435  12.686  21.839  0.00  0.00    +0.000 C 
ATOM     15  N   UNL     1      -2.855  11.922  19.180  0.00  0.00    +0.000 NA
ATOM     16  C   UNL     1      -2.802  11.229  18.038  0.00  0.00    +0.000 A 
ATOM     17  H   UNL     1       0.389   9.089  17.244  0.00  0.00    +0.000 HD
ENDROOT
BRANCH   1  19
ATOM     18  C   UNL     1      -6.030  11.120  18.080  0.00  0.00    +0.000 C 
ATOM     19  C   UNL     1      -5.070  11.743  17.082  0.00  0.00    +0.000 C 
ENDBRANCH   1  19
BRANCH   6  20
ATOM     20  C   UNL     1       1.750   9.777  18.726  0.00  0.00    +0.000 C 
BRANCH  20  21
ATOM     21  C   UNL     1       2.227   8.339  18.835  0.00  0.00    +0.000 A 
ATOM     22  C   UNL     1       1.845   7.532  19.920  0.00  0.00    +0.000 A 
ATOM     23  C   UNL     1       2.248   6.198  19.988  0.00  0.00    +0.000 A 
ATOM     24  C   UNL     1       3.040   5.649  18.977  0.00  0.00    +0.000 A 
ATOM     25  C   UNL     1       3.453   6.430  17.891  0.00  0.00    +0.000 A 
ATOM     26  C   UNL     1       3.026   7.770  17.826  0.00  0.00    +0.000 A 
BRANCH  25  27
ATOM     27  C   UNL     1       4.268   5.810  16.832  0.00  0.00    +0.000 C 
ATOM     28  C   UNL     1       5.611   5.809  16.836  0.00  0.00    +0.000 C 
BRANCH  28  29
ATOM     29  C   UNL     1       6.378   5.174  15.739  0.00  0.00    +0.000 C 
ATOM     30  O   UNL     1       7.498   5.529  15.391  0.00  0.00    +0.000 OA
ATOM     31  N   UNL     1       5.708   4.133  15.149  0.00  0.00    +0.000 N 
ATOM     32  H   UNL     1       4.787   3.800  15.406  0.00  0.00    +0.000 HD
BRANCH  31  33
ATOM     33  O   UNL     1       6.365   3.453  14.103  0.00  0.00    +0.000 OA
ATOM     34  H   UNL     1       5.611   3.095  13.583  0.00  0.00    +0.000 HD
ENDBRANCH  31  33
ENDBRANCH  28  29
ENDBRANCH  25  27
ENDBRANCH  20  21
ENDBRANCH   6  20
TORSDOF 6
ENDMDL
MODEL 2
REMARK VINA RESULT:      -8.2      1.838      4.327
REMARK  Name = 
REMARK  7 active torsions:
REMARK  status: ('A' for Active; 'I' for Inactive)
REMARK    1  A    between atoms: C_1  and  C_2
REMARK    2  A    between atoms: C_2  and  N_3
REMARK    3  A    between atoms: N_8  and  C_9
REMARK    4  A    between atoms: C_9  and  C_10
REMARK    5  A    between atoms: C_14  and  C_15
REMARK    6  A    between atoms: C_16  and  C_17
REMARK    7  A    between atoms: N_19  and  O_20
REMARK                            x       y       z     vdW  Elec       q    Type
REMARK                         _______ _______ _______ _____ _____    ______ ____
ROOT
ATOM      1  N   UNL     1      -0.627  10.494  22.745  0.00  0.00    +0.000 N 
ATOM      2  C   UNL     1       0.373   9.779  23.348  0.00  0.00    +0.000 A 
ATOM      3  N   UNL     1       1.135   9.165  22.469  0.00  0.00    +0.000 NA
ATOM      4  C   UNL     1       0.583   9.483  21.243  0.00  0.00    +0.000 A 
ATOM      5  C   UNL     1       0.899   9.093  19.932  0.00  0.00    +0.000 A 
ATOM      6  N   UNL     1       1.934   8.202  19.689  0.00  0.00    +0.000 N 
ATOM      7  N   UNL     1       0.129   9.599  18.928  0.00  0.00    +0.000 NA
ATOM      8  C   UNL     1      -0.900  10.452  19.189  0.00  0.00    +0.000 A 
ATOM      9  N   UNL     1      -1.607  10.961  18.120  0.00  0.00    +0.000 N 
ATOM     10  C   UNL     1      -2.704  11.901  18.309  0.00  0.00    +0.000 C 
ATOM     11  C   UNL     1      -4.010  11.279  17.815  0.00  0.00    +0.000 C 
ATOM     12  C   UNL     1      -3.874  10.758  16.384  0.00  0.00    +0.000 C 
ATOM     13  C   UNL     1      -2.678   9.815  16.255  0.00  0.00    +0.000 C 
ATOM     14  C   UNL     1      -1.391  10.462  16.771  0.00  0.00    +0.000 C 
ATOM     15  N   UNL     1      -1.264  10.843  20.425  0.00  0.00    +0.000 NA
ATOM     16  C   UNL     1      -0.501  10.326  21.393  0.00  0.00    +0.000 A 
ATOM     17  H   UNL     1       2.641   8.188  20.418  0.00  0.00    +0.000 HD
ENDROOT
BRANCH   1  19
ATOM     18  C   UNL     1      -1.569  12.729  23.182  0.00  0.00    +0.000 C 
ATOM     19  C   UNL     1      -1.664  11.234  23.429  0.00  0.00    +0.000 C 
ENDBRANCH   1  19
BRANCH   6  20
ATOM     20  C   UNL     1       2.327   7.884  18.337  0.00  0.00    +0.000 C 
BRANCH  20  21
ATOM     21  C   UNL     1       3.169   6.620  18.319  0.00  0.00    +0.000 A 
ATOM     22  C   UNL     1       3.302   5.824  19.469  0.00  0.00    +0.000 A 
ATOM     23  C   UNL     1       4.038   4.638  19.430  0.00  0.00    +0.000 A 
ATOM     24  C   UNL     1       4.653   4.230  18.245  0.00  0.00    +0.000 A 
ATOM     25  C   UNL     1       4.555   5.008  17.086  0.00  0.00    +0.000 A 
ATOM     26  C   UNL     1       3.796   6.193  17.134  0.00  0.00    +0.000 A 
BRANCH  25  27
ATOM     27  C   UNL     1       5.199   4.533  15.848  0.00  0.00    +0.000 C 
ATOM     28  C   UNL     1       6.140   5.227  15.190  0.00  0.00    +0.000 C 
BRANCH  28  29
ATOM     29  C   UNL     1       6.748   4.701  13.945  0.00  0.00    +0.000 C 
ATOM     30  O   UNL     1       7.653   5.258  13.335  0.00  0.00    +0.000 OA
ATOM     31  N   UNL     1       6.197   3.511  13.542  0.00  0.00    +0.000 N 
ATOM     32  H   UNL     1       5.455   3.011  14.015  0.00  0.00    +0.000 HD
BRANCH  31  33
ATOM     33  O   UNL     1       6.721   2.921  12.374  0.00  0.00    +0.000 OA
ATOM     34  H   UNL     1       6.763   3.685  11.756  0.00  0.00    +0.000 HD
ENDBRANCH  31  33
ENDBRANCH  28  29
ENDBRANCH  25  27
ENDBRANCH  20  21
ENDBRANCH   6  20
TORSDOF 6
ENDMDL
MODEL 3
REMARK VINA RESULT:      -8.0      1.504      1.711
REMARK  Name = 
REMARK  7 active torsions:
REMARK  status: ('A' for Active; 'I' for Inactive)
REMARK    1  A    between atoms: C_1  and  C_2
REMARK    2  A    between atoms: C_2  and  N_3
REMARK    3  A    between atoms: N_8  and  C_9
REMARK    4  A    between atoms: C_9  and  C_10
REMARK    5  A    between atoms: C_14  and  C_15
REMARK    6  A    between atoms: C_16  and  C_17
REMARK    7  A    between atoms: N_19  and  O_20
REMARK                            x       y       z     vdW  Elec       q    Type
REMARK                         _______ _______ _______ _____ _____    ______ ____
ROOT
ATOM      1  N   UNL     1      -3.307  11.246  18.153  0.00  0.00    +0.000 N 
ATOM      2  C   UNL     1      -3.319  10.074  17.445  0.00  0.00    +0.000 A 
ATOM      3  N   UNL     1      -2.118   9.549  17.344  0.00  0.00    +0.000 NA
ATOM      4  C   UNL     1      -1.289  10.441  17.998  0.00  0.00    +0.000 A 
ATOM      5  C   UNL     1       0.101  10.478  18.186  0.00  0.00    +0.000 A 
ATOM      6  N   UNL     1       0.916   9.497  17.641  0.00  0.00    +0.000 N 
ATOM      7  N   UNL     1       0.606  11.530  18.892  0.00  0.00    +0.000 NA
ATOM      8  C   UNL     1      -0.207  12.497  19.397  0.00  0.00    +0.000 A 
ATOM      9  N   UNL     1       0.369  13.506  20.141  0.00  0.00    +0.000 N 
ATOM     10  C   UNL     1      -0.433  14.564  20.740  0.00  0.00    +0.000 C 
ATOM     11  C   UNL     1      -0.044  15.914  20.136  0.00  0.00    +0.000 C 
ATOM     12  C   UNL     1       1.465  16.149  20.219  0.00  0.00    +0.000 C 
ATOM     13  C   UNL     1       2.237  14.979  19.610  0.00  0.00    +0.000 C 
ATOM     14  C   UNL     1       1.815  13.644  20.226  0.00  0.00    +0.000 C 
ATOM     15  N   UNL     1      -1.543  12.526  19.230  0.00  0.00    +0.000 NA
ATOM     16  C   UNL     1      -2.014  11.492  18.526  0.00  0.00    +0.000 A 
ATOM     17  H   UNL     1       0.440   8.616  17.476  0.00  0.00    +0.000 HD
ENDROOT
BRANCH   1  19
ATOM     18  C   UNL     1      -5.532  11.926  17.343  0.00  0.00    +0.000 C 
ATOM     19  C   UNL     1      -4.451  12.096  18.396  0.00  0.00    +0.000 C 
ENDBRANCH   1  19
BRANCH   6  20
ATOM     20  C   UNL     1       2.332   9.478  17.922  0.00  0.00    +0.000 C 
BRANCH  20  21
ATOM     21  C   UNL     1       2.801   8.053  18.160  0.00  0.00    +0.000 A 
ATOM     22  C   UNL     1       2.204   7.252  19.148  0.00  0.00    +0.000 A 
ATOM     23  C   UNL     1       2.608   5.928  19.327  0.00  0.00    +0.000 A 
ATOM     24  C   UNL     1       3.614   5.384  18.525  0.00  0.00    +0.000 A 
ATOM     25  C   UNL     1       4.241   6.161  17.543  0.00  0.00    +0.000 A 
ATOM     26  C   UNL     1       3.813   7.489  17.361  0.00  0.00    +0.000 A 
BRANCH  25  27
ATOM     27  C   UNL     1       5.282   5.545  16.701  0.00  0.00    +0.000 C 
ATOM     28  C   UNL     1       5.237   5.530  15.359  0.00  0.00    +0.000 C 
BRANCH  28  29
ATOM     29  C   UNL     1       6.311   4.890  14.565  0.00  0.00    +0.000 C 
ATOM     30  O   UNL     1       7.497   5.184  14.652  0.00  0.00    +0.000 OA
ATOM     31  N   UNL     1       5.843   3.918  13.718  0.00  0.00    +0.000 N 
ATOM     32  H   UNL     1       4.876   3.636  13.616  0.00  0.00    +0.000 HD
BRANCH  31  33
ATOM     33  O   UNL     1       6.794   3.237  12.930  0.00  0.00    +0.000 OA
ATOM     34  H   UNL     1       7.517   3.071  13.574  0.00  0.00    +0.000 HD
ENDBRANCH  31  33
ENDBRANCH  28  29
ENDBRANCH  25  27
ENDBRANCH  20  21
ENDBRANCH   6  20
TORSDOF 6
ENDMDL
MODEL 4
REMARK VINA RESULT:      -8.0      1.382      1.768
REMARK  Name = 
REMARK  7 active torsions:
REMARK  status: ('A' for Active; 'I' for Inactive)
REMARK    1  A    between atoms: C_1  and  C_2
REMARK    2  A    between atoms: C_2  and  N_3
REMARK    3  A    between atoms: N_8  and  C_9
REMARK    4  A    between atoms: C_9  and  C_10
REMARK    5  A    between atoms: C_14  and  C_15
REMARK    6  A    between atoms: C_16  and  C_17
REMARK    7  A    between atoms: N_19  and  O_20
REMARK                            x       y       z     vdW  Elec       q    Type
REMARK                         _______ _______ _______ _____ _____    ______ ____
ROOT
ATOM      1  N   UNL     1      -4.576  11.510  17.707  0.00  0.00    +0.000 N 
ATOM      2  C   UNL     1      -4.125  10.868  16.584  0.00  0.00    +0.000 A 
ATOM      3  N   UNL     1      -2.839  10.605  16.652  0.00  0.00    +0.000 NA
ATOM      4  C   UNL     1      -2.439  11.125  17.869  0.00  0.00    +0.000 A 
ATOM      5  C   UNL     1      -1.184  11.216  18.493  0.00  0.00    +0.000 A 
ATOM      6  N   UNL     1      -0.043  10.747  17.860  0.00  0.00    +0.000 N 
ATOM      7  N   UNL     1      -1.141  11.811  19.719  0.00  0.00    +0.000 NA
ATOM      8  C   UNL     1      -2.268  12.289  20.313  0.00  0.00    +0.000 A 
ATOM      9  N   UNL     1      -2.155  12.835  21.574  0.00  0.00    +0.000 N 
ATOM     10  C   UNL     1      -3.317  13.344  22.292  0.00  0.00    +0.000 C 
ATOM     11  C   UNL     1      -3.162  14.847  22.527  0.00  0.00    +0.000 C 
ATOM     12  C   UNL     1      -1.824  15.173  23.192  0.00  0.00    +0.000 C 
ATOM     13  C   UNL     1      -0.660  14.570  22.407  0.00  0.00    +0.000 C 
ATOM     14  C   UNL     1      -0.852  13.070  22.177  0.00  0.00    +0.000 C 
ATOM     15  N   UNL     1      -3.492  12.250  19.754  0.00  0.00    +0.000 NA
ATOM     16  C   UNL     1      -3.509  11.673  18.548  0.00  0.00    +0.000 A 
ATOM     17  H   UNL     1      -0.226  10.026  17.169  0.00  0.00    +0.000 HD
ENDROOT
BRANCH   1  19
ATOM     18  C   UNL     1      -6.278  13.155  17.023  0.00  0.00    +0.000 C 
ATOM     19  C   UNL     1      -5.925  11.984  17.922  0.00  0.00    +0.000 C 
ENDBRANCH   1  19
BRANCH   6  20
ATOM     20  C   UNL     1       1.228  10.745  18.544  0.00  0.00    +0.000 C 
BRANCH  20  21
ATOM     21  C   UNL     1       1.516   9.366  19.112  0.00  0.00    +0.000 A 
ATOM     22  C   UNL     1       1.088   9.012  20.403  0.00  0.00    +0.000 A 
ATOM     23  C   UNL     1       1.314   7.728  20.899  0.00  0.00    +0.000 A 
ATOM     24  C   UNL     1       1.972   6.777  20.116  0.00  0.00    +0.000 A 
ATOM     25  C   UNL     1       2.427   7.101  18.833  0.00  0.00    +0.000 A 
ATOM     26  C   UNL     1       2.178   8.395  18.338  0.00  0.00    +0.000 A 
BRANCH  25  27
ATOM     27  C   UNL     1       3.097   6.064  18.028  0.00  0.00    +0.000 C 
ATOM     28  C   UNL     1       3.312   4.812  18.462  0.00  0.00    +0.000 C 
BRANCH  28  29
ATOM     29  C   UNL     1       3.998   3.813  17.609  0.00  0.00    +0.000 C 
ATOM     30  O   UNL     1       3.624   2.655  17.474  0.00  0.00    +0.000 OA
ATOM     31  N   UNL     1       5.100   4.322  16.971  0.00  0.00    +0.000 N 
ATOM     32  H   UNL     1       5.443   5.271  17.045  0.00  0.00    +0.000 HD
BRANCH  31  33
ATOM     33  O   UNL     1       5.812   3.450  16.122  0.00  0.00    +0.000 OA
ATOM     34  H   UNL     1       5.616   2.571  16.515  0.00  0.00    +0.000 HD
ENDBRANCH  31  33
ENDBRANCH  28  29
ENDBRANCH  25  27
ENDBRANCH  20  21
ENDBRANCH   6  20
TORSDOF 6
ENDMDL
MODEL 5
REMARK VINA RESULT:      -8.0      1.371      1.779
REMARK  Name = 
REMARK  7 active torsions:
REMARK  status: ('A' for Active; 'I' for Inactive)
REMARK    1  A    between atoms: C_1  and  C_2
REMARK    2  A    between atoms: C_2  and  N_3
REMARK    3  A    between atoms: N_8  and  C_9
REMARK    4  A    between atoms: C_9  and  C_10
REMARK    5  A    between atoms: C_14  and  C_15
REMARK    6  A    between atoms: C_16  and  C_17
REMARK    7  A    between atoms: N_19  and  O_20
REMARK                            x       y       z     vdW  Elec       q    Type
REMARK                         _______ _______ _______ _____ _____    ______ ____
ROOT
ATOM      1  N   UNL     1      -5.013  11.800  18.049  0.00  0.00    +0.000 N 
ATOM      2  C   UNL     1      -4.532  11.343  16.851  0.00  0.00    +0.000 A 
ATOM      3  N   UNL     1      -3.226  11.197  16.871  0.00  0.00    +0.000 NA
ATOM      4  C   UNL     1      -2.847  11.602  18.137  0.00  0.00    +0.000 A 
ATOM      5  C   UNL     1      -1.592  11.735  18.753  0.00  0.00    +0.000 A 
ATOM      6  N   UNL     1      -0.427  11.455  18.054  0.00  0.00    +0.000 N 
ATOM      7  N   UNL     1      -1.575  12.179  20.041  0.00  0.00    +0.000 NA
ATOM      8  C   UNL     1      -2.727  12.474  20.702  0.00  0.00    +0.000 A 
ATOM      9  N   UNL     1      -2.636  12.873  22.020  0.00  0.00    +0.000 N 
ATOM     10  C   UNL     1      -3.822  13.181  22.808  0.00  0.00    +0.000 C 
ATOM     11  C   UNL     1      -3.801  14.652  23.223  0.00  0.00    +0.000 C 
ATOM     12  C   UNL     1      -2.484  15.020  23.906  0.00  0.00    +0.000 C 
ATOM     13  C   UNL     1      -1.288  14.629  23.040  0.00  0.00    +0.000 C 
ATOM     14  C   UNL     1      -1.346  13.155  22.631  0.00  0.00    +0.000 C 
ATOM     15  N   UNL     1      -3.956  12.388  20.158  0.00  0.00    +0.000 NA
ATOM     16  C   UNL     1      -3.947  11.961  18.891  0.00  0.00    +0.000 A 
ATOM     17  H   UNL     1      -0.559  10.809  17.282  0.00  0.00    +0.000 HD
ENDROOT
BRANCH   1  19
ATOM     18  C   UNL     1      -7.092  11.014  19.115  0.00  0.00    +0.000 C 
ATOM     19  C   UNL     1      -6.395  12.116  18.337  0.00  0.00    +0.000 C 
ENDBRANCH   1  19
BRANCH   6  20
ATOM     20  C   UNL     1       0.854  11.491  18.717  0.00  0.00    +0.000 C 
BRANCH  20  21
ATOM     21  C   UNL     1       1.334  10.079  19.007  0.00  0.00    +0.000 A 
ATOM     22  C   UNL     1       0.986   9.429  20.203  0.00  0.00    +0.000 A 
ATOM     23  C   UNL     1       1.391   8.115  20.440  0.00  0.00    +0.000 A 
ATOM     24  C   UNL     1       2.150   7.430  19.490  0.00  0.00    +0.000 A 
ATOM     25  C   UNL     1       2.530   8.054  18.296  0.00  0.00    +0.000 A 
ATOM     26  C   UNL     1       2.101   9.374  18.061  0.00  0.00    +0.000 A 
BRANCH  25  27
ATOM     27  C   UNL     1       3.312   7.291  17.307  0.00  0.00    +0.000 C 
ATOM     28  C   UNL     1       4.299   6.443  17.637  0.00  0.00    +0.000 C 
BRANCH  28  29
ATOM     29  C   UNL     1       5.057   5.708  16.597  0.00  0.00    +0.000 C 
ATOM     30  O   UNL     1       5.487   6.221  15.571  0.00  0.00    +0.000 OA
ATOM     31  N   UNL     1       5.239   4.384  16.904  0.00  0.00    +0.000 N 
ATOM     32  H   UNL     1       4.909   3.918  17.740  0.00  0.00    +0.000 HD
BRANCH  31  33
ATOM     33  O   UNL     1       5.964   3.603  15.981  0.00  0.00    +0.000 OA
ATOM     34  H   UNL     1       6.723   3.291  16.524  0.00  0.00    +0.000 HD
ENDBRANCH  31  33
ENDBRANCH  28  29
ENDBRANCH  25  27
ENDBRANCH  20  21
ENDBRANCH   6  20
TORSDOF 6
ENDMDL
MODEL 6
REMARK VINA RESULT:      -7.9      4.726      7.658
REMARK  Name = 
REMARK  7 active torsions:
REMARK  status: ('A' for Active; 'I' for Inactive)
REMARK    1  A    between atoms: C_1  and  C_2
REMARK    2  A    between atoms: C_2  and  N_3
REMARK    3  A    between atoms: N_8  and  C_9
REMARK    4  A    between atoms: C_9  and  C_10
REMARK    5  A    between atoms: C_14  and  C_15
REMARK    6  A    between atoms: C_16  and  C_17
REMARK    7  A    between atoms: N_19  and  O_20
REMARK                            x       y       z     vdW  Elec       q    Type
REMARK                         _______ _______ _______ _____ _____    ______ ____
ROOT
ATOM      1  N   UNL     1       1.822   3.035  19.632  0.00  0.00    +0.000 N 
ATOM      2  C   UNL     1       2.496   2.076  18.924  0.00  0.00    +0.000 A 
ATOM      3  N   UNL     1       3.374   2.601  18.099  0.00  0.00    +0.000 NA
ATOM      4  C   UNL     1       3.240   3.966  18.267  0.00  0.00    +0.000 A 
ATOM      5  C   UNL     1       3.849   5.063  17.636  0.00  0.00    +0.000 A 
ATOM      6  N   UNL     1       4.767   4.871  16.613  0.00  0.00    +0.000 N 
ATOM      7  N   UNL     1       3.473   6.306  18.048  0.00  0.00    +0.000 NA
ATOM      8  C   UNL     1       2.551   6.475  19.035  0.00  0.00    +0.000 A 
ATOM      9  N   UNL     1       2.254   7.762  19.433  0.00  0.00    +0.000 N 
ATOM     10  C   UNL     1       1.300   8.029  20.501  0.00  0.00    +0.000 C 
ATOM     11  C   UNL     1       0.107   8.808  19.947  0.00  0.00    +0.000 C 
ATOM     12  C   UNL     1       0.560  10.055  19.186  0.00  0.00    +0.000 C 
ATOM     13  C   UNL     1       1.590   9.701  18.114  0.00  0.00    +0.000 C 
ATOM     14  C   UNL     1       2.762   8.910  18.699  0.00  0.00    +0.000 C 
ATOM     15  N   UNL     1       1.918   5.464  19.660  0.00  0.00    +0.000 NA
ATOM     16  C   UNL     1       2.295   4.255  19.232  0.00  0.00    +0.000 A 
ATOM     17  H   UNL     1       5.231   3.969  16.645  0.00  0.00    +0.000 HD
ENDROOT
BRANCH   1  19
ATOM     18  C   UNL     1       1.279   2.385  21.946  0.00  0.00    +0.000 C 
ATOM     19  C   UNL     1       0.757   2.790  20.579  0.00  0.00    +0.000 C 
ENDBRANCH   1  19
BRANCH   6  20
ATOM     20  C   UNL     1       5.470   5.992  16.038  0.00  0.00    +0.000 C 
BRANCH  20  21
ATOM     21  C   UNL     1       6.497   6.528  17.020  0.00  0.00    +0.000 A 
ATOM     22  C   UNL     1       7.071   5.692  17.993  0.00  0.00    +0.000 A 
ATOM     23  C   UNL     1       8.050   6.181  18.859  0.00  0.00    +0.000 A 
ATOM     24  C   UNL     1       8.470   7.509  18.770  0.00  0.00    +0.000 A 
ATOM     25  C   UNL     1       7.906   8.373  17.824  0.00  0.00    +0.000 A 
ATOM     26  C   UNL     1       6.932   7.864  16.945  0.00  0.00    +0.000 A 
BRANCH  25  27
ATOM     27  C   UNL     1       8.392   9.763  17.745  0.00  0.00    +0.000 C 
ATOM     28  C   UNL     1       9.098  10.358  18.719  0.00  0.00    +0.000 C 
BRANCH  28  29
ATOM     29  C   UNL     1       9.554  11.761  18.586  0.00  0.00    +0.000 C 
ATOM     30  O   UNL     1      10.392  12.281  19.312  0.00  0.00    +0.000 OA
ATOM     31  N   UNL     1       8.945  12.426  17.553  0.00  0.00    +0.000 N 
ATOM     32  H   UNL     1       8.253  12.037  16.923  0.00  0.00    +0.000 HD
BRANCH  31  33
ATOM     33  O   UNL     1       9.325  13.765  17.335  0.00  0.00    +0.000 OA
ATOM     34  H   UNL     1      10.295  13.685  17.190  0.00  0.00    +0.000 HD
ENDBRANCH  31  33
ENDBRANCH  28  29
ENDBRANCH  25  27
ENDBRANCH  20  21
ENDBRANCH   6  20
TORSDOF 6
ENDMDL
MODEL 7
REMARK VINA RESULT:      -7.9      2.793      4.039
REMARK  Name = 
REMARK  7 active torsions:
REMARK  status: ('A' for Active; 'I' for Inactive)
REMARK    1  A    between atoms: C_1  and  C_2
REMARK    2  A    between atoms: C_2  and  N_3
REMARK    3  A    between atoms: N_8  and  C_9
REMARK    4  A    between atoms: C_9  and  C_10
REMARK    5  A    between atoms: C_14  and  C_15
REMARK    6  A    between atoms: C_16  and  C_17
REMARK    7  A    between atoms: N_19  and  O_20
REMARK                            x       y       z     vdW  Elec       q    Type
REMARK                         _______ _______ _______ _____ _____    ______ ____
ROOT
ATOM      1  N   UNL     1      -0.781  12.385  22.566  0.00  0.00    +0.000 N 
ATOM      2  C   UNL     1      -1.350  11.139  22.539  0.00  0.00    +0.000 A 
ATOM      3  N   UNL     1      -0.836  10.386  21.592  0.00  0.00    +0.000 NA
ATOM      4  C   UNL     1       0.091  11.196  20.964  0.00  0.00    +0.000 A 
ATOM      5  C   UNL     1       0.922  10.997  19.850  0.00  0.00    +0.000 A 
ATOM      6  N   UNL     1       0.883   9.805  19.142  0.00  0.00    +0.000 N 
ATOM      7  N   UNL     1       1.731  12.031  19.484  0.00  0.00    +0.000 NA
ATOM      8  C   UNL     1       1.736  13.203  20.175  0.00  0.00    +0.000 A 
ATOM      9  N   UNL     1       2.614  14.189  19.776  0.00  0.00    +0.000 N 
ATOM     10  C   UNL     1       2.703  15.462  20.478  0.00  0.00    +0.000 C 
ATOM     11  C   UNL     1       2.294  16.600  19.542  0.00  0.00    +0.000 C 
ATOM     12  C   UNL     1       3.080  16.553  18.231  0.00  0.00    +0.000 C 
ATOM     13  C   UNL     1       2.974  15.176  17.577  0.00  0.00    +0.000 C 
ATOM     14  C   UNL     1       3.376  14.060  18.544  0.00  0.00    +0.000 C 
ATOM     15  N   UNL     1       0.946  13.460  21.236  0.00  0.00    +0.000 NA
ATOM     16  C   UNL     1       0.155  12.436  21.570  0.00  0.00    +0.000 A 
ATOM     17  H   UNL     1       0.553   9.016  19.689  0.00  0.00    +0.000 HD
ENDROOT
BRANCH   1  19
ATOM     18  C   UNL     1      -2.631  13.821  23.333  0.00  0.00    +0.000 C 
ATOM     19  C   UNL     1      -1.160  13.465  23.451  0.00  0.00    +0.000 C 
ENDBRANCH   1  19
BRANCH   6  20
ATOM     20  C   UNL     1       1.810   9.561  18.063  0.00  0.00    +0.000 C 
BRANCH  20  21
ATOM     21  C   UNL     1       2.529   8.240  18.276  0.00  0.00    +0.000 A 
ATOM     22  C   UNL     1       2.182   7.393  19.342  0.00  0.00    +0.000 A 
ATOM     23  C   UNL     1       2.814   6.159  19.503  0.00  0.00    +0.000 A 
ATOM     24  C   UNL     1       3.803   5.753  18.604  0.00  0.00    +0.000 A 
ATOM     25  C   UNL     1       4.185   6.580  17.542  0.00  0.00    +0.000 A 
ATOM     26  C   UNL     1       3.528   7.815  17.381  0.00  0.00    +0.000 A 
BRANCH  25  27
ATOM     27  C   UNL     1       5.216   6.107  16.601  0.00  0.00    +0.000 C 
ATOM     28  C   UNL     1       5.142   4.937  15.948  0.00  0.00    +0.000 C 
BRANCH  28  29
ATOM     29  C   UNL     1       6.214   4.510  15.018  0.00  0.00    +0.000 C 
ATOM     30  O   UNL     1       7.407   4.706  15.212  0.00  0.00    +0.000 OA
ATOM     31  N   UNL     1       5.734   3.859  13.911  0.00  0.00    +0.000 N 
ATOM     32  H   UNL     1       4.759   3.668  13.712  0.00  0.00    +0.000 HD
BRANCH  31  33
ATOM     33  O   UNL     1       6.680   3.398  12.973  0.00  0.00    +0.000 OA
ATOM     34  H   UNL     1       6.870   2.490  13.298  0.00  0.00    +0.000 HD
ENDBRANCH  31  33
ENDBRANCH  28  29
ENDBRANCH  25  27
ENDBRANCH  20  21
ENDBRANCH   6  20
TORSDOF 6
ENDMDL
MODEL 8
REMARK VINA RESULT:      -7.9      2.552      4.311
REMARK  Name = 
REMARK  7 active torsions:
REMARK  status: ('A' for Active; 'I' for Inactive)
REMARK    1  A    between atoms: C_1  and  C_2
REMARK    2  A    between atoms: C_2  and  N_3
REMARK    3  A    between atoms: N_8  and  C_9
REMARK    4  A    between atoms: C_9  and  C_10
REMARK    5  A    between atoms: C_14  and  C_15
REMARK    6  A    between atoms: C_16  and  C_17
REMARK    7  A    between atoms: N_19  and  O_20
REMARK                            x       y       z     vdW  Elec       q    Type
REMARK                         _______ _______ _______ _____ _____    ______ ____
ROOT
ATOM      1  N   UNL     1       3.159  15.104  19.107  0.00  0.00    +0.000 N 
ATOM      2  C   UNL     1       4.053  14.580  18.212  0.00  0.00    +0.000 A 
ATOM      3  N   UNL     1       3.724  13.360  17.846  0.00  0.00    +0.000 NA
ATOM      4  C   UNL     1       2.575  13.078  18.560  0.00  0.00    +0.000 A 
ATOM      5  C   UNL     1       1.778  11.927  18.655  0.00  0.00    +0.000 A 
ATOM      6  N   UNL     1       2.114  10.774  17.961  0.00  0.00    +0.000 N 
ATOM      7  N   UNL     1       0.692  11.986  19.478  0.00  0.00    +0.000 NA
ATOM      8  C   UNL     1       0.393  13.118  20.172  0.00  0.00    +0.000 A 
ATOM      9  N   UNL     1      -0.747  13.122  20.948  0.00  0.00    +0.000 N 
ATOM     10  C   UNL     1      -1.154  14.301  21.700  0.00  0.00    +0.000 C 
ATOM     11  C   UNL     1      -1.131  13.994  23.198  0.00  0.00    +0.000 C 
ATOM     12  C   UNL     1      -1.938  12.736  23.522  0.00  0.00    +0.000 C 
ATOM     13  C   UNL     1      -1.483  11.556  22.664  0.00  0.00    +0.000 C 
ATOM     14  C   UNL     1      -1.504  11.901  21.174  0.00  0.00    +0.000 C 
ATOM     15  N   UNL     1       1.132  14.244  20.138  0.00  0.00    +0.000 NA
ATOM     16  C   UNL     1       2.196  14.159  19.334  0.00  0.00    +0.000 A 
ATOM     17  H   UNL     1       2.681  10.945  17.137  0.00  0.00    +0.000 HD
ENDROOT
BRANCH   1  19
ATOM     18  C   UNL     1       3.942  16.327  21.098  0.00  0.00    +0.000 C 
ATOM     19  C   UNL     1       3.263  16.399  19.742  0.00  0.00    +0.000 C 
ENDBRANCH   1  19
BRANCH   6  20
ATOM     20  C   UNL     1       1.239   9.627  17.975  0.00  0.00    +0.000 C 
BRANCH  20  21
ATOM     21  C   UNL     1       1.987   8.401  18.469  0.00  0.00    +0.000 A 
ATOM     22  C   UNL     1       1.660   7.800  19.696  0.00  0.00    +0.000 A 
ATOM     23  C   UNL     1       2.320   6.645  20.119  0.00  0.00    +0.000 A 
ATOM     24  C   UNL     1       3.317   6.074  19.327  0.00  0.00    +0.000 A 
ATOM     25  C   UNL     1       3.680   6.657  18.107  0.00  0.00    +0.000 A 
ATOM     26  C   UNL     1       2.995   7.811  17.684  0.00  0.00    +0.000 A 
BRANCH  25  27
ATOM     27  C   UNL     1       4.721   6.012  17.287  0.00  0.00    +0.000 C 
ATOM     28  C   UNL     1       6.029   6.045  17.590  0.00  0.00    +0.000 C 
BRANCH  28  29
ATOM     29  C   UNL     1       7.031   5.383  16.723  0.00  0.00    +0.000 C 
ATOM     30  O   UNL     1       7.793   4.502  17.104  0.00  0.00    +0.000 OA
ATOM     31  N   UNL     1       7.018   5.852  15.434  0.00  0.00    +0.000 N 
ATOM     32  H   UNL     1       6.404   6.571  15.072  0.00  0.00    +0.000 HD
BRANCH  31  33
ATOM     33  O   UNL     1       7.927   5.271  14.527  0.00  0.00    +0.000 OA
ATOM     34  H   UNL     1       8.336   6.061  14.108  0.00  0.00    +0.000 HD
ENDBRANCH  31  33
ENDBRANCH  28  29
ENDBRANCH  25  27
ENDBRANCH  20  21
ENDBRANCH   6  20
TORSDOF 6
ENDMDL
MODEL 9
REMARK VINA RESULT:      -7.7      4.159      9.426
REMARK  Name = 
REMARK  7 active torsions:
REMARK  status: ('A' for Active; 'I' for Inactive)
REMARK    1  A    between atoms: C_1  and  C_2
REMARK    2  A    between atoms: C_2  and  N_3
REMARK    3  A    between atoms: N_8  and  C_9
REMARK    4  A    between atoms: C_9  and  C_10
REMARK    5  A    between atoms: C_14  and  C_15
REMARK    6  A    between atoms: C_16  and  C_17
REMARK    7  A    between atoms: N_19  and  O_20
REMARK                            x       y       z     vdW  Elec       q    Type
REMARK                         _______ _______ _______ _____ _____    ______ ____
ROOT
ATOM      1  N   UNL     1       2.005   2.777  19.737  0.00  0.00    +0.000 N 
ATOM      2  C   UNL     1       1.067   3.087  20.685  0.00  0.00    +0.000 A 
ATOM      3  N   UNL     1       0.956   4.386  20.860  0.00  0.00    +0.000 NA
ATOM      4  C   UNL     1       1.887   4.935  19.998  0.00  0.00    +0.000 A 
ATOM      5  C   UNL     1       2.293   6.258  19.761  0.00  0.00    +0.000 A 
ATOM      6  N   UNL     1       1.741   7.307  20.482  0.00  0.00    +0.000 N 
ATOM      7  N   UNL     1       3.265   6.454  18.826  0.00  0.00    +0.000 NA
ATOM      8  C   UNL     1       3.813   5.409  18.148  0.00  0.00    +0.000 A 
ATOM      9  N   UNL     1       4.758   5.686  17.182  0.00  0.00    +0.000 N 
ATOM     10  C   UNL     1       5.373   4.628  16.391  0.00  0.00    +0.000 C 
ATOM     11  C   UNL     1       6.876   4.579  16.671  0.00  0.00    +0.000 C 
ATOM     12  C   UNL     1       7.522   5.953  16.489  0.00  0.00    +0.000 C 
ATOM     13  C   UNL     1       6.797   7.015  17.314  0.00  0.00    +0.000 C 
ATOM     14  C   UNL     1       5.295   7.028  17.021  0.00  0.00    +0.000 C 
ATOM     15  N   UNL     1       3.481   4.119  18.348  0.00  0.00    +0.000 NA
ATOM     16  C   UNL     1       2.534   3.951  19.276  0.00  0.00    +0.000 A 
ATOM     17  H   UNL     1       0.818   7.108  20.852  0.00  0.00    +0.000 HD
ENDROOT
BRANCH   1  19
ATOM     18  C   UNL     1       3.437   1.442  18.240  0.00  0.00    +0.000 C 
ATOM     19  C   UNL     1       2.403   1.441  19.352  0.00  0.00    +0.000 C 
ENDBRANCH   1  19
BRANCH   6  20
ATOM     20  C   UNL     1       2.081   8.674  20.165  0.00  0.00    +0.000 C 
BRANCH  20  21
ATOM     21  C   UNL     1       0.839   9.548  20.209  0.00  0.00    +0.000 A 
ATOM     22  C   UNL     1       0.414  10.138  21.411  0.00  0.00    +0.000 A 
ATOM     23  C   UNL     1      -0.701  10.978  21.433  0.00  0.00    +0.000 A 
ATOM     24  C   UNL     1      -1.408  11.241  20.258  0.00  0.00    +0.000 A 
ATOM     25  C   UNL     1      -1.022  10.655  19.047  0.00  0.00    +0.000 A 
ATOM     26  C   UNL     1       0.113   9.823  19.035  0.00  0.00    +0.000 A 
BRANCH  25  27
ATOM     27  C   UNL     1      -1.779  10.974  17.824  0.00  0.00    +0.000 C 
ATOM     28  C   UNL     1      -2.651  10.129  17.251  0.00  0.00    +0.000 C 
BRANCH  28  29
ATOM     29  C   UNL     1      -3.379  10.502  16.016  0.00  0.00    +0.000 C 
ATOM     30  O   UNL     1      -4.434  11.125  16.004  0.00  0.00    +0.000 OA
ATOM     31  N   UNL     1      -2.745  10.085  14.874  0.00  0.00    +0.000 N 
ATOM     32  H   UNL     1      -1.872   9.575  14.833  0.00  0.00    +0.000 HD
BRANCH  31  33
ATOM     33  O   UNL     1      -3.354  10.408  13.644  0.00  0.00    +0.000 OA
ATOM     34  H   UNL     1      -2.624  10.252  13.004  0.00  0.00    +0.000 HD
ENDBRANCH  31  33
ENDBRANCH  28  29
ENDBRANCH  25  27
ENDBRANCH  20  21
ENDBRANCH   6  20
TORSDOF 6
ENDMDL
