MODEL 1
REMARK VINA RESULT:      -7.2      0.000      0.000
REMARK  Name = 
REMARK  7 active torsions:
REMARK  status: ('A' for Active; 'I' for Inactive)
REMARK    1  A    between atoms: C_1  and  O_2
REMARK    2  A    between atoms: O_2  and  C_3
REMARK    3  A    between atoms: C_6  and  C_7
REMARK    4  A    between atoms: C_12  and  N_13
REMARK    5  A    between atoms: C_14  and  N_15
REMARK    6  A    between atoms: C_17  and  C_18
REMARK    7  A    between atoms: C_20  and  C_21
REMARK                            x       y       z     vdW  Elec       q    Type
REMARK                         _______ _______ _______ _____ _____    ______ ____
ROOT
ATOM      1  C   UNL     1       2.913   8.018  17.763  0.00  0.00    +0.000 A 
ATOM      2  C   UNL     1       2.192   7.293  18.699  0.00  0.00    +0.000 A 
ATOM      3  C   UNL     1       2.502   5.955  18.957  0.00  0.00    +0.000 A 
ATOM      4  C   UNL     1       3.574   5.278  18.318  0.00  0.00    +0.000 A 
ATOM      5  C   UNL     1       4.272   6.026  17.316  0.00  0.00    +0.000 A 
ATOM      6  C   UNL     1       3.948   7.381  17.085  0.00  0.00    +0.000 A 
ENDROOT
BRANCH   5   7
ATOM      7  N   UNL     1       5.319   5.469  16.507  0.00  0.00    +0.000 N 
ATOM      8  N   UNL     1       5.025   4.583  15.521  0.00  0.00    +0.000 NA
ATOM      9  C   UNL     1       6.121   4.517  14.764  0.00  0.00    +0.000 A 
ATOM     10  C   UNL     1       6.092   3.828  13.450  0.00  0.00    +0.000 C 
ATOM     11  C   UNL     1       7.196   5.188  15.356  0.00  0.00    +0.000 A 
ATOM     12  C   UNL     1       6.695   5.738  16.522  0.00  0.00    +0.000 A 
ATOM     13  C   UNL     1       7.440   6.583  17.494  0.00  0.00    +0.000 C 
ENDBRANCH   5   7
BRANCH   4  14
ATOM     14  C   UNL     1       3.840   3.853  18.712  0.00  0.00    +0.000 A 
ATOM     15  C   UNL     1       4.714   3.548  19.764  0.00  0.00    +0.000 A 
ATOM     16  N   UNL     1       4.943   2.319  20.299  0.00  0.00    +0.000 NA
ATOM     17  C   UNL     1       4.300   1.296  19.718  0.00  0.00    +0.000 A 
ATOM     18  C   UNL     1       3.504   1.439  18.598  0.00  0.00    +0.000 A 
ATOM     19  C   UNL     1       3.239   2.722  18.096  0.00  0.00    +0.000 A 
BRANCH  19  20
ATOM     20  N   UNL     1       2.552   2.788  16.861  0.00  0.00    +0.000 N 
ATOM     21  H   UNL     1       1.666   2.294  16.847  0.00  0.00    +0.000 HD
ATOM     22  H   UNL     1       2.470   3.731  16.493  0.00  0.00    +0.000 HD
ENDBRANCH  19  20
ENDBRANCH   4  14
BRANCH   1  24
ATOM     23  C   UNL     1       1.314   9.716  18.216  0.00  0.00    +0.000 C 
ATOM     24  O   UNL     1       2.537   9.320  17.601  0.00  0.00    +0.000 OA
ENDBRANCH   1  24
TORSDOF 4
ENDMDL
MODEL 2
REMARK VINA RESULT:      -6.8      0.680      1.448
REMARK  Name = 
REMARK  7 active torsions:
REMARK  status: ('A' for Active; 'I' for Inactive)
REMARK    1  A    between atoms: C_1  and  O_2
REMARK    2  A    between atoms: O_2  and  C_3
REMARK    3  A    between atoms: C_6  and  C_7
REMARK    4  A    between atoms: C_12  and  N_13
REMARK    5  A    between atoms: C_14  and  N_15
REMARK    6  A    between atoms: C_17  and  C_18
REMARK    7  A    between atoms: C_20  and  C_21
REMARK                            x       y       z     vdW  Elec       q    Type
REMARK                         _______ _______ _______ _____ _____    ______ ____
ROOT
ATOM      1  C   UNL     1       2.971   8.234  17.673  0.00  0.00    +0.000 A 
ATOM      2  C   UNL     1       2.089   7.535  18.483  0.00  0.00    +0.000 A 
ATOM      3  C   UNL     1       2.249   6.163  18.691  0.00  0.00    +0.000 A 
ATOM      4  C   UNL     1       3.319   5.420  18.126  0.00  0.00    +0.000 A 
ATOM      5  C   UNL     1       4.187   6.148  17.249  0.00  0.00    +0.000 A 
ATOM      6  C   UNL     1       4.012   7.537  17.069  0.00  0.00    +0.000 A 
ENDROOT
BRANCH   5   7
ATOM      7  N   UNL     1       5.262   5.535  16.521  0.00  0.00    +0.000 N 
ATOM      8  N   UNL     1       4.997   4.686  15.496  0.00  0.00    +0.000 NA
ATOM      9  C   UNL     1       6.148   4.560  14.834  0.00  0.00    +0.000 A 
ATOM     10  C   UNL     1       6.188   3.894  13.507  0.00  0.00    +0.000 C 
ATOM     11  C   UNL     1       7.209   5.148  15.530  0.00  0.00    +0.000 A 
ATOM     12  C   UNL     1       6.645   5.712  16.660  0.00  0.00    +0.000 A 
ATOM     13  C   UNL     1       7.356   6.490  17.709  0.00  0.00    +0.000 C 
ENDBRANCH   5   7
BRANCH   4  14
ATOM     14  C   UNL     1       3.412   3.957  18.459  0.00  0.00    +0.000 A 
ATOM     15  C   UNL     1       2.380   3.074  18.112  0.00  0.00    +0.000 A 
ATOM     16  N   UNL     1       2.394   1.721  18.240  0.00  0.00    +0.000 NA
ATOM     17  C   UNL     1       3.490   1.194  18.804  0.00  0.00    +0.000 A 
ATOM     18  C   UNL     1       4.528   1.958  19.301  0.00  0.00    +0.000 A 
ATOM     19  C   UNL     1       4.518   3.349  19.110  0.00  0.00    +0.000 A 
BRANCH  19  20
ATOM     20  N   UNL     1       5.523   4.086  19.778  0.00  0.00    +0.000 N 
ATOM     21  H   UNL     1       5.439   5.092  19.681  0.00  0.00    +0.000 HD
ATOM     22  H   UNL     1       5.657   3.805  20.745  0.00  0.00    +0.000 HD
ENDBRANCH  19  20
ENDBRANCH   4  14
BRANCH   1  24
ATOM     23  C   UNL     1       1.559  10.076  18.186  0.00  0.00    +0.000 C 
ATOM     24  O   UNL     1       2.732   9.573  17.552  0.00  0.00    +0.000 OA
ENDBRANCH   1  24
TORSDOF 4
ENDMDL
MODEL 3
REMARK VINA RESULT:      -6.5      2.649      5.006
REMARK  Name = 
REMARK  7 active torsions:
REMARK  status: ('A' for Active; 'I' for Inactive)
REMARK    1  A    between atoms: C_1  and  O_2
REMARK    2  A    between atoms: O_2  and  C_3
REMARK    3  A    between atoms: C_6  and  C_7
REMARK    4  A    between atoms: C_12  and  N_13
REMARK    5  A    between atoms: C_14  and  N_15
REMARK    6  A    between atoms: C_17  and  C_18
REMARK    7  A    between atoms: C_20  and  C_21
REMARK                            x       y       z     vdW  Elec       q    Type
REMARK                         _______ _______ _______ _____ _____    ______ ____
ROOT
ATOM      1  C   UNL     1       6.485   4.382  13.899  0.00  0.00    +0.000 A 
ATOM      2  C   UNL     1       5.206   3.921  14.171  0.00  0.00    +0.000 A 
ATOM      3  C   UNL     1       4.563   4.267  15.362  0.00  0.00    +0.000 A 
ATOM      4  C   UNL     1       5.151   5.120  16.333  0.00  0.00    +0.000 A 
ATOM      5  C   UNL     1       6.493   5.541  16.060  0.00  0.00    +0.000 A 
ATOM      6  C   UNL     1       7.114   5.190  14.842  0.00  0.00    +0.000 A 
ENDROOT
BRANCH   5   7
ATOM      7  N   UNL     1       7.271   6.328  16.975  0.00  0.00    +0.000 N 
ATOM      8  N   UNL     1       7.526   7.634  16.708  0.00  0.00    +0.000 NA
ATOM      9  C   UNL     1       7.958   8.153  17.858  0.00  0.00    +0.000 A 
ATOM     10  C   UNL     1       8.109   9.621  18.015  0.00  0.00    +0.000 C 
ATOM     11  C   UNL     1       8.186   7.161  18.817  0.00  0.00    +0.000 A 
ATOM     12  C   UNL     1       7.813   5.971  18.217  0.00  0.00    +0.000 A 
ATOM     13  C   UNL     1       7.832   4.621  18.841  0.00  0.00    +0.000 C 
ENDBRANCH   5   7
BRANCH   4  14
ATOM     14  C   UNL     1       4.343   5.457  17.554  0.00  0.00    +0.000 A 
ATOM     15  C   UNL     1       3.802   6.739  17.728  0.00  0.00    +0.000 A 
ATOM     16  N   UNL     1       2.956   7.135  18.715  0.00  0.00    +0.000 NA
ATOM     17  C   UNL     1       2.655   6.211  19.640  0.00  0.00    +0.000 A 
ATOM     18  C   UNL     1       3.214   4.947  19.656  0.00  0.00    +0.000 A 
ATOM     19  C   UNL     1       4.043   4.542  18.598  0.00  0.00    +0.000 A 
BRANCH  19  20
ATOM     20  N   UNL     1       4.706   3.302  18.754  0.00  0.00    +0.000 N 
ATOM     21  H   UNL     1       4.832   2.783  17.892  0.00  0.00    +0.000 HD
ATOM     22  H   UNL     1       5.566   3.368  19.290  0.00  0.00    +0.000 HD
ENDBRANCH  19  20
ENDBRANCH   4  14
BRANCH   1  24
ATOM     23  C   UNL     1       6.287   3.017  11.963  0.00  0.00    +0.000 C 
ATOM     24  O   UNL     1       7.013   3.997  12.700  0.00  0.00    +0.000 OA
ENDBRANCH   1  24
TORSDOF 4
ENDMDL
MODEL 4
REMARK VINA RESULT:      -6.4      1.751      4.637
REMARK  Name = 
REMARK  7 active torsions:
REMARK  status: ('A' for Active; 'I' for Inactive)
REMARK    1  A    between atoms: C_1  and  O_2
REMARK    2  A    between atoms: O_2  and  C_3
REMARK    3  A    between atoms: C_6  and  C_7
REMARK    4  A    between atoms: C_12  and  N_13
REMARK    5  A    between atoms: C_14  and  N_15
REMARK    6  A    between atoms: C_17  and  C_18
REMARK    7  A    between atoms: C_20  and  C_21
REMARK                            x       y       z     vdW  Elec       q    Type
REMARK                         _______ _______ _______ _____ _____    ______ ____
ROOT
ATOM      1  C   UNL     1       1.874   8.274  18.554  0.00  0.00    +0.000 A 
ATOM      2  C   UNL     1       2.918   8.752  17.776  0.00  0.00    +0.000 A 
ATOM      3  C   UNL     1       3.951   7.904  17.371  0.00  0.00    +0.000 A 
ATOM      4  C   UNL     1       3.980   6.521  17.692  0.00  0.00    +0.000 A 
ATOM      5  C   UNL     1       2.924   6.058  18.540  0.00  0.00    +0.000 A 
ATOM      6  C   UNL     1       1.884   6.932  18.924  0.00  0.00    +0.000 A 
ENDROOT
BRANCH   5   7
ATOM      7  N   UNL     1       2.849   4.713  19.039  0.00  0.00    +0.000 N 
ATOM      8  N   UNL     1       2.996   4.467  20.365  0.00  0.00    +0.000 NA
ATOM      9  C   UNL     1       2.553   3.221  20.546  0.00  0.00    +0.000 A 
ATOM     10  C   UNL     1       2.336   2.687  21.913  0.00  0.00    +0.000 C 
ATOM     11  C   UNL     1       2.313   2.579  19.326  0.00  0.00    +0.000 A 
ATOM     12  C   UNL     1       2.579   3.522  18.350  0.00  0.00    +0.000 A 
ATOM     13  C   UNL     1       2.437   3.340  16.881  0.00  0.00    +0.000 C 
ENDBRANCH   5   7
BRANCH   4  14
ATOM     14  C   UNL     1       5.121   5.700  17.160  0.00  0.00    +0.000 A 
ATOM     15  C   UNL     1       5.209   5.389  15.796  0.00  0.00    +0.000 A 
ATOM     16  N   UNL     1       6.244   4.767  15.171  0.00  0.00    +0.000 NA
ATOM     17  C   UNL     1       7.254   4.371  15.958  0.00  0.00    +0.000 A 
ATOM     18  C   UNL     1       7.241   4.506  17.333  0.00  0.00    +0.000 A 
ATOM     19  C   UNL     1       6.188   5.198  17.952  0.00  0.00    +0.000 A 
BRANCH  19  20
ATOM     20  N   UNL     1       6.152   5.162  19.365  0.00  0.00    +0.000 N 
ATOM     21  H   UNL     1       7.025   5.422  19.813  0.00  0.00    +0.000 HD
ATOM     22  H   UNL     1       5.357   5.653  19.762  0.00  0.00    +0.000 HD
ENDBRANCH  19  20
ENDBRANCH   4  14
BRANCH   1  24
ATOM     23  C   UNL     1       1.223  10.557  18.661  0.00  0.00    +0.000 C 
ATOM     24  O   UNL     1       0.910   9.184  18.880  0.00  0.00    +0.000 OA
ENDBRANCH   1  24
TORSDOF 4
ENDMDL
MODEL 5
REMARK VINA RESULT:      -6.4      2.163      4.780
REMARK  Name = 
REMARK  7 active torsions:
REMARK  status: ('A' for Active; 'I' for Inactive)
REMARK    1  A    between atoms: C_1  and  O_2
REMARK    2  A    between atoms: O_2  and  C_3
REMARK    3  A    between atoms: C_6  and  C_7
REMARK    4  A    between atoms: C_12  and  N_13
REMARK    5  A    between atoms: C_14  and  N_15
REMARK    6  A    between atoms: C_17  and  C_18
REMARK    7  A    between atoms: C_20  and  C_21
REMARK                            x       y       z     vdW  Elec       q    Type
REMARK                         _______ _______ _______ _____ _____    ______ ____
ROOT
ATOM      1  C   UNL     1       6.373   5.263  15.592  0.00  0.00    +0.000 A 
ATOM      2  C   UNL     1       6.112   3.901  15.572  0.00  0.00    +0.000 A 
ATOM      3  C   UNL     1       5.037   3.371  16.289  0.00  0.00    +0.000 A 
ATOM      4  C   UNL     1       4.142   4.179  17.040  0.00  0.00    +0.000 A 
ATOM      5  C   UNL     1       4.460   5.574  17.093  0.00  0.00    +0.000 A 
ATOM      6  C   UNL     1       5.543   6.086  16.347  0.00  0.00    +0.000 A 
ENDROOT
BRANCH   5   7
ATOM      7  N   UNL     1       3.718   6.519  17.880  0.00  0.00    +0.000 N 
ATOM      8  N   UNL     1       3.268   7.671  17.321  0.00  0.00    +0.000 NA
ATOM      9  C   UNL     1       2.365   8.151  18.177  0.00  0.00    +0.000 A 
ATOM     10  C   UNL     1       1.482   9.280  17.790  0.00  0.00    +0.000 C 
ATOM     11  C   UNL     1       2.369   7.441  19.382  0.00  0.00    +0.000 A 
ATOM     12  C   UNL     1       3.301   6.432  19.215  0.00  0.00    +0.000 A 
ATOM     13  C   UNL     1       3.650   5.378  20.205  0.00  0.00    +0.000 C 
ENDBRANCH   5   7
BRANCH   4  14
ATOM     14  C   UNL     1       2.994   3.499  17.733  0.00  0.00    +0.000 A 
ATOM     15  C   UNL     1       1.675   3.923  17.523  0.00  0.00    +0.000 A 
ATOM     16  N   UNL     1       0.547   3.321  17.985  0.00  0.00    +0.000 NA
ATOM     17  C   UNL     1       0.730   2.243  18.761  0.00  0.00    +0.000 A 
ATOM     18  C   UNL     1       1.977   1.790  19.145  0.00  0.00    +0.000 A 
ATOM     19  C   UNL     1       3.128   2.393  18.614  0.00  0.00    +0.000 A 
BRANCH  19  20
ATOM     20  N   UNL     1       4.366   1.990  19.167  0.00  0.00    +0.000 N 
ATOM     21  H   UNL     1       5.096   2.693  19.117  0.00  0.00    +0.000 HD
ATOM     22  H   UNL     1       4.283   1.589  20.096  0.00  0.00    +0.000 HD
ENDBRANCH  19  20
ENDBRANCH   4  14
BRANCH   1  24
ATOM     23  C   UNL     1       7.573   5.099  13.547  0.00  0.00    +0.000 C 
ATOM     24  O   UNL     1       7.438   5.675  14.844  0.00  0.00    +0.000 OA
ENDBRANCH   1  24
TORSDOF 4
ENDMDL
MODEL 6
REMARK VINA RESULT:      -6.3      1.835      4.434
REMARK  Name = 
REMARK  7 active torsions:
REMARK  status: ('A' for Active; 'I' for Inactive)
REMARK    1  A    between atoms: C_1  and  O_2
REMARK    2  A    between atoms: O_2  and  C_3
REMARK    3  A    between atoms: C_6  and  C_7
REMARK    4  A    between atoms: C_12  and  N_13
REMARK    5  A    between atoms: C_14  and  N_15
REMARK    6  A    between atoms: C_17  and  C_18
REMARK    7  A    between atoms: C_20  and  C_21
REMARK                            x       y       z     vdW  Elec       q    Type
REMARK                         _______ _______ _______ _____ _____    ______ ____
ROOT
ATOM      1  C   UNL     1       1.754   8.205  18.013  0.00  0.00    +0.000 A 
ATOM      2  C   UNL     1       2.922   8.742  17.495  0.00  0.00    +0.000 A 
ATOM      3  C   UNL     1       4.089   7.977  17.426  0.00  0.00    +0.000 A 
ATOM      4  C   UNL     1       4.143   6.620  17.841  0.00  0.00    +0.000 A 
ATOM      5  C   UNL     1       2.943   6.100  18.423  0.00  0.00    +0.000 A 
ATOM      6  C   UNL     1       1.774   6.889  18.467  0.00  0.00    +0.000 A 
ENDROOT
BRANCH   5   7
ATOM      7  N   UNL     1       2.848   4.780  18.980  0.00  0.00    +0.000 N 
ATOM      8  N   UNL     1       2.773   4.608  20.325  0.00  0.00    +0.000 NA
ATOM      9  C   UNL     1       2.367   3.350  20.499  0.00  0.00    +0.000 A 
ATOM     10  C   UNL     1       1.940   2.872  21.838  0.00  0.00    +0.000 C 
ATOM     11  C   UNL     1       2.375   2.635  19.297  0.00  0.00    +0.000 A 
ATOM     12  C   UNL     1       2.762   3.543  18.327  0.00  0.00    +0.000 A 
ATOM     13  C   UNL     1       2.888   3.279  16.869  0.00  0.00    +0.000 C 
ENDBRANCH   5   7
BRANCH   4  14
ATOM     14  C   UNL     1       5.444   5.886  17.677  0.00  0.00    +0.000 A 
ATOM     15  C   UNL     1       6.242   5.578  18.788  0.00  0.00    +0.000 A 
ATOM     16  N   UNL     1       7.368   4.816  18.791  0.00  0.00    +0.000 NA
ATOM     17  C   UNL     1       7.775   4.361  17.597  0.00  0.00    +0.000 A 
ATOM     18  C   UNL     1       7.152   4.691  16.409  0.00  0.00    +0.000 A 
ATOM     19  C   UNL     1       5.961   5.434  16.433  0.00  0.00    +0.000 A 
BRANCH  19  20
ATOM     20  N   UNL     1       5.463   5.871  15.183  0.00  0.00    +0.000 N 
ATOM     21  H   UNL     1       4.581   6.369  15.235  0.00  0.00    +0.000 HD
ATOM     22  H   UNL     1       6.151   6.368  14.625  0.00  0.00    +0.000 HD
ENDBRANCH  19  20
ENDBRANCH   4  14
BRANCH   1  24
ATOM     23  C   UNL     1       0.722  10.155  18.895  0.00  0.00    +0.000 C 
ATOM     24  O   UNL     1       0.669   9.034  18.017  0.00  0.00    +0.000 OA
ENDBRANCH   1  24
TORSDOF 4
ENDMDL
MODEL 7
REMARK VINA RESULT:      -6.3      1.629      4.760
REMARK  Name = 
REMARK  7 active torsions:
REMARK  status: ('A' for Active; 'I' for Inactive)
REMARK    1  A    between atoms: C_1  and  O_2
REMARK    2  A    between atoms: O_2  and  C_3
REMARK    3  A    between atoms: C_6  and  C_7
REMARK    4  A    between atoms: C_12  and  N_13
REMARK    5  A    between atoms: C_14  and  N_15
REMARK    6  A    between atoms: C_17  and  C_18
REMARK    7  A    between atoms: C_20  and  C_21
REMARK                            x       y       z     vdW  Elec       q    Type
REMARK                         _______ _______ _______ _____ _____    ______ ____
ROOT
ATOM      1  C   UNL     1       2.207   6.584  19.902  0.00  0.00    +0.000 A 
ATOM      2  C   UNL     1       2.788   7.427  18.967  0.00  0.00    +0.000 A 
ATOM      3  C   UNL     1       3.742   6.944  18.068  0.00  0.00    +0.000 A 
ATOM      4  C   UNL     1       4.145   5.582  18.033  0.00  0.00    +0.000 A 
ATOM      5  C   UNL     1       3.575   4.740  19.042  0.00  0.00    +0.000 A 
ATOM      6  C   UNL     1       2.601   5.250  19.928  0.00  0.00    +0.000 A 
ENDROOT
BRANCH   5   7
ATOM      7  N   UNL     1       3.939   3.361  19.212  0.00  0.00    +0.000 N 
ATOM      8  N   UNL     1       4.880   3.010  20.125  0.00  0.00    +0.000 NA
ATOM      9  C   UNL     1       4.751   1.691  20.277  0.00  0.00    +0.000 A 
ATOM     10  C   UNL     1       5.454   0.985  21.377  0.00  0.00    +0.000 C 
ATOM     11  C   UNL     1       3.883   1.146  19.325  0.00  0.00    +0.000 A 
ATOM     12  C   UNL     1       3.418   2.220  18.587  0.00  0.00    +0.000 A 
ATOM     13  C   UNL     1       2.435   2.168  17.473  0.00  0.00    +0.000 C 
ENDBRANCH   5   7
BRANCH   4  14
ATOM     14  C   UNL     1       5.146   5.172  16.991  0.00  0.00    +0.000 A 
ATOM     15  C   UNL     1       4.765   5.006  15.652  0.00  0.00    +0.000 A 
ATOM     16  N   UNL     1       5.589   4.762  14.599  0.00  0.00    +0.000 NA
ATOM     17  C   UNL     1       6.890   4.618  14.889  0.00  0.00    +0.000 A 
ATOM     18  C   UNL     1       7.384   4.637  16.179  0.00  0.00    +0.000 A 
ATOM     19  C   UNL     1       6.525   4.942  17.247  0.00  0.00    +0.000 A 
BRANCH  19  20
ATOM     20  N   UNL     1       7.055   4.789  18.549  0.00  0.00    +0.000 N 
ATOM     21  H   UNL     1       6.402   4.406  19.224  0.00  0.00    +0.000 HD
ATOM     22  H   UNL     1       7.951   4.311  18.568  0.00  0.00    +0.000 HD
ENDBRANCH  19  20
ENDBRANCH   4  14
BRANCH   1  24
ATOM     23  C   UNL     1       1.208   8.579  20.720  0.00  0.00    +0.000 C 
ATOM     24  O   UNL     1       1.275   7.156  20.720  0.00  0.00    +0.000 OA
ENDBRANCH   1  24
TORSDOF 4
ENDMDL
MODEL 8
REMARK VINA RESULT:      -6.3      1.348      1.893
REMARK  Name = 
REMARK  7 active torsions:
REMARK  status: ('A' for Active; 'I' for Inactive)
REMARK    1  A    between atoms: C_1  and  O_2
REMARK    2  A    between atoms: O_2  and  C_3
REMARK    3  A    between atoms: C_6  and  C_7
REMARK    4  A    between atoms: C_12  and  N_13
REMARK    5  A    between atoms: C_14  and  N_15
REMARK    6  A    between atoms: C_17  and  C_18
REMARK    7  A    between atoms: C_20  and  C_21
REMARK                            x       y       z     vdW  Elec       q    Type
REMARK                         _______ _______ _______ _____ _____    ______ ____
ROOT
ATOM      1  C   UNL     1       2.818   8.664  17.709  0.00  0.00    +0.000 A 
ATOM      2  C   UNL     1       1.714   8.071  18.300  0.00  0.00    +0.000 A 
ATOM      3  C   UNL     1       1.689   6.695  18.542  0.00  0.00    +0.000 A 
ATOM      4  C   UNL     1       2.782   5.842  18.237  0.00  0.00    +0.000 A 
ATOM      5  C   UNL     1       3.891   6.464  17.577  0.00  0.00    +0.000 A 
ATOM      6  C   UNL     1       3.897   7.858  17.358  0.00  0.00    +0.000 A 
ENDROOT
BRANCH   5   7
ATOM      7  N   UNL     1       5.038   5.735  17.113  0.00  0.00    +0.000 N 
ATOM      8  N   UNL     1       5.150   5.398  15.803  0.00  0.00    +0.000 NA
ATOM      9  C   UNL     1       6.426   5.047  15.635  0.00  0.00    +0.000 A 
ATOM     10  C   UNL     1       6.982   4.844  14.274  0.00  0.00    +0.000 C 
ATOM     11  C   UNL     1       7.098   4.951  16.858  0.00  0.00    +0.000 A 
ATOM     12  C   UNL     1       6.176   5.322  17.820  0.00  0.00    +0.000 A 
ATOM     13  C   UNL     1       6.415   5.420  19.285  0.00  0.00    +0.000 C 
ENDBRANCH   5   7
BRANCH   4  14
ATOM     14  C   UNL     1       2.656   4.385  18.585  0.00  0.00    +0.000 A 
ATOM     15  C   UNL     1       2.471   3.420  17.586  0.00  0.00    +0.000 A 
ATOM     16  N   UNL     1       2.468   2.071  17.753  0.00  0.00    +0.000 NA
ATOM     17  C   UNL     1       2.605   1.632  19.013  0.00  0.00    +0.000 A 
ATOM     18  C   UNL     1       2.674   2.476  20.105  0.00  0.00    +0.000 A 
ATOM     19  C   UNL     1       2.729   3.865  19.905  0.00  0.00    +0.000 A 
BRANCH  19  20
ATOM     20  N   UNL     1       2.638   4.674  21.062  0.00  0.00    +0.000 N 
ATOM     21  H   UNL     1       2.229   4.210  21.866  0.00  0.00    +0.000 HD
ATOM     22  H   UNL     1       3.505   5.149  21.293  0.00  0.00    +0.000 HD
ENDBRANCH  19  20
ENDBRANCH   4  14
BRANCH   1  24
ATOM     23  C   UNL     1       1.710  10.699  18.237  0.00  0.00    +0.000 C 
ATOM     24  O   UNL     1       2.744  10.017  17.533  0.00  0.00    +0.000 OA
ENDBRANCH   1  24
TORSDOF 4
ENDMDL
MODEL 9
REMARK VINA RESULT:      -6.3      1.466      1.539
REMARK  Name = 
REMARK  7 active torsions:
REMARK  status: ('A' for Active; 'I' for Inactive)
REMARK    1  A    between atoms: C_1  and  O_2
REMARK    2  A    between atoms: O_2  and  C_3
REMARK    3  A    between atoms: C_6  and  C_7
REMARK    4  A    between atoms: C_12  and  N_13
REMARK    5  A    between atoms: C_14  and  N_15
REMARK    6  A    between atoms: C_17  and  C_18
REMARK    7  A    between atoms: C_20  and  C_21
REMARK                            x       y       z     vdW  Elec       q    Type
REMARK                         _______ _______ _______ _____ _____    ______ ____
ROOT
ATOM      1  C   UNL     1       2.765   8.558  17.808  0.00  0.00    +0.000 A 
ATOM      2  C   UNL     1       1.732   8.149  18.637  0.00  0.00    +0.000 A 
ATOM      3  C   UNL     1       1.677   6.836  19.113  0.00  0.00    +0.000 A 
ATOM      4  C   UNL     1       2.672   5.868  18.812  0.00  0.00    +0.000 A 
ATOM      5  C   UNL     1       3.701   6.294  17.910  0.00  0.00    +0.000 A 
ATOM      6  C   UNL     1       3.741   7.630  17.457  0.00  0.00    +0.000 A 
ENDROOT
BRANCH   5   7
ATOM      7  N   UNL     1       4.732   5.420  17.426  0.00  0.00    +0.000 N 
ATOM      8  N   UNL     1       4.601   4.810  16.221  0.00  0.00    +0.000 NA
ATOM      9  C   UNL     1       5.819   4.358  15.918  0.00  0.00    +0.000 A 
ATOM     10  C   UNL     1       6.118   3.843  14.558  0.00  0.00    +0.000 C 
ATOM     11  C   UNL     1       6.698   4.482  16.999  0.00  0.00    +0.000 A 
ATOM     12  C   UNL     1       5.970   5.100  18.001  0.00  0.00    +0.000 A 
ATOM     13  C   UNL     1       6.470   5.489  19.346  0.00  0.00    +0.000 C 
ENDBRANCH   5   7
BRANCH   4  14
ATOM     14  C   UNL     1       2.529   4.501  19.418  0.00  0.00    +0.000 A 
ATOM     15  C   UNL     1       2.707   4.303  20.795  0.00  0.00    +0.000 A 
ATOM     16  N   UNL     1       2.485   3.152  21.483  0.00  0.00    +0.000 NA
ATOM     17  C   UNL     1       2.107   2.092  20.753  0.00  0.00    +0.000 A 
ATOM     18  C   UNL     1       2.011   2.117  19.375  0.00  0.00    +0.000 A 
ATOM     19  C   UNL     1       2.192   3.329  18.690  0.00  0.00    +0.000 A 
BRANCH  19  20
ATOM     20  N   UNL     1       2.239   3.256  17.278  0.00  0.00    +0.000 N 
ATOM     21  H   UNL     1       2.761   2.464  16.917  0.00  0.00    +0.000 HD
ATOM     22  H   UNL     1       1.329   3.348  16.838  0.00  0.00    +0.000 HD
ENDBRANCH  19  20
ENDBRANCH   4  14
BRANCH   1  24
ATOM     23  C   UNL     1       1.870  10.733  18.150  0.00  0.00    +0.000 C 
ATOM     24  O   UNL     1       2.730   9.865  17.416  0.00  0.00    +0.000 OA
ENDBRANCH   1  24
TORSDOF 4
ENDMDL
