MODEL 1
REMARK VINA RESULT:      -8.1      0.000      0.000
REMARK  Name = 
REMARK  8 active torsions:
REMARK  status: ('A' for Active; 'I' for Inactive)
REMARK    1  A    between atoms: C_1  and  N_2
REMARK    2  A    between atoms: N_2  and  C_3
REMARK    3  A    between atoms: N_2  and  C_4
REMARK    4  A    between atoms: C_4  and  C_5
REMARK    5  A    between atoms: C_5  and  N_6
REMARK    6  A    between atoms: N_6  and  C_7
REMARK    7  A    between atoms: N_10  and  N_11
REMARK    8  A    between atoms: C_12  and  C_13
REMARK                            x       y       z     vdW  Elec       q    Type
REMARK                         _______ _______ _______ _____ _____    ______ ____
ROOT
ATOM      1  C   UNL     1       4.671   4.132  18.809  0.00  0.00    +0.000 A 
ATOM      2  N   UNL     1       4.008   4.869  19.722  0.00  0.00    +0.000 NA
ATOM      3  C   UNL     1       3.557   6.078  19.352  0.00  0.00    +0.000 A 
ATOM      4  N   UNL     1       2.771   6.796  20.269  0.00  0.00    +0.000 N 
ATOM      5  N   UNL     1       3.823   6.630  18.168  0.00  0.00    +0.000 NA
ATOM      6  C   UNL     1       4.546   5.944  17.285  0.00  0.00    +0.000 A 
ATOM      7  C   UNL     1       4.846   6.560  16.085  0.00  0.00    +0.000 A 
ATOM      8  C   UNL     1       5.557   5.908  15.071  0.00  0.00    +0.000 A 
ATOM      9  C   UNL     1       5.953   4.600  15.261  0.00  0.00    +0.000 A 
ATOM     10  C   UNL     1       5.664   3.956  16.465  0.00  0.00    +0.000 A 
ATOM     11  C   UNL     1       4.987   4.640  17.521  0.00  0.00    +0.000 A 
ATOM     12  H   UNL     1       2.790   6.422  21.206  0.00  0.00    +0.000 HD
ENDROOT
BRANCH   1  13
ATOM     13  N   UNL     1       5.117   2.839  19.179  0.00  0.00    +0.000 N 
ATOM     14  H   UNL     1       5.539   2.385  18.374  0.00  0.00    +0.000 HD
BRANCH  13  15
ATOM     15  C   UNL     1       4.031   1.964  19.659  0.00  0.00    +0.000 C 
BRANCH  15  16
ATOM     16  C   UNL     1       2.917   1.772  18.587  0.00  0.00    +0.000 C 
BRANCH  16  18
ATOM     17  C   UNL     1       1.553   2.474  20.472  0.00  0.00    +0.000 C 
ATOM     18  N   UNL     1       1.560   2.182  19.037  0.00  0.00    +0.000 NA
ATOM     19  C   UNL     1       1.120   3.379  18.306  0.00  0.00    +0.000 C 
ENDBRANCH  16  18
ENDBRANCH  15  16
ENDBRANCH  13  15
ENDBRANCH   1  13
BRANCH   4  20
ATOM     20  N   UNL     1       1.860   7.699  19.805  0.00  0.00    +0.000 NA
ATOM     21  C   UNL     1       1.364   8.524  20.674  0.00  0.00    +0.000 C 
BRANCH  21  22
ATOM     22  C   UNL     1       0.396   9.577  20.274  0.00  0.00    +0.000 A 
ATOM     23  C   UNL     1       0.221   9.862  18.910  0.00  0.00    +0.000 A 
ATOM     24  C   UNL     1      -0.649  10.879  18.503  0.00  0.00    +0.000 A 
ATOM     25  C   UNL     1      -1.341  11.613  19.460  0.00  0.00    +0.000 A 
ATOM     26  F   UNL     1      -2.165  12.595  19.071  0.00  0.00    +0.000 F 
ATOM     27  C   UNL     1      -1.188  11.341  20.814  0.00  0.00    +0.000 A 
ATOM     28  C   UNL     1      -0.322  10.321  21.225  0.00  0.00    +0.000 A 
ATOM     29 CL   UNL     1      -0.184  10.048  22.927  0.00  0.00    +0.000 Cl
ENDBRANCH  21  22
ENDBRANCH   4  20
TORSDOF 6
ENDMDL
MODEL 2
REMARK VINA RESULT:      -8.0      1.750      3.747
REMARK  Name = 
REMARK  8 active torsions:
REMARK  status: ('A' for Active; 'I' for Inactive)
REMARK    1  A    between atoms: C_1  and  N_2
REMARK    2  A    between atoms: N_2  and  C_3
REMARK    3  A    between atoms: N_2  and  C_4
REMARK    4  A    between atoms: C_4  and  C_5
REMARK    5  A    between atoms: C_5  and  N_6
REMARK    6  A    between atoms: N_6  and  C_7
REMARK    7  A    between atoms: N_10  and  N_11
REMARK    8  A    between atoms: C_12  and  C_13
REMARK                            x       y       z     vdW  Elec       q    Type
REMARK                         _______ _______ _______ _____ _____    ______ ____
ROOT
ATOM      1  C   UNL     1       4.574   5.137  18.988  0.00  0.00    +0.000 A 
ATOM      2  N   UNL     1       4.391   6.387  18.517  0.00  0.00    +0.000 NA
ATOM      3  C   UNL     1       3.179   6.714  18.044  0.00  0.00    +0.000 A 
ATOM      4  N   UNL     1       2.960   8.048  17.658  0.00  0.00    +0.000 N 
ATOM      5  N   UNL     1       2.181   5.839  17.913  0.00  0.00    +0.000 NA
ATOM      6  C   UNL     1       2.374   4.580  18.301  0.00  0.00    +0.000 A 
ATOM      7  C   UNL     1       1.339   3.685  18.110  0.00  0.00    +0.000 A 
ATOM      8  C   UNL     1       1.421   2.351  18.527  0.00  0.00    +0.000 A 
ATOM      9  C   UNL     1       2.562   1.917  19.171  0.00  0.00    +0.000 A 
ATOM     10  C   UNL     1       3.623   2.801  19.373  0.00  0.00    +0.000 A 
ATOM     11  C   UNL     1       3.560   4.146  18.898  0.00  0.00    +0.000 A 
ATOM     12  H   UNL     1       3.804   8.595  17.580  0.00  0.00    +0.000 HD
ENDROOT
BRANCH   1  13
ATOM     13  N   UNL     1       5.838   4.796  19.526  0.00  0.00    +0.000 N 
ATOM     14  H   UNL     1       5.866   5.049  20.510  0.00  0.00    +0.000 HD
BRANCH  13  15
ATOM     15  C   UNL     1       6.960   5.485  18.863  0.00  0.00    +0.000 C 
BRANCH  15  16
ATOM     16  C   UNL     1       7.682   4.570  17.830  0.00  0.00    +0.000 C 
BRANCH  16  18
ATOM     17  C   UNL     1       6.308   4.060  15.892  0.00  0.00    +0.000 C 
ATOM     18  N   UNL     1       7.390   4.901  16.410  0.00  0.00    +0.000 NA
ATOM     19  C   UNL     1       6.996   6.312  16.286  0.00  0.00    +0.000 C 
ENDBRANCH  16  18
ENDBRANCH  15  16
ENDBRANCH  13  15
ENDBRANCH   1  13
BRANCH   4  20
ATOM     20  N   UNL     1       1.697   8.559  17.710  0.00  0.00    +0.000 NA
ATOM     21  C   UNL     1       1.494   9.520  18.557  0.00  0.00    +0.000 C 
BRANCH  21  22
ATOM     22  C   UNL     1       0.169  10.182  18.671  0.00  0.00    +0.000 A 
ATOM     23  C   UNL     1      -0.835   9.865  17.741  0.00  0.00    +0.000 A 
ATOM     24  C   UNL     1      -2.078  10.505  17.793  0.00  0.00    +0.000 A 
ATOM     25  C   UNL     1      -2.316  11.463  18.772  0.00  0.00    +0.000 A 
ATOM     26  F   UNL     1      -3.502  12.084  18.815  0.00  0.00    +0.000 F 
ATOM     27  C   UNL     1      -1.339  11.784  19.706  0.00  0.00    +0.000 A 
ATOM     28  C   UNL     1      -0.095  11.143  19.660  0.00  0.00    +0.000 A 
ATOM     29 CL   UNL     1       1.068  11.603  20.854  0.00  0.00    +0.000 Cl
ENDBRANCH  21  22
ENDBRANCH   4  20
TORSDOF 6
ENDMDL
MODEL 3
REMARK VINA RESULT:      -7.9      2.172      4.105
REMARK  Name = 
REMARK  8 active torsions:
REMARK  status: ('A' for Active; 'I' for Inactive)
REMARK    1  A    between atoms: C_1  and  N_2
REMARK    2  A    between atoms: N_2  and  C_3
REMARK    3  A    between atoms: N_2  and  C_4
REMARK    4  A    between atoms: C_4  and  C_5
REMARK    5  A    between atoms: C_5  and  N_6
REMARK    6  A    between atoms: N_6  and  C_7
REMARK    7  A    between atoms: N_10  and  N_11
REMARK    8  A    between atoms: C_12  and  C_13
REMARK                            x       y       z     vdW  Elec       q    Type
REMARK                         _______ _______ _______ _____ _____    ______ ____
ROOT
ATOM      1  C   UNL     1       4.322   4.761  16.873  0.00  0.00    +0.000 A 
ATOM      2  N   UNL     1       3.992   6.067  16.928  0.00  0.00    +0.000 NA
ATOM      3  C   UNL     1       3.018   6.438  17.773  0.00  0.00    +0.000 A 
ATOM      4  N   UNL     1       2.753   7.812  17.910  0.00  0.00    +0.000 N 
ATOM      5  N   UNL     1       2.288   5.573  18.478  0.00  0.00    +0.000 NA
ATOM      6  C   UNL     1       2.551   4.272  18.371  0.00  0.00    +0.000 A 
ATOM      7  C   UNL     1       1.748   3.396  19.077  0.00  0.00    +0.000 A 
ATOM      8  C   UNL     1       1.971   2.014  19.073  0.00  0.00    +0.000 A 
ATOM      9  C   UNL     1       3.040   1.507  18.363  0.00  0.00    +0.000 A 
ATOM     10  C   UNL     1       3.865   2.371  17.640  0.00  0.00    +0.000 A 
ATOM     11  C   UNL     1       3.603   3.775  17.600  0.00  0.00    +0.000 A 
ATOM     12  H   UNL     1       3.185   8.385  17.201  0.00  0.00    +0.000 HD
ENDROOT
BRANCH   1  13
ATOM     13  N   UNL     1       5.376   4.366  16.013  0.00  0.00    +0.000 N 
ATOM     14  H   UNL     1       5.625   3.400  16.206  0.00  0.00    +0.000 HD
BRANCH  13  15
ATOM     15  C   UNL     1       6.597   5.177  16.178  0.00  0.00    +0.000 C 
BRANCH  15  16
ATOM     16  C   UNL     1       7.475   4.679  17.364  0.00  0.00    +0.000 C 
BRANCH  16  18
ATOM     17  C   UNL     1       7.563   7.052  17.879  0.00  0.00    +0.000 C 
ATOM     18  N   UNL     1       7.709   5.699  18.421  0.00  0.00    +0.000 NA
ATOM     19  C   UNL     1       6.752   5.523  19.522  0.00  0.00    +0.000 C 
ENDBRANCH  16  18
ENDBRANCH  15  16
ENDBRANCH  13  15
ENDBRANCH   1  13
BRANCH   4  20
ATOM     20  N   UNL     1       2.225   8.276  19.079  0.00  0.00    +0.000 NA
ATOM     21  C   UNL     1       1.298   9.178  18.980  0.00  0.00    +0.000 C 
BRANCH  21  22
ATOM     22  C   UNL     1       0.622   9.726  20.184  0.00  0.00    +0.000 A 
ATOM     23  C   UNL     1       0.586   8.954  21.357  0.00  0.00    +0.000 A 
ATOM     24  C   UNL     1      -0.082   9.422  22.494  0.00  0.00    +0.000 A 
ATOM     25  C   UNL     1      -0.716  10.658  22.456  0.00  0.00    +0.000 A 
ATOM     26  F   UNL     1      -1.366  11.102  23.540  0.00  0.00    +0.000 F 
ATOM     27  C   UNL     1      -0.685  11.441  21.308  0.00  0.00    +0.000 A 
ATOM     28  C   UNL     1      -0.014  10.978  20.170  0.00  0.00    +0.000 A 
ATOM     29 CL   UNL     1      -0.025  12.007  18.780  0.00  0.00    +0.000 Cl
ENDBRANCH  21  22
ENDBRANCH   4  20
TORSDOF 6
ENDMDL
MODEL 4
REMARK VINA RESULT:      -7.8      2.034      4.332
REMARK  Name = 
REMARK  8 active torsions:
REMARK  status: ('A' for Active; 'I' for Inactive)
REMARK    1  A    between atoms: C_1  and  N_2
REMARK    2  A    between atoms: N_2  and  C_3
REMARK    3  A    between atoms: N_2  and  C_4
REMARK    4  A    between atoms: C_4  and  C_5
REMARK    5  A    between atoms: C_5  and  N_6
REMARK    6  A    between atoms: N_6  and  C_7
REMARK    7  A    between atoms: N_10  and  N_11
REMARK    8  A    between atoms: C_12  and  C_13
REMARK                            x       y       z     vdW  Elec       q    Type
REMARK                         _______ _______ _______ _____ _____    ______ ____
ROOT
ATOM      1  C   UNL     1       4.431   4.606  19.002  0.00  0.00    +0.000 A 
ATOM      2  N   UNL     1       4.259   5.789  18.379  0.00  0.00    +0.000 NA
ATOM      3  C   UNL     1       3.123   6.466  18.609  0.00  0.00    +0.000 A 
ATOM      4  N   UNL     1       2.996   7.748  18.046  0.00  0.00    +0.000 N 
ATOM      5  N   UNL     1       2.113   5.981  19.332  0.00  0.00    +0.000 NA
ATOM      6  C   UNL     1       2.239   4.778  19.888  0.00  0.00    +0.000 A 
ATOM      7  C   UNL     1       1.158   4.282  20.593  0.00  0.00    +0.000 A 
ATOM      8  C   UNL     1       1.204   3.051  21.256  0.00  0.00    +0.000 A 
ATOM      9  C   UNL     1       2.371   2.315  21.230  0.00  0.00    +0.000 A 
ATOM     10  C   UNL     1       3.476   2.793  20.523  0.00  0.00    +0.000 A 
ATOM     11  C   UNL     1       3.410   4.023  19.800  0.00  0.00    +0.000 A 
ATOM     12  H   UNL     1       3.691   7.959  17.346  0.00  0.00    +0.000 HD
ENDROOT
BRANCH   1  13
ATOM     13  N   UNL     1       5.644   3.904  18.798  0.00  0.00    +0.000 N 
ATOM     14  H   UNL     1       6.362   4.285  19.407  0.00  0.00    +0.000 HD
BRANCH  13  15
ATOM     15  C   UNL     1       6.146   3.999  17.414  0.00  0.00    +0.000 C 
BRANCH  15  16
ATOM     16  C   UNL     1       7.472   4.810  17.327  0.00  0.00    +0.000 C 
BRANCH  16  18
ATOM     17  C   UNL     1       6.218   5.933  15.575  0.00  0.00    +0.000 C 
ATOM     18  N   UNL     1       7.408   5.992  16.426  0.00  0.00    +0.000 NA
ATOM     19  C   UNL     1       7.367   7.232  17.213  0.00  0.00    +0.000 C 
ENDBRANCH  16  18
ENDBRANCH  15  16
ENDBRANCH  13  15
ENDBRANCH   1  13
BRANCH   4  20
ATOM     20  N   UNL     1       2.193   8.666  18.655  0.00  0.00    +0.000 NA
ATOM     21  C   UNL     1       1.611   9.532  17.883  0.00  0.00    +0.000 C 
BRANCH  21  22
ATOM     22  C   UNL     1       0.681  10.553  18.431  0.00  0.00    +0.000 A 
ATOM     23  C   UNL     1      -0.625  10.171  18.778  0.00  0.00    +0.000 A 
ATOM     24  C   UNL     1      -1.539  11.118  19.253  0.00  0.00    +0.000 A 
ATOM     25  C   UNL     1      -1.147  12.445  19.378  0.00  0.00    +0.000 A 
ATOM     26  F   UNL     1      -2.025  13.355  19.822  0.00  0.00    +0.000 F 
ATOM     27  C   UNL     1       0.143  12.842  19.048  0.00  0.00    +0.000 A 
ATOM     28  C   UNL     1       1.062  11.897  18.577  0.00  0.00    +0.000 A 
ATOM     29 CL   UNL     1       2.645  12.470  18.183  0.00  0.00    +0.000 Cl
ENDBRANCH  21  22
ENDBRANCH   4  20
TORSDOF 6
ENDMDL
MODEL 5
REMARK VINA RESULT:      -7.7      2.201      4.275
REMARK  Name = 
REMARK  8 active torsions:
REMARK  status: ('A' for Active; 'I' for Inactive)
REMARK    1  A    between atoms: C_1  and  N_2
REMARK    2  A    between atoms: N_2  and  C_3
REMARK    3  A    between atoms: N_2  and  C_4
REMARK    4  A    between atoms: C_4  and  C_5
REMARK    5  A    between atoms: C_5  and  N_6
REMARK    6  A    between atoms: N_6  and  C_7
REMARK    7  A    between atoms: N_10  and  N_11
REMARK    8  A    between atoms: C_12  and  C_13
REMARK                            x       y       z     vdW  Elec       q    Type
REMARK                         _______ _______ _______ _____ _____    ______ ____
ROOT
ATOM      1  C   UNL     1       4.079   4.437  18.087  0.00  0.00    +0.000 A 
ATOM      2  N   UNL     1       3.748   5.612  17.515  0.00  0.00    +0.000 NA
ATOM      3  C   UNL     1       2.877   6.405  18.158  0.00  0.00    +0.000 A 
ATOM      4  N   UNL     1       2.620   7.676  17.615  0.00  0.00    +0.000 N 
ATOM      5  N   UNL     1       2.241   6.046  19.273  0.00  0.00    +0.000 NA
ATOM      6  C   UNL     1       2.500   4.854  19.806  0.00  0.00    +0.000 A 
ATOM      7  C   UNL     1       1.792   4.489  20.935  0.00  0.00    +0.000 A 
ATOM      8  C   UNL     1       2.023   3.279  21.600  0.00  0.00    +0.000 A 
ATOM      9  C   UNL     1       3.005   2.431  21.132  0.00  0.00    +0.000 A 
ATOM     10  C   UNL     1       3.733   2.775  19.992  0.00  0.00    +0.000 A 
ATOM     11  C   UNL     1       3.458   3.983  19.281  0.00  0.00    +0.000 A 
ATOM     12  H   UNL     1       2.961   7.796  16.673  0.00  0.00    +0.000 HD
ENDROOT
BRANCH   1  13
ATOM     13  N   UNL     1       5.028   3.612  17.436  0.00  0.00    +0.000 N 
ATOM     14  H   UNL     1       5.577   3.116  18.131  0.00  0.00    +0.000 HD
BRANCH  13  15
ATOM     15  C   UNL     1       5.969   4.364  16.586  0.00  0.00    +0.000 C 
BRANCH  15  16
ATOM     16  C   UNL     1       7.274   4.741  17.348  0.00  0.00    +0.000 C 
BRANCH  16  18
ATOM     17  C   UNL     1       7.984   5.784  19.425  0.00  0.00    +0.000 C 
ATOM     18  N   UNL     1       7.143   5.928  18.235  0.00  0.00    +0.000 NA
ATOM     19  C   UNL     1       7.539   7.147  17.517  0.00  0.00    +0.000 C 
ENDBRANCH  16  18
ENDBRANCH  15  16
ENDBRANCH  13  15
ENDBRANCH   1  13
BRANCH   4  20
ATOM     20  N   UNL     1       2.230   8.688  18.441  0.00  0.00    +0.000 NA
ATOM     21  C   UNL     1       1.243   9.425  18.032  0.00  0.00    +0.000 C 
BRANCH  21  22
ATOM     22  C   UNL     1       0.707  10.529  18.869  0.00  0.00    +0.000 A 
ATOM     23  C   UNL     1      -0.438  10.300  19.650  0.00  0.00    +0.000 A 
ATOM     24  C   UNL     1      -0.995  11.333  20.413  0.00  0.00    +0.000 A 
ATOM     25  C   UNL     1      -0.410  12.593  20.391  0.00  0.00    +0.000 A 
ATOM     26  F   UNL     1      -0.949  13.585  21.112  0.00  0.00    +0.000 F 
ATOM     27  C   UNL     1       0.728  12.838  19.632  0.00  0.00    +0.000 A 
ATOM     28  C   UNL     1       1.291  11.806  18.871  0.00  0.00    +0.000 A 
ATOM     29 CL   UNL     1       2.702  12.193  17.949  0.00  0.00    +0.000 Cl
ENDBRANCH  21  22
ENDBRANCH   4  20
TORSDOF 6
ENDMDL
MODEL 6
REMARK VINA RESULT:      -7.7      2.022      4.264
REMARK  Name = 
REMARK  8 active torsions:
REMARK  status: ('A' for Active; 'I' for Inactive)
REMARK    1  A    between atoms: C_1  and  N_2
REMARK    2  A    between atoms: N_2  and  C_3
REMARK    3  A    between atoms: N_2  and  C_4
REMARK    4  A    between atoms: C_4  and  C_5
REMARK    5  A    between atoms: C_5  and  N_6
REMARK    6  A    between atoms: N_6  and  C_7
REMARK    7  A    between atoms: N_10  and  N_11
REMARK    8  A    between atoms: C_12  and  C_13
REMARK                            x       y       z     vdW  Elec       q    Type
REMARK                         _______ _______ _______ _____ _____    ______ ____
ROOT
ATOM      1  C   UNL     1       4.264   4.781  18.503  0.00  0.00    +0.000 A 
ATOM      2  N   UNL     1       3.976   5.967  17.933  0.00  0.00    +0.000 NA
ATOM      3  C   UNL     1       2.890   6.628  18.361  0.00  0.00    +0.000 A 
ATOM      4  N   UNL     1       2.655   7.914  17.844  0.00  0.00    +0.000 N 
ATOM      5  N   UNL     1       2.024   6.125  19.240  0.00  0.00    +0.000 NA
ATOM      6  C   UNL     1       2.255   4.918  19.753  0.00  0.00    +0.000 A 
ATOM      7  C   UNL     1       1.315   4.403  20.626  0.00  0.00    +0.000 A 
ATOM      8  C   UNL     1       1.486   3.165  21.257  0.00  0.00    +0.000 A 
ATOM      9  C   UNL     1       2.639   2.444  21.023  0.00  0.00    +0.000 A 
ATOM     10  C   UNL     1       3.602   2.942  20.143  0.00  0.00    +0.000 A 
ATOM     11  C   UNL     1       3.401   4.178  19.456  0.00  0.00    +0.000 A 
ATOM     12  H   UNL     1       3.219   8.141  17.038  0.00  0.00    +0.000 HD
ENDROOT
BRANCH   1  13
ATOM     13  N   UNL     1       5.431   4.095  18.085  0.00  0.00    +0.000 N 
ATOM     14  H   UNL     1       5.850   3.625  18.882  0.00  0.00    +0.000 HD
BRANCH  13  15
ATOM     15  C   UNL     1       6.456   4.985  17.510  0.00  0.00    +0.000 C 
BRANCH  15  16
ATOM     16  C   UNL     1       7.123   4.370  16.244  0.00  0.00    +0.000 C 
BRANCH  16  18
ATOM     17  C   UNL     1       6.294   4.009  13.989  0.00  0.00    +0.000 C 
ATOM     18  N   UNL     1       6.718   5.014  14.966  0.00  0.00    +0.000 NA
ATOM     19  C   UNL     1       5.608   5.950  15.196  0.00  0.00    +0.000 C 
ENDBRANCH  16  18
ENDBRANCH  15  16
ENDBRANCH  13  15
ENDBRANCH   1  13
BRANCH   4  20
ATOM     20  N   UNL     1       1.960   8.818  18.592  0.00  0.00    +0.000 NA
ATOM     21  C   UNL     1       0.919   9.355  18.034  0.00  0.00    +0.000 C 
BRANCH  21  22
ATOM     22  C   UNL     1       0.061  10.320  18.769  0.00  0.00    +0.000 A 
ATOM     23  C   UNL     1       0.541  10.892  19.959  0.00  0.00    +0.000 A 
ATOM     24  C   UNL     1      -0.261  11.769  20.698  0.00  0.00    +0.000 A 
ATOM     25  C   UNL     1      -1.541  12.070  20.250  0.00  0.00    +0.000 A 
ATOM     26  F   UNL     1      -2.314  12.900  20.963  0.00  0.00    +0.000 F 
ATOM     27  C   UNL     1      -2.031  11.521  19.070  0.00  0.00    +0.000 A 
ATOM     28  C   UNL     1      -1.230  10.647  18.326  0.00  0.00    +0.000 A 
ATOM     29 CL   UNL     1      -1.914  10.003  16.873  0.00  0.00    +0.000 Cl
ENDBRANCH  21  22
ENDBRANCH   4  20
TORSDOF 6
ENDMDL
MODEL 7
REMARK VINA RESULT:      -7.7      3.869      8.893
REMARK  Name = 
REMARK  8 active torsions:
REMARK  status: ('A' for Active; 'I' for Inactive)
REMARK    1  A    between atoms: C_1  and  N_2
REMARK    2  A    between atoms: N_2  and  C_3
REMARK    3  A    between atoms: N_2  and  C_4
REMARK    4  A    between atoms: C_4  and  C_5
REMARK    5  A    between atoms: C_5  and  N_6
REMARK    6  A    between atoms: N_6  and  C_7
REMARK    7  A    between atoms: N_10  and  N_11
REMARK    8  A    between atoms: C_12  and  C_13
REMARK                            x       y       z     vdW  Elec       q    Type
REMARK                         _______ _______ _______ _____ _____    ______ ____
ROOT
ATOM      1  C   UNL     1       0.125  11.064  19.386  0.00  0.00    +0.000 A 
ATOM      2  N   UNL     1       0.948  10.338  18.604  0.00  0.00    +0.000 NA
ATOM      3  C   UNL     1       1.441   9.192  19.098  0.00  0.00    +0.000 A 
ATOM      4  N   UNL     1       2.208   8.382  18.241  0.00  0.00    +0.000 N 
ATOM      5  N   UNL     1       1.250   8.790  20.355  0.00  0.00    +0.000 NA
ATOM      6  C   UNL     1       0.503   9.540  21.163  0.00  0.00    +0.000 A 
ATOM      7  C   UNL     1       0.360   9.124  22.473  0.00  0.00    +0.000 A 
ATOM      8  C   UNL     1      -0.441   9.813  23.390  0.00  0.00    +0.000 A 
ATOM      9  C   UNL     1      -1.134  10.931  22.971  0.00  0.00    +0.000 A 
ATOM     10  C   UNL     1      -1.005  11.373  21.654  0.00  0.00    +0.000 A 
ATOM     11  C   UNL     1      -0.142  10.702  20.734  0.00  0.00    +0.000 A 
ATOM     12  H   UNL     1       2.490   8.841  17.388  0.00  0.00    +0.000 HD
ENDROOT
BRANCH   1  13
ATOM     13  N   UNL     1      -0.433  12.255  18.859  0.00  0.00    +0.000 N 
ATOM     14  H   UNL     1      -0.902  12.765  19.602  0.00  0.00    +0.000 HD
BRANCH  13  15
ATOM     15  C   UNL     1      -1.425  12.012  17.796  0.00  0.00    +0.000 C 
BRANCH  15  16
ATOM     16  C   UNL     1      -2.807  11.582  18.372  0.00  0.00    +0.000 C 
BRANCH  16  18
ATOM     17  C   UNL     1      -3.530  10.537  16.301  0.00  0.00    +0.000 C 
ATOM     18  N   UNL     1      -3.889  11.487  17.356  0.00  0.00    +0.000 NA
ATOM     19  C   UNL     1      -5.142  11.046  17.985  0.00  0.00    +0.000 C 
ENDBRANCH  16  18
ENDBRANCH  15  16
ENDBRANCH  13  15
ENDBRANCH   1  13
BRANCH   4  20
ATOM     20  N   UNL     1       2.257   7.037  18.461  0.00  0.00    +0.000 NA
ATOM     21  C   UNL     1       3.126   6.366  17.769  0.00  0.00    +0.000 C 
BRANCH  21  22
ATOM     22  C   UNL     1       3.296   4.903  17.955  0.00  0.00    +0.000 A 
ATOM     23  C   UNL     1       2.317   4.031  17.452  0.00  0.00    +0.000 A 
ATOM     24  C   UNL     1       2.426   2.650  17.651  0.00  0.00    +0.000 A 
ATOM     25  C   UNL     1       3.511   2.143  18.356  0.00  0.00    +0.000 A 
ATOM     26  F   UNL     1       3.610   0.822  18.557  0.00  0.00    +0.000 F 
ATOM     27  C   UNL     1       4.495   2.988  18.855  0.00  0.00    +0.000 A 
ATOM     28  C   UNL     1       4.392   4.369  18.654  0.00  0.00    +0.000 A 
ATOM     29 CL   UNL     1       5.654   5.353  19.310  0.00  0.00    +0.000 Cl
ENDBRANCH  21  22
ENDBRANCH   4  20
TORSDOF 6
ENDMDL
MODEL 8
REMARK VINA RESULT:      -7.7      1.063      1.413
REMARK  Name = 
REMARK  8 active torsions:
REMARK  status: ('A' for Active; 'I' for Inactive)
REMARK    1  A    between atoms: C_1  and  N_2
REMARK    2  A    between atoms: N_2  and  C_3
REMARK    3  A    between atoms: N_2  and  C_4
REMARK    4  A    between atoms: C_4  and  C_5
REMARK    5  A    between atoms: C_5  and  N_6
REMARK    6  A    between atoms: N_6  and  C_7
REMARK    7  A    between atoms: N_10  and  N_11
REMARK    8  A    between atoms: C_12  and  C_13
REMARK                            x       y       z     vdW  Elec       q    Type
REMARK                         _______ _______ _______ _____ _____    ______ ____
ROOT
ATOM      1  C   UNL     1       4.666   4.129  18.832  0.00  0.00    +0.000 A 
ATOM      2  N   UNL     1       4.008   4.874  19.742  0.00  0.00    +0.000 NA
ATOM      3  C   UNL     1       3.580   6.091  19.373  0.00  0.00    +0.000 A 
ATOM      4  N   UNL     1       2.798   6.819  20.287  0.00  0.00    +0.000 N 
ATOM      5  N   UNL     1       3.866   6.644  18.194  0.00  0.00    +0.000 NA
ATOM      6  C   UNL     1       4.585   5.949  17.315  0.00  0.00    +0.000 A 
ATOM      7  C   UNL     1       4.906   6.565  16.120  0.00  0.00    +0.000 A 
ATOM      8  C   UNL     1       5.615   5.906  15.110  0.00  0.00    +0.000 A 
ATOM      9  C   UNL     1       5.987   4.590  15.297  0.00  0.00    +0.000 A 
ATOM     10  C   UNL     1       5.676   3.946  16.496  0.00  0.00    +0.000 A 
ATOM     11  C   UNL     1       5.002   4.637  17.549  0.00  0.00    +0.000 A 
ATOM     12  H   UNL     1       2.802   6.440  21.222  0.00  0.00    +0.000 HD
ENDROOT
BRANCH   1  13
ATOM     13  N   UNL     1       5.086   2.827  19.200  0.00  0.00    +0.000 N 
ATOM     14  H   UNL     1       5.494   2.364  18.394  0.00  0.00    +0.000 HD
BRANCH  13  15
ATOM     15  C   UNL     1       3.985   1.976  19.687  0.00  0.00    +0.000 C 
BRANCH  15  16
ATOM     16  C   UNL     1       2.902   1.737  18.593  0.00  0.00    +0.000 C 
BRANCH  16  18
ATOM     17  C   UNL     1       1.479   2.520  20.401  0.00  0.00    +0.000 C 
ATOM     18  N   UNL     1       1.538   2.192  18.975  0.00  0.00    +0.000 NA
ATOM     19  C   UNL     1       1.161   3.382  18.198  0.00  0.00    +0.000 C 
ENDBRANCH  16  18
ENDBRANCH  15  16
ENDBRANCH  13  15
ENDBRANCH   1  13
BRANCH   4  20
ATOM     20  N   UNL     1       1.907   7.739  19.818  0.00  0.00    +0.000 NA
ATOM     21  C   UNL     1       1.411   8.563  20.689  0.00  0.00    +0.000 C 
BRANCH  21  22
ATOM     22  C   UNL     1       0.463   9.634  20.285  0.00  0.00    +0.000 A 
ATOM     23  C   UNL     1      -0.250  10.326  21.278  0.00  0.00    +0.000 A 
ATOM     24  C   UNL     1      -1.183  11.308  20.928  0.00  0.00    +0.000 A 
ATOM     25  C   UNL     1      -1.405  11.595  19.586  0.00  0.00    +0.000 A 
ATOM     26  F   UNL     1      -2.306  12.527  19.249  0.00  0.00    +0.000 F 
ATOM     27  C   UNL     1      -0.703  10.928  18.589  0.00  0.00    +0.000 A 
ATOM     28  C   UNL     1       0.235   9.948  18.935  0.00  0.00    +0.000 A 
ATOM     29 CL   UNL     1       1.062   9.161  17.637  0.00  0.00    +0.000 Cl
ENDBRANCH  21  22
ENDBRANCH   4  20
TORSDOF 6
ENDMDL
MODEL 9
REMARK VINA RESULT:      -7.6      2.026      4.093
REMARK  Name = 
REMARK  8 active torsions:
REMARK  status: ('A' for Active; 'I' for Inactive)
REMARK    1  A    between atoms: C_1  and  N_2
REMARK    2  A    between atoms: N_2  and  C_3
REMARK    3  A    between atoms: N_2  and  C_4
REMARK    4  A    between atoms: C_4  and  C_5
REMARK    5  A    between atoms: C_5  and  N_6
REMARK    6  A    between atoms: N_6  and  C_7
REMARK    7  A    between atoms: N_10  and  N_11
REMARK    8  A    between atoms: C_12  and  C_13
REMARK                            x       y       z     vdW  Elec       q    Type
REMARK                         _______ _______ _______ _____ _____    ______ ____
ROOT
ATOM      1  C   UNL     1       4.588   4.624  18.658  0.00  0.00    +0.000 A 
ATOM      2  N   UNL     1       4.521   5.895  18.217  0.00  0.00    +0.000 NA
ATOM      3  C   UNL     1       3.311   6.410  17.950  0.00  0.00    +0.000 A 
ATOM      4  N   UNL     1       3.237   7.769  17.598  0.00  0.00    +0.000 N 
ATOM      5  N   UNL     1       2.185   5.699  17.995  0.00  0.00    +0.000 NA
ATOM      6  C   UNL     1       2.246   4.418  18.353  0.00  0.00    +0.000 A 
ATOM      7  C   UNL     1       1.069   3.693  18.345  0.00  0.00    +0.000 A 
ATOM      8  C   UNL     1       1.016   2.355  18.751  0.00  0.00    +0.000 A 
ATOM      9  C   UNL     1       2.169   1.741  19.198  0.00  0.00    +0.000 A 
ATOM     10  C   UNL     1       3.371   2.451  19.214  0.00  0.00    +0.000 A 
ATOM     11  C   UNL     1       3.434   3.799  18.746  0.00  0.00    +0.000 A 
ATOM     12  H   UNL     1       4.129   8.184  17.376  0.00  0.00    +0.000 HD
ENDROOT
BRANCH   1  13
ATOM     13  N   UNL     1       5.858   4.085  18.980  0.00  0.00    +0.000 N 
ATOM     14  H   UNL     1       5.916   3.934  19.982  0.00  0.00    +0.000 HD
BRANCH  13  15
ATOM     15  C   UNL     1       6.977   4.967  18.601  0.00  0.00    +0.000 C 
BRANCH  15  16
ATOM     16  C   UNL     1       7.588   4.579  17.222  0.00  0.00    +0.000 C 
BRANCH  16  18
ATOM     17  C   UNL     1       6.363   5.411  15.296  0.00  0.00    +0.000 C 
ATOM     18  N   UNL     1       7.496   5.648  16.192  0.00  0.00    +0.000 NA
ATOM     19  C   UNL     1       7.331   6.961  16.832  0.00  0.00    +0.000 C 
ENDBRANCH  16  18
ENDBRANCH  15  16
ENDBRANCH  13  15
ENDBRANCH   1  13
BRANCH   4  20
ATOM     20  N   UNL     1       2.093   8.464  17.857  0.00  0.00    +0.000 NA
ATOM     21  C   UNL     1       2.236   9.657  18.349  0.00  0.00    +0.000 C 
BRANCH  21  22
ATOM     22  C   UNL     1       1.062  10.521  18.631  0.00  0.00    +0.000 A 
ATOM     23  C   UNL     1      -0.175   9.921  18.920  0.00  0.00    +0.000 A 
ATOM     24  C   UNL     1      -1.310  10.708  19.145  0.00  0.00    +0.000 A 
ATOM     25  C   UNL     1      -1.209  12.092  19.078  0.00  0.00    +0.000 A 
ATOM     26  F   UNL     1      -2.298  12.846  19.282  0.00  0.00    +0.000 F 
ATOM     27  C   UNL     1       0.007  12.706  18.802  0.00  0.00    +0.000 A 
ATOM     28  C   UNL     1       1.146  11.922  18.581  0.00  0.00    +0.000 A 
ATOM     29 CL   UNL     1       2.620  12.760  18.239  0.00  0.00    +0.000 Cl
ENDBRANCH  21  22
ENDBRANCH   4  20
TORSDOF 6
ENDMDL
