MODEL 1
REMARK VINA RESULT:      -8.2      0.000      0.000
REMARK  Name = 
REMARK  14 active torsions:
REMARK  status: ('A' for Active; 'I' for Inactive)
REMARK    1  A    between atoms: C_1  and  C_2
REMARK    2  A    between atoms: C_2  and  C_3
REMARK    3  A    between atoms: C_3  and  C_4
REMARK    4  A    between atoms: C_4  and  C_5
REMARK    5  A    between atoms: C_5  and  N_6
REMARK    6  A    between atoms: N_6  and  C_7
REMARK    7  A    between atoms: C_8  and  C_10
REMARK    8  A    between atoms: C_13  and  C_14
REMARK    9  A    between atoms: C_20  and  C_21
REMARK   10  A    between atoms: C_21  and  C_22
REMARK   11  A    between atoms: C_27  and  C_28
REMARK   12  A    between atoms: C_28  and  C_29
REMARK   13  A    between atoms: C_29  and  C_30
REMARK   14  A    between atoms: C_30  and  O_32
REMARK                            x       y       z     vdW  Elec       q    Type
REMARK                         _______ _______ _______ _____ _____    ______ ____
ROOT
ATOM      1  C   UNL     1       2.936   6.594  19.401  0.00  0.00    +0.000 C 
ATOM      2  C   UNL     1       2.765   5.210  20.025  0.00  0.00    +0.000 C 
ATOM      3  C   UNL     1       1.497   4.464  19.613  0.00  0.00    +0.000 C 
ATOM      4  C   UNL     1       1.778   4.115  18.152  0.00  0.00    +0.000 C 
ATOM      5  C   UNL     1       3.165   4.719  17.948  0.00  0.00    +0.000 C 
ATOM      6  O   UNL     1       3.756   4.479  19.250  0.00  0.00    +0.000 OA
ATOM      7  C   UNL     1       3.070   6.262  17.889  0.00  0.00    +0.000 C 
ENDROOT
BRANCH   1  11
ATOM      8  C   UNL     1       0.879   9.058  20.986  0.00  0.00    +0.000 A 
ATOM      9  C   UNL     1       1.115   9.593  19.737  0.00  0.00    +0.000 A 
ATOM     10  O   UNL     1       1.772   8.680  18.979  0.00  0.00    +0.000 OA
ATOM     11  C   UNL     1       1.930   7.603  19.814  0.00  0.00    +0.000 A 
ATOM     12  N   UNL     1       1.368   7.757  21.001  0.00  0.00    +0.000 NA
BRANCH   8  15
ATOM     13  N   UNL     1      -0.783  10.621  21.953  0.00  0.00    +0.000 N 
ATOM     14  C   UNL     1      -1.109  11.169  20.644  0.00  0.00    +0.000 C 
ATOM     15  C   UNL     1       0.351   9.804  22.130  0.00  0.00    +0.000 C 
ATOM     16  O   UNL     1       0.900   9.693  23.229  0.00  0.00    +0.000 OA
BRANCH  13  17
ATOM     17  C   UNL     1      -1.301  11.329  23.129  0.00  0.00    +0.000 C 
BRANCH  17  18
ATOM     18  C   UNL     1      -1.167  12.854  23.048  0.00  0.00    +0.000 C 
BRANCH  18  19
ATOM     19  C   UNL     1      -2.470  13.579  23.394  0.00  0.00    +0.000 C 
BRANCH  19  21
ATOM     20  C   UNL     1      -4.497  12.843  22.093  0.00  0.00    +0.000 C 
ATOM     21  C   UNL     1      -3.662  12.624  23.343  0.00  0.00    +0.000 C 
ENDBRANCH  19  21
ENDBRANCH  18  19
ENDBRANCH  17  18
ENDBRANCH  13  17
ENDBRANCH   8  15
ENDBRANCH   1  11
BRANCH   7  22
ATOM     22  C   UNL     1       4.336   6.923  17.284  0.00  0.00    +0.000 C 
BRANCH  22  23
ATOM     23  C   UNL     1       5.616   6.103  17.373  0.00  0.00    +0.000 A 
ATOM     24  C   UNL     1       6.395   6.292  18.540  0.00  0.00    +0.000 A 
ATOM     25  C   UNL     1       7.537   5.536  18.791  0.00  0.00    +0.000 A 
ATOM     26  C   UNL     1       7.918   4.562  17.885  0.00  0.00    +0.000 A 
ATOM     27  C   UNL     1       7.198   4.395  16.702  0.00  0.00    +0.000 A 
ATOM     28  C   UNL     1       6.057   5.172  16.402  0.00  0.00    +0.000 A 
BRANCH  28  29
ATOM     29  C   UNL     1       5.450   5.100  15.007  0.00  0.00    +0.000 C 
BRANCH  29  30
ATOM     30  C   UNL     1       6.021   4.018  14.079  0.00  0.00    +0.000 C 
BRANCH  30  31
ATOM     31  C   UNL     1       7.024   4.580  13.101  0.00  0.00    +0.000 C 
ATOM     32  O   UNL     1       7.782   5.511  13.319  0.00  0.00    +0.000 OA
BRANCH  31  33
ATOM     33  O   UNL     1       7.008   3.922  11.916  0.00  0.00    +0.000 OA
ATOM     34  H   UNL     1       7.481   4.382  11.197  0.00  0.00    +0.000 HD
ENDBRANCH  31  33
ENDBRANCH  30  31
ENDBRANCH  29  30
ENDBRANCH  28  29
ENDBRANCH  22  23
ENDBRANCH   7  22
TORSDOF 12
ENDMDL
MODEL 2
REMARK VINA RESULT:      -7.9      2.169      3.310
REMARK  Name = 
REMARK  14 active torsions:
REMARK  status: ('A' for Active; 'I' for Inactive)
REMARK    1  A    between atoms: C_1  and  C_2
REMARK    2  A    between atoms: C_2  and  C_3
REMARK    3  A    between atoms: C_3  and  C_4
REMARK    4  A    between atoms: C_4  and  C_5
REMARK    5  A    between atoms: C_5  and  N_6
REMARK    6  A    between atoms: N_6  and  C_7
REMARK    7  A    between atoms: C_8  and  C_10
REMARK    8  A    between atoms: C_13  and  C_14
REMARK    9  A    between atoms: C_20  and  C_21
REMARK   10  A    between atoms: C_21  and  C_22
REMARK   11  A    between atoms: C_27  and  C_28
REMARK   12  A    between atoms: C_28  and  C_29
REMARK   13  A    between atoms: C_29  and  C_30
REMARK   14  A    between atoms: C_30  and  O_32
REMARK                            x       y       z     vdW  Elec       q    Type
REMARK                         _______ _______ _______ _____ _____    ______ ____
ROOT
ATOM      1  C   UNL     1       2.825   4.688  20.025  0.00  0.00    +0.000 C 
ATOM      2  C   UNL     1       1.990   3.625  20.739  0.00  0.00    +0.000 C 
ATOM      3  C   UNL     1       0.680   3.255  20.045  0.00  0.00    +0.000 C 
ATOM      4  C   UNL     1       1.163   2.494  18.811  0.00  0.00    +0.000 C 
ATOM      5  C   UNL     1       2.679   2.550  18.983  0.00  0.00    +0.000 C 
ATOM      6  O   UNL     1       2.789   2.450  20.426  0.00  0.00    +0.000 OA
ATOM      7  C   UNL     1       3.196   3.978  18.694  0.00  0.00    +0.000 C 
ENDROOT
BRANCH   1  11
ATOM      8  C   UNL     1       1.570   8.004  20.516  0.00  0.00    +0.000 A 
ATOM      9  C   UNL     1       2.233   8.088  19.310  0.00  0.00    +0.000 A 
ATOM     10  O   UNL     1       2.637   6.848  18.937  0.00  0.00    +0.000 OA
ATOM     11  C   UNL     1       2.209   6.036  19.957  0.00  0.00    +0.000 A 
ATOM     12  N   UNL     1       1.522   6.667  20.894  0.00  0.00    +0.000 NA
BRANCH   8  15
ATOM     13  N   UNL     1       0.080   9.954  20.856  0.00  0.00    +0.000 N 
ATOM     14  C   UNL     1      -0.234  10.031  19.437  0.00  0.00    +0.000 C 
ATOM     15  C   UNL     1       1.142   9.152  21.318  0.00  0.00    +0.000 C 
ATOM     16  O   UNL     1       1.710   9.388  22.387  0.00  0.00    +0.000 OA
BRANCH  13  17
ATOM     17  C   UNL     1      -0.340  11.077  21.702  0.00  0.00    +0.000 C 
BRANCH  17  18
ATOM     18  C   UNL     1      -1.463  11.928  21.097  0.00  0.00    +0.000 C 
BRANCH  18  19
ATOM     19  C   UNL     1      -1.243  13.428  21.304  0.00  0.00    +0.000 C 
BRANCH  19  21
ATOM     20  C   UNL     1      -0.866  15.420  19.808  0.00  0.00    +0.000 C 
ATOM     21  C   UNL     1      -0.398  14.022  20.177  0.00  0.00    +0.000 C 
ENDBRANCH  19  21
ENDBRANCH  18  19
ENDBRANCH  17  18
ENDBRANCH  13  17
ENDBRANCH   8  15
ENDBRANCH   1  11
BRANCH   7  22
ATOM     22  C   UNL     1       4.726   4.028  18.444  0.00  0.00    +0.000 C 
BRANCH  22  23
ATOM     23  C   UNL     1       5.153   4.467  17.050  0.00  0.00    +0.000 A 
ATOM     24  C   UNL     1       5.033   3.495  16.028  0.00  0.00    +0.000 A 
ATOM     25  C   UNL     1       5.299   3.795  14.695  0.00  0.00    +0.000 A 
ATOM     26  C   UNL     1       5.678   5.081  14.351  0.00  0.00    +0.000 A 
ATOM     27  C   UNL     1       5.857   6.041  15.347  0.00  0.00    +0.000 A 
ATOM     28  C   UNL     1       5.631   5.756  16.713  0.00  0.00    +0.000 A 
BRANCH  28  29
ATOM     29  C   UNL     1       6.056   6.770  17.766  0.00  0.00    +0.000 C 
BRANCH  29  30
ATOM     30  C   UNL     1       7.531   6.723  18.191  0.00  0.00    +0.000 C 
BRANCH  30  31
ATOM     31  C   UNL     1       7.826   5.548  19.091  0.00  0.00    +0.000 C 
ATOM     32  O   UNL     1       7.661   5.522  20.299  0.00  0.00    +0.000 OA
BRANCH  31  33
ATOM     33  O   UNL     1       8.302   4.482  18.402  0.00  0.00    +0.000 OA
ATOM     34  H   UNL     1       9.253   4.533  18.194  0.00  0.00    +0.000 HD
ENDBRANCH  31  33
ENDBRANCH  30  31
ENDBRANCH  29  30
ENDBRANCH  28  29
ENDBRANCH  22  23
ENDBRANCH   7  22
TORSDOF 12
ENDMDL
MODEL 3
REMARK VINA RESULT:      -7.8      2.500      3.371
REMARK  Name = 
REMARK  14 active torsions:
REMARK  status: ('A' for Active; 'I' for Inactive)
REMARK    1  A    between atoms: C_1  and  C_2
REMARK    2  A    between atoms: C_2  and  C_3
REMARK    3  A    between atoms: C_3  and  C_4
REMARK    4  A    between atoms: C_4  and  C_5
REMARK    5  A    between atoms: C_5  and  N_6
REMARK    6  A    between atoms: N_6  and  C_7
REMARK    7  A    between atoms: C_8  and  C_10
REMARK    8  A    between atoms: C_13  and  C_14
REMARK    9  A    between atoms: C_20  and  C_21
REMARK   10  A    between atoms: C_21  and  C_22
REMARK   11  A    between atoms: C_27  and  C_28
REMARK   12  A    between atoms: C_28  and  C_29
REMARK   13  A    between atoms: C_29  and  C_30
REMARK   14  A    between atoms: C_30  and  O_32
REMARK                            x       y       z     vdW  Elec       q    Type
REMARK                         _______ _______ _______ _____ _____    ______ ____
ROOT
ATOM      1  C   UNL     1       2.890   4.945  20.198  0.00  0.00    +0.000 C 
ATOM      2  C   UNL     1       2.129   3.840  20.930  0.00  0.00    +0.000 C 
ATOM      3  C   UNL     1       0.861   3.352  20.231  0.00  0.00    +0.000 C 
ATOM      4  C   UNL     1       1.418   2.600  19.024  0.00  0.00    +0.000 C 
ATOM      5  C   UNL     1       2.922   2.775  19.212  0.00  0.00    +0.000 C 
ATOM      6  O   UNL     1       3.019   2.722  20.658  0.00  0.00    +0.000 OA
ATOM      7  C   UNL     1       3.333   4.232  18.891  0.00  0.00    +0.000 C 
ENDROOT
BRANCH   1  11
ATOM      8  C   UNL     1       1.411   8.183  20.570  0.00  0.00    +0.000 A 
ATOM      9  C   UNL     1       2.022   8.250  19.336  0.00  0.00    +0.000 A 
ATOM     10  O   UNL     1       2.504   7.025  19.011  0.00  0.00    +0.000 OA
ATOM     11  C   UNL     1       2.174   6.239  20.086  0.00  0.00    +0.000 A 
ATOM     12  N   UNL     1       1.476   6.869  21.017  0.00  0.00    +0.000 NA
BRANCH   8  15
ATOM     13  N   UNL     1      -0.218  10.024  20.882  0.00  0.00    +0.000 N 
ATOM     14  C   UNL     1      -0.606   9.991  19.480  0.00  0.00    +0.000 C 
ATOM     15  C   UNL     1       0.929   9.339  21.330  0.00  0.00    +0.000 C 
ATOM     16  O   UNL     1       1.527   9.682  22.352  0.00  0.00    +0.000 OA
BRANCH  13  17
ATOM     17  C   UNL     1      -0.688  11.158  21.687  0.00  0.00    +0.000 C 
BRANCH  17  18
ATOM     18  C   UNL     1      -0.045  12.498  21.311  0.00  0.00    +0.000 C 
BRANCH  18  19
ATOM     19  C   UNL     1      -1.065  13.519  20.801  0.00  0.00    +0.000 C 
BRANCH  19  21
ATOM     20  C   UNL     1      -0.422  13.462  18.367  0.00  0.00    +0.000 C 
ATOM     21  C   UNL     1      -0.507  14.314  19.622  0.00  0.00    +0.000 C 
ENDBRANCH  19  21
ENDBRANCH  18  19
ENDBRANCH  17  18
ENDBRANCH  13  17
ENDBRANCH   8  15
ENDBRANCH   1  11
BRANCH   7  22
ATOM     22  C   UNL     1       4.857   4.392  18.657  0.00  0.00    +0.000 C 
BRANCH  22  23
ATOM     23  C   UNL     1       5.286   4.601  17.211  0.00  0.00    +0.000 A 
ATOM     24  C   UNL     1       5.165   3.477  16.359  0.00  0.00    +0.000 A 
ATOM     25  C   UNL     1       5.432   3.558  14.995  0.00  0.00    +0.000 A 
ATOM     26  C   UNL     1       5.813   4.771  14.449  0.00  0.00    +0.000 A 
ATOM     27  C   UNL     1       5.992   5.879  15.278  0.00  0.00    +0.000 A 
ATOM     28  C   UNL     1       5.765   5.819  16.671  0.00  0.00    +0.000 A 
BRANCH  28  29
ATOM     29  C   UNL     1       6.190   6.988  17.548  0.00  0.00    +0.000 C 
BRANCH  29  30
ATOM     30  C   UNL     1       7.488   7.700  17.140  0.00  0.00    +0.000 C 
BRANCH  30  31
ATOM     31  C   UNL     1       8.268   8.189  18.336  0.00  0.00    +0.000 C 
ATOM     32  O   UNL     1       8.611   9.342  18.536  0.00  0.00    +0.000 OA
BRANCH  31  33
ATOM     33  O   UNL     1       8.555   7.187  19.204  0.00  0.00    +0.000 OA
ATOM     34  H   UNL     1       8.171   7.306  20.092  0.00  0.00    +0.000 HD
ENDBRANCH  31  33
ENDBRANCH  30  31
ENDBRANCH  29  30
ENDBRANCH  28  29
ENDBRANCH  22  23
ENDBRANCH   7  22
TORSDOF 12
ENDMDL
MODEL 4
REMARK VINA RESULT:      -7.8      2.571      3.715
REMARK  Name = 
REMARK  14 active torsions:
REMARK  status: ('A' for Active; 'I' for Inactive)
REMARK    1  A    between atoms: C_1  and  C_2
REMARK    2  A    between atoms: C_2  and  C_3
REMARK    3  A    between atoms: C_3  and  C_4
REMARK    4  A    between atoms: C_4  and  C_5
REMARK    5  A    between atoms: C_5  and  N_6
REMARK    6  A    between atoms: N_6  and  C_7
REMARK    7  A    between atoms: C_8  and  C_10
REMARK    8  A    between atoms: C_13  and  C_14
REMARK    9  A    between atoms: C_20  and  C_21
REMARK   10  A    between atoms: C_21  and  C_22
REMARK   11  A    between atoms: C_27  and  C_28
REMARK   12  A    between atoms: C_28  and  C_29
REMARK   13  A    between atoms: C_29  and  C_30
REMARK   14  A    between atoms: C_30  and  O_32
REMARK                            x       y       z     vdW  Elec       q    Type
REMARK                         _______ _______ _______ _____ _____    ______ ____
ROOT
ATOM      1  C   UNL     1       3.070   5.052  19.904  0.00  0.00    +0.000 C 
ATOM      2  C   UNL     1       2.210   4.365  20.964  0.00  0.00    +0.000 C 
ATOM      3  C   UNL     1       0.909   3.753  20.448  0.00  0.00    +0.000 C 
ATOM      4  C   UNL     1       1.406   2.561  19.631  0.00  0.00    +0.000 C 
ATOM      5  C   UNL     1       2.919   2.676  19.800  0.00  0.00    +0.000 C 
ATOM      6  O   UNL     1       3.000   3.161  21.164  0.00  0.00    +0.000 OA
ATOM      7  C   UNL     1       3.458   3.868  18.975  0.00  0.00    +0.000 C 
ENDROOT
BRANCH   1  11
ATOM      8  C   UNL     1       1.882   8.300  18.981  0.00  0.00    +0.000 A 
ATOM      9  C   UNL     1       2.499   7.847  17.834  0.00  0.00    +0.000 A 
ATOM     10  O   UNL     1       2.872   6.555  18.010  0.00  0.00    +0.000 OA
ATOM     11  C   UNL     1       2.472   6.262  19.289  0.00  0.00    +0.000 A 
ATOM     12  N   UNL     1       1.830   7.250  19.890  0.00  0.00    +0.000 NA
BRANCH   8  15
ATOM     13  N   UNL     1       0.835  10.014  20.432  0.00  0.00    +0.000 N 
ATOM     14  C   UNL     1       0.052   9.012  21.142  0.00  0.00    +0.000 C 
ATOM     15  C   UNL     1       1.502   9.692  19.234  0.00  0.00    +0.000 C 
ATOM     16  O   UNL     1       1.784  10.556  18.401  0.00  0.00    +0.000 OA
BRANCH  13  17
ATOM     17  C   UNL     1       0.497  11.423  20.663  0.00  0.00    +0.000 C 
BRANCH  17  18
ATOM     18  C   UNL     1      -0.994  11.742  20.499  0.00  0.00    +0.000 C 
BRANCH  18  19
ATOM     19  C   UNL     1      -1.368  12.082  19.054  0.00  0.00    +0.000 C 
BRANCH  19  21
ATOM     20  C   UNL     1      -2.694  11.277  17.070  0.00  0.00    +0.000 C 
ATOM     21  C   UNL     1      -1.968  10.871  18.341  0.00  0.00    +0.000 C 
ENDBRANCH  19  21
ENDBRANCH  18  19
ENDBRANCH  17  18
ENDBRANCH  13  17
ENDBRANCH   8  15
ENDBRANCH   1  11
BRANCH   7  22
ATOM     22  C   UNL     1       4.992   3.809  18.759  0.00  0.00    +0.000 C 
BRANCH  22  23
ATOM     23  C   UNL     1       5.490   4.309  17.409  0.00  0.00    +0.000 A 
ATOM     24  C   UNL     1       5.364   3.405  16.328  0.00  0.00    +0.000 A 
ATOM     25  C   UNL     1       5.691   3.770  15.024  0.00  0.00    +0.000 A 
ATOM     26  C   UNL     1       6.139   5.055  14.772  0.00  0.00    +0.000 A 
ATOM     27  C   UNL     1       6.324   5.945  15.829  0.00  0.00    +0.000 A 
ATOM     28  C   UNL     1       6.036   5.592  17.167  0.00  0.00    +0.000 A 
BRANCH  28  29
ATOM     29  C   UNL     1       6.466   6.522  18.293  0.00  0.00    +0.000 C 
BRANCH  29  30
ATOM     30  C   UNL     1       7.957   6.891  18.330  0.00  0.00    +0.000 C 
BRANCH  30  31
ATOM     31  C   UNL     1       8.176   8.378  18.194  0.00  0.00    +0.000 C 
ATOM     32  O   UNL     1       8.937   9.048  18.873  0.00  0.00    +0.000 OA
BRANCH  31  33
ATOM     33  O   UNL     1       7.426   8.918  17.202  0.00  0.00    +0.000 OA
ATOM     34  H   UNL     1       7.225   9.865  17.323  0.00  0.00    +0.000 HD
ENDBRANCH  31  33
ENDBRANCH  30  31
ENDBRANCH  29  30
ENDBRANCH  28  29
ENDBRANCH  22  23
ENDBRANCH   7  22
TORSDOF 12
ENDMDL
MODEL 5
REMARK VINA RESULT:      -7.8      2.478      3.220
REMARK  Name = 
REMARK  14 active torsions:
REMARK  status: ('A' for Active; 'I' for Inactive)
REMARK    1  A    between atoms: C_1  and  C_2
REMARK    2  A    between atoms: C_2  and  C_3
REMARK    3  A    between atoms: C_3  and  C_4
REMARK    4  A    between atoms: C_4  and  C_5
REMARK    5  A    between atoms: C_5  and  N_6
REMARK    6  A    between atoms: N_6  and  C_7
REMARK    7  A    between atoms: C_8  and  C_10
REMARK    8  A    between atoms: C_13  and  C_14
REMARK    9  A    between atoms: C_20  and  C_21
REMARK   10  A    between atoms: C_21  and  C_22
REMARK   11  A    between atoms: C_27  and  C_28
REMARK   12  A    between atoms: C_28  and  C_29
REMARK   13  A    between atoms: C_29  and  C_30
REMARK   14  A    between atoms: C_30  and  O_32
REMARK                            x       y       z     vdW  Elec       q    Type
REMARK                         _______ _______ _______ _____ _____    ______ ____
ROOT
ATOM      1  C   UNL     1       3.073   4.373  20.077  0.00  0.00    +0.000 C 
ATOM      2  C   UNL     1       1.941   3.432  20.486  0.00  0.00    +0.000 C 
ATOM      3  C   UNL     1       0.730   3.430  19.555  0.00  0.00    +0.000 C 
ATOM      4  C   UNL     1       1.275   2.737  18.306  0.00  0.00    +0.000 C 
ATOM      5  C   UNL     1       2.719   2.452  18.712  0.00  0.00    +0.000 C 
ATOM      6  O   UNL     1       2.549   2.162  20.122  0.00  0.00    +0.000 OA
ATOM      7  C   UNL     1       3.537   3.765  18.725  0.00  0.00    +0.000 C 
ENDROOT
BRANCH   1  11
ATOM      8  C   UNL     1       2.035   7.757  19.543  0.00  0.00    +0.000 A 
ATOM      9  C   UNL     1       1.499   7.448  20.775  0.00  0.00    +0.000 A 
ATOM     10  O   UNL     1       1.945   6.227  21.161  0.00  0.00    +0.000 OA
ATOM     11  C   UNL     1       2.744   5.818  20.123  0.00  0.00    +0.000 A 
ATOM     12  N   UNL     1       2.873   6.716  19.160  0.00  0.00    +0.000 NA
BRANCH   8  15
ATOM     13  N   UNL     1       1.081  10.035  19.353  0.00  0.00    +0.000 N 
ATOM     14  C   UNL     1       0.384   9.908  20.625  0.00  0.00    +0.000 C 
ATOM     15  C   UNL     1       1.649   8.909  18.726  0.00  0.00    +0.000 C 
ATOM     16  O   UNL     1       1.839   8.877  17.508  0.00  0.00    +0.000 OA
BRANCH  13  17
ATOM     17  C   UNL     1       0.735  11.182  18.506  0.00  0.00    +0.000 C 
BRANCH  17  18
ATOM     18  C   UNL     1      -0.671  11.742  18.757  0.00  0.00    +0.000 C 
BRANCH  18  19
ATOM     19  C   UNL     1      -1.599  11.564  17.553  0.00  0.00    +0.000 C 
BRANCH  19  21
ATOM     20  C   UNL     1      -3.204   9.623  17.620  0.00  0.00    +0.000 C 
ATOM     21  C   UNL     1      -1.808  10.084  17.233  0.00  0.00    +0.000 C 
ENDBRANCH  19  21
ENDBRANCH  18  19
ENDBRANCH  17  18
ENDBRANCH  13  17
ENDBRANCH   8  15
ENDBRANCH   1  11
BRANCH   7  22
ATOM     22  C   UNL     1       5.069   3.522  18.719  0.00  0.00    +0.000 C 
BRANCH  22  23
ATOM     23  C   UNL     1       5.931   4.746  18.443  0.00  0.00    +0.000 A 
ATOM     24  C   UNL     1       6.715   5.212  19.526  0.00  0.00    +0.000 A 
ATOM     25  C   UNL     1       7.617   6.262  19.381  0.00  0.00    +0.000 A 
ATOM     26  C   UNL     1       7.767   6.862  18.143  0.00  0.00    +0.000 A 
ATOM     27  C   UNL     1       6.966   6.457  17.076  0.00  0.00    +0.000 A 
ATOM     28  C   UNL     1       6.015   5.420  17.201  0.00  0.00    +0.000 A 
BRANCH  28  29
ATOM     29  C   UNL     1       5.022   5.177  16.073  0.00  0.00    +0.000 C 
BRANCH  29  30
ATOM     30  C   UNL     1       5.459   5.647  14.677  0.00  0.00    +0.000 C 
BRANCH  30  31
ATOM     31  C   UNL     1       6.480   4.722  14.061  0.00  0.00    +0.000 C 
ATOM     32  O   UNL     1       6.282   3.564  13.734  0.00  0.00    +0.000 OA
BRANCH  31  33
ATOM     33  O   UNL     1       7.682   5.326  13.894  0.00  0.00    +0.000 OA
ATOM     34  H   UNL     1       7.920   5.948  14.607  0.00  0.00    +0.000 HD
ENDBRANCH  31  33
ENDBRANCH  30  31
ENDBRANCH  29  30
ENDBRANCH  28  29
ENDBRANCH  22  23
ENDBRANCH   7  22
TORSDOF 12
ENDMDL
MODEL 6
REMARK VINA RESULT:      -7.7      1.520      2.163
REMARK  Name = 
REMARK  14 active torsions:
REMARK  status: ('A' for Active; 'I' for Inactive)
REMARK    1  A    between atoms: C_1  and  C_2
REMARK    2  A    between atoms: C_2  and  C_3
REMARK    3  A    between atoms: C_3  and  C_4
REMARK    4  A    between atoms: C_4  and  C_5
REMARK    5  A    between atoms: C_5  and  N_6
REMARK    6  A    between atoms: N_6  and  C_7
REMARK    7  A    between atoms: C_8  and  C_10
REMARK    8  A    between atoms: C_13  and  C_14
REMARK    9  A    between atoms: C_20  and  C_21
REMARK   10  A    between atoms: C_21  and  C_22
REMARK   11  A    between atoms: C_27  and  C_28
REMARK   12  A    between atoms: C_28  and  C_29
REMARK   13  A    between atoms: C_29  and  C_30
REMARK   14  A    between atoms: C_30  and  O_32
REMARK                            x       y       z     vdW  Elec       q    Type
REMARK                         _______ _______ _______ _____ _____    ______ ____
ROOT
ATOM      1  C   UNL     1       3.139   5.181  19.151  0.00  0.00    +0.000 C 
ATOM      2  C   UNL     1       2.554   4.655  20.460  0.00  0.00    +0.000 C 
ATOM      3  C   UNL     1       1.073   4.285  20.407  0.00  0.00    +0.000 C 
ATOM      4  C   UNL     1       1.077   3.027  19.540  0.00  0.00    +0.000 C 
ATOM      5  C   UNL     1       2.563   2.870  19.225  0.00  0.00    +0.000 C 
ATOM      6  O   UNL     1       3.151   3.329  20.468  0.00  0.00    +0.000 OA
ATOM      7  C   UNL     1       3.009   3.950  18.211  0.00  0.00    +0.000 C 
ENDROOT
BRANCH   1  11
ATOM      8  C   UNL     1       1.826   8.483  18.715  0.00  0.00    +0.000 A 
ATOM      9  C   UNL     1       2.844   8.417  17.786  0.00  0.00    +0.000 A 
ATOM     10  O   UNL     1       3.335   7.154  17.752  0.00  0.00    +0.000 OA
ATOM     11  C   UNL     1       2.593   6.481  18.689  0.00  0.00    +0.000 A 
ATOM     12  N   UNL     1       1.646   7.213  19.251  0.00  0.00    +0.000 NA
BRANCH   8  15
ATOM     13  N   UNL     1       0.844   9.869  20.518  0.00  0.00    +0.000 N 
ATOM     14  C   UNL     1       0.625   8.706  21.366  0.00  0.00    +0.000 C 
ATOM     15  C   UNL     1       1.174   9.717  19.157  0.00  0.00    +0.000 C 
ATOM     16  O   UNL     1       0.937  10.604  18.334  0.00  0.00    +0.000 OA
BRANCH  13  17
ATOM     17  C   UNL     1       0.219  11.131  20.928  0.00  0.00    +0.000 C 
BRANCH  17  18
ATOM     18  C   UNL     1      -0.758  10.991  22.102  0.00  0.00    +0.000 C 
BRANCH  18  19
ATOM     19  C   UNL     1      -1.050  12.327  22.788  0.00  0.00    +0.000 C 
BRANCH  19  21
ATOM     20  C   UNL     1      -2.938  13.829  23.513  0.00  0.00    +0.000 C 
ATOM     21  C   UNL     1      -2.498  12.395  23.270  0.00  0.00    +0.000 C 
ENDBRANCH  19  21
ENDBRANCH  18  19
ENDBRANCH  17  18
ENDBRANCH  13  17
ENDBRANCH   8  15
ENDBRANCH   1  11
BRANCH   7  22
ATOM     22  C   UNL     1       4.363   3.621  17.533  0.00  0.00    +0.000 C 
BRANCH  22  23
ATOM     23  C   UNL     1       5.475   4.638  17.749  0.00  0.00    +0.000 A 
ATOM     24  C   UNL     1       5.873   4.850  19.091  0.00  0.00    +0.000 A 
ATOM     25  C   UNL     1       6.941   5.680  19.418  0.00  0.00    +0.000 A 
ATOM     26  C   UNL     1       7.647   6.308  18.407  0.00  0.00    +0.000 A 
ATOM     27  C   UNL     1       7.239   6.159  17.081  0.00  0.00    +0.000 A 
ATOM     28  C   UNL     1       6.136   5.353  16.721  0.00  0.00    +0.000 A 
BRANCH  28  29
ATOM     29  C   UNL     1       5.606   5.407  15.295  0.00  0.00    +0.000 C 
BRANCH  29  30
ATOM     30  C   UNL     1       5.985   4.227  14.388  0.00  0.00    +0.000 C 
BRANCH  30  31
ATOM     31  C   UNL     1       6.992   4.621  13.335  0.00  0.00    +0.000 C 
ATOM     32  O   UNL     1       7.053   4.163  12.206  0.00  0.00    +0.000 OA
BRANCH  31  33
ATOM     33  O   UNL     1       7.850   5.572  13.778  0.00  0.00    +0.000 OA
ATOM     34  H   UNL     1       7.553   6.487  13.611  0.00  0.00    +0.000 HD
ENDBRANCH  31  33
ENDBRANCH  30  31
ENDBRANCH  29  30
ENDBRANCH  28  29
ENDBRANCH  22  23
ENDBRANCH   7  22
TORSDOF 12
ENDMDL
MODEL 7
REMARK VINA RESULT:      -7.7      2.330      3.184
REMARK  Name = 
REMARK  14 active torsions:
REMARK  status: ('A' for Active; 'I' for Inactive)
REMARK    1  A    between atoms: C_1  and  C_2
REMARK    2  A    between atoms: C_2  and  C_3
REMARK    3  A    between atoms: C_3  and  C_4
REMARK    4  A    between atoms: C_4  and  C_5
REMARK    5  A    between atoms: C_5  and  N_6
REMARK    6  A    between atoms: N_6  and  C_7
REMARK    7  A    between atoms: C_8  and  C_10
REMARK    8  A    between atoms: C_13  and  C_14
REMARK    9  A    between atoms: C_20  and  C_21
REMARK   10  A    between atoms: C_21  and  C_22
REMARK   11  A    between atoms: C_27  and  C_28
REMARK   12  A    between atoms: C_28  and  C_29
REMARK   13  A    between atoms: C_29  and  C_30
REMARK   14  A    between atoms: C_30  and  O_32
REMARK                            x       y       z     vdW  Elec       q    Type
REMARK                         _______ _______ _______ _____ _____    ______ ____
ROOT
ATOM      1  C   UNL     1       2.974   5.028  20.035  0.00  0.00    +0.000 C 
ATOM      2  C   UNL     1       2.162   3.916  20.698  0.00  0.00    +0.000 C 
ATOM      3  C   UNL     1       0.957   3.426  19.896  0.00  0.00    +0.000 C 
ATOM      4  C   UNL     1       1.614   2.683  18.734  0.00  0.00    +0.000 C 
ATOM      5  C   UNL     1       3.098   2.864  19.045  0.00  0.00    +0.000 C 
ATOM      6  O   UNL     1       3.077   2.804  20.493  0.00  0.00    +0.000 OA
ATOM      7  C   UNL     1       3.525   4.324  18.765  0.00  0.00    +0.000 C 
ENDROOT
BRANCH   1  11
ATOM      8  C   UNL     1       1.554   8.307  20.253  0.00  0.00    +0.000 A 
ATOM      9  C   UNL     1       2.075   8.268  18.977  0.00  0.00    +0.000 A 
ATOM     10  O   UNL     1       2.521   7.014  18.717  0.00  0.00    +0.000 OA
ATOM     11  C   UNL     1       2.264   6.320  19.872  0.00  0.00    +0.000 A 
ATOM     12  N   UNL     1       1.640   7.031  20.797  0.00  0.00    +0.000 NA
BRANCH   8  15
ATOM     13  N   UNL     1       0.399  10.499  20.251  0.00  0.00    +0.000 N 
ATOM     14  C   UNL     1       0.495  10.609  18.802  0.00  0.00    +0.000 C 
ATOM     15  C   UNL     1       1.138   9.525  20.951  0.00  0.00    +0.000 C 
ATOM     16  O   UNL     1       1.431   9.671  22.140  0.00  0.00    +0.000 OA
BRANCH  13  17
ATOM     17  C   UNL     1      -0.026  11.692  20.992  0.00  0.00    +0.000 C 
BRANCH  17  18
ATOM     18  C   UNL     1      -1.548  11.835  21.123  0.00  0.00    +0.000 C 
BRANCH  18  19
ATOM     19  C   UNL     1      -1.977  13.262  21.473  0.00  0.00    +0.000 C 
BRANCH  19  21
ATOM     20  C   UNL     1      -3.080  12.176  23.460  0.00  0.00    +0.000 C 
ATOM     21  C   UNL     1      -3.191  13.260  22.401  0.00  0.00    +0.000 C 
ENDBRANCH  19  21
ENDBRANCH  18  19
ENDBRANCH  17  18
ENDBRANCH  13  17
ENDBRANCH   8  15
ENDBRANCH   1  11
BRANCH   7  22
ATOM     22  C   UNL     1       5.063   4.493  18.657  0.00  0.00    +0.000 C 
BRANCH  22  23
ATOM     23  C   UNL     1       5.618   4.599  17.242  0.00  0.00    +0.000 A 
ATOM     24  C   UNL     1       5.181   3.611  16.328  0.00  0.00    +0.000 A 
ATOM     25  C   UNL     1       5.537   3.647  14.982  0.00  0.00    +0.000 A 
ATOM     26  C   UNL     1       6.328   4.683  14.518  0.00  0.00    +0.000 A 
ATOM     27  C   UNL     1       6.816   5.637  15.411  0.00  0.00    +0.000 A 
ATOM     28  C   UNL     1       6.503   5.606  16.788  0.00  0.00    +0.000 A 
BRANCH  28  29
ATOM     29  C   UNL     1       7.241   6.535  17.743  0.00  0.00    +0.000 C 
BRANCH  29  30
ATOM     30  C   UNL     1       7.332   8.007  17.315  0.00  0.00    +0.000 C 
BRANCH  30  31
ATOM     31  C   UNL     1       8.296   8.789  18.174  0.00  0.00    +0.000 C 
ATOM     32  O   UNL     1       8.586   9.964  18.025  0.00  0.00    +0.000 OA
BRANCH  31  33
ATOM     33  O   UNL     1       8.822   8.034  19.170  0.00  0.00    +0.000 OA
ATOM     34  H   UNL     1       9.745   7.758  19.017  0.00  0.00    +0.000 HD
ENDBRANCH  31  33
ENDBRANCH  30  31
ENDBRANCH  29  30
ENDBRANCH  28  29
ENDBRANCH  22  23
ENDBRANCH   7  22
TORSDOF 12
ENDMDL
MODEL 8
REMARK VINA RESULT:      -7.7      1.566      2.406
REMARK  Name = 
REMARK  14 active torsions:
REMARK  status: ('A' for Active; 'I' for Inactive)
REMARK    1  A    between atoms: C_1  and  C_2
REMARK    2  A    between atoms: C_2  and  C_3
REMARK    3  A    between atoms: C_3  and  C_4
REMARK    4  A    between atoms: C_4  and  C_5
REMARK    5  A    between atoms: C_5  and  N_6
REMARK    6  A    between atoms: N_6  and  C_7
REMARK    7  A    between atoms: C_8  and  C_10
REMARK    8  A    between atoms: C_13  and  C_14
REMARK    9  A    between atoms: C_20  and  C_21
REMARK   10  A    between atoms: C_21  and  C_22
REMARK   11  A    between atoms: C_27  and  C_28
REMARK   12  A    between atoms: C_28  and  C_29
REMARK   13  A    between atoms: C_29  and  C_30
REMARK   14  A    between atoms: C_30  and  O_32
REMARK                            x       y       z     vdW  Elec       q    Type
REMARK                         _______ _______ _______ _____ _____    ______ ____
ROOT
ATOM      1  C   UNL     1       3.064   4.580  19.808  0.00  0.00    +0.000 C 
ATOM      2  C   UNL     1       1.976   3.808  20.553  0.00  0.00    +0.000 C 
ATOM      3  C   UNL     1       0.844   3.272  19.678  0.00  0.00    +0.000 C 
ATOM      4  C   UNL     1       1.533   2.157  18.893  0.00  0.00    +0.000 C 
ATOM      5  C   UNL     1       2.959   2.228  19.435  0.00  0.00    +0.000 C 
ATOM      6  O   UNL     1       2.702   2.576  20.819  0.00  0.00    +0.000 OA
ATOM      7  C   UNL     1       3.675   3.485  18.889  0.00  0.00    +0.000 C 
ENDROOT
BRANCH   1  11
ATOM      8  C   UNL     1       2.102   7.920  18.953  0.00  0.00    +0.000 A 
ATOM      9  C   UNL     1       3.003   7.583  17.965  0.00  0.00    +0.000 A 
ATOM     10  O   UNL     1       3.338   6.276  18.095  0.00  0.00    +0.000 OA
ATOM     11  C   UNL     1       2.625   5.854  19.189  0.00  0.00    +0.000 A 
ATOM     12  N   UNL     1       1.833   6.781  19.703  0.00  0.00    +0.000 NA
BRANCH   8  15
ATOM     13  N   UNL     1       1.092   9.565  20.506  0.00  0.00    +0.000 N 
ATOM     14  C   UNL     1       0.472   8.515  21.301  0.00  0.00    +0.000 C 
ATOM     15  C   UNL     1       1.647   9.281  19.243  0.00  0.00    +0.000 C 
ATOM     16  O   UNL     1       1.768  10.155  18.381  0.00  0.00    +0.000 OA
BRANCH  13  17
ATOM     17  C   UNL     1       0.675  10.947  20.770  0.00  0.00    +0.000 C 
BRANCH  17  18
ATOM     18  C   UNL     1      -0.762  11.077  21.289  0.00  0.00    +0.000 C 
BRANCH  18  19
ATOM     19  C   UNL     1      -0.820  11.426  22.778  0.00  0.00    +0.000 C 
BRANCH  19  21
ATOM     20  C   UNL     1      -3.128  12.291  23.298  0.00  0.00    +0.000 C 
ATOM     21  C   UNL     1      -1.682  12.665  23.020  0.00  0.00    +0.000 C 
ENDBRANCH  19  21
ENDBRANCH  18  19
ENDBRANCH  17  18
ENDBRANCH  13  17
ENDBRANCH   8  15
ENDBRANCH   1  11
BRANCH   7  22
ATOM     22  C   UNL     1       5.215   3.421  19.048  0.00  0.00    +0.000 C 
BRANCH  22  23
ATOM     23  C   UNL     1       5.994   4.570  18.420  0.00  0.00    +0.000 A 
ATOM     24  C   UNL     1       6.539   5.516  19.320  0.00  0.00    +0.000 A 
ATOM     25  C   UNL     1       7.351   6.560  18.885  0.00  0.00    +0.000 A 
ATOM     26  C   UNL     1       7.648   6.672  17.538  0.00  0.00    +0.000 A 
ATOM     27  C   UNL     1       7.078   5.784  16.626  0.00  0.00    +0.000 A 
ATOM     28  C   UNL     1       6.220   4.738  17.033  0.00  0.00    +0.000 A 
BRANCH  28  29
ATOM     29  C   UNL     1       5.456   3.947  15.980  0.00  0.00    +0.000 C 
BRANCH  29  30
ATOM     30  C   UNL     1       5.296   4.626  14.612  0.00  0.00    +0.000 C 
BRANCH  30  31
ATOM     31  C   UNL     1       6.448   4.318  13.687  0.00  0.00    +0.000 C 
ATOM     32  O   UNL     1       7.365   5.076  13.420  0.00  0.00    +0.000 OA
BRANCH  31  33
ATOM     33  O   UNL     1       6.368   3.069  13.167  0.00  0.00    +0.000 OA
ATOM     34  H   UNL     1       7.228   2.619  13.072  0.00  0.00    +0.000 HD
ENDBRANCH  31  33
ENDBRANCH  30  31
ENDBRANCH  29  30
ENDBRANCH  28  29
ENDBRANCH  22  23
ENDBRANCH   7  22
TORSDOF 12
ENDMDL
MODEL 9
REMARK VINA RESULT:      -7.7      1.937      3.141
REMARK  Name = 
REMARK  14 active torsions:
REMARK  status: ('A' for Active; 'I' for Inactive)
REMARK    1  A    between atoms: C_1  and  C_2
REMARK    2  A    between atoms: C_2  and  C_3
REMARK    3  A    between atoms: C_3  and  C_4
REMARK    4  A    between atoms: C_4  and  C_5
REMARK    5  A    between atoms: C_5  and  N_6
REMARK    6  A    between atoms: N_6  and  C_7
REMARK    7  A    between atoms: C_8  and  C_10
REMARK    8  A    between atoms: C_13  and  C_14
REMARK    9  A    between atoms: C_20  and  C_21
REMARK   10  A    between atoms: C_21  and  C_22
REMARK   11  A    between atoms: C_27  and  C_28
REMARK   12  A    between atoms: C_28  and  C_29
REMARK   13  A    between atoms: C_29  and  C_30
REMARK   14  A    between atoms: C_30  and  O_32
REMARK                            x       y       z     vdW  Elec       q    Type
REMARK                         _______ _______ _______ _____ _____    ______ ____
ROOT
ATOM      1  C   UNL     1       2.911   6.676  19.530  0.00  0.00    +0.000 C 
ATOM      2  C   UNL     1       2.657   5.321  20.189  0.00  0.00    +0.000 C 
ATOM      3  C   UNL     1       1.311   4.679  19.856  0.00  0.00    +0.000 C 
ATOM      4  C   UNL     1       1.487   4.284  18.390  0.00  0.00    +0.000 C 
ATOM      5  C   UNL     1       2.907   4.765  18.105  0.00  0.00    +0.000 C 
ATOM      6  O   UNL     1       3.543   4.497  19.380  0.00  0.00    +0.000 OA
ATOM      7  C   UNL     1       2.940   6.309  18.020  0.00  0.00    +0.000 C 
ENDROOT
BRANCH   1  11
ATOM      8  C   UNL     1       0.468   9.256  19.962  0.00  0.00    +0.000 A 
ATOM      9  C   UNL     1       0.332   8.491  21.101  0.00  0.00    +0.000 A 
ATOM     10  O   UNL     1       1.309   7.552  21.127  0.00  0.00    +0.000 OA
ATOM     11  C   UNL     1       2.016   7.772  19.972  0.00  0.00    +0.000 A 
ATOM     12  N   UNL     1       1.588   8.809  19.271  0.00  0.00    +0.000 NA
BRANCH   8  15
ATOM     13  N   UNL     1      -0.409  11.573  19.978  0.00  0.00    +0.000 N 
ATOM     14  C   UNL     1       0.221  11.860  21.258  0.00  0.00    +0.000 C 
ATOM     15  C   UNL     1      -0.502  10.251  19.500  0.00  0.00    +0.000 C 
ATOM     16  O   UNL     1      -1.373   9.917  18.693  0.00  0.00    +0.000 OA
BRANCH  13  17
ATOM     17  C   UNL     1      -1.380  12.548  19.469  0.00  0.00    +0.000 C 
BRANCH  17  18
ATOM     18  C   UNL     1      -2.768  12.440  20.111  0.00  0.00    +0.000 C 
BRANCH  18  19
ATOM     19  C   UNL     1      -3.020  13.529  21.156  0.00  0.00    +0.000 C 
BRANCH  19  21
ATOM     20  C   UNL     1      -2.905  12.197  23.291  0.00  0.00    +0.000 C 
ATOM     21  C   UNL     1      -3.804  12.978  22.347  0.00  0.00    +0.000 C 
ENDBRANCH  19  21
ENDBRANCH  18  19
ENDBRANCH  17  18
ENDBRANCH  13  17
ENDBRANCH   8  15
ENDBRANCH   1  11
BRANCH   7  22
ATOM     22  C   UNL     1       4.223   6.851  17.339  0.00  0.00    +0.000 C 
BRANCH  22  23
ATOM     23  C   UNL     1       5.154   5.798  16.753  0.00  0.00    +0.000 A 
ATOM     24  C   UNL     1       4.753   5.231  15.520  0.00  0.00    +0.000 A 
ATOM     25  C   UNL     1       5.559   4.329  14.830  0.00  0.00    +0.000 A 
ATOM     26  C   UNL     1       6.793   3.985  15.353  0.00  0.00    +0.000 A 
ATOM     27  C   UNL     1       7.186   4.488  16.593  0.00  0.00    +0.000 A 
ATOM     28  C   UNL     1       6.374   5.376  17.334  0.00  0.00    +0.000 A 
BRANCH  28  29
ATOM     29  C   UNL     1       6.753   5.711  18.770  0.00  0.00    +0.000 C 
BRANCH  29  30
ATOM     30  C   UNL     1       8.124   6.373  18.969  0.00  0.00    +0.000 C 
BRANCH  30  31
ATOM     31  C   UNL     1       8.195   7.736  18.326  0.00  0.00    +0.000 C 
ATOM     32  O   UNL     1       7.720   8.035  17.243  0.00  0.00    +0.000 OA
BRANCH  31  33
ATOM     33  O   UNL     1       8.856   8.633  19.099  0.00  0.00    +0.000 OA
ATOM     34  H   UNL     1       8.582   8.632  20.035  0.00  0.00    +0.000 HD
ENDBRANCH  31  33
ENDBRANCH  30  31
ENDBRANCH  29  30
ENDBRANCH  28  29
ENDBRANCH  22  23
ENDBRANCH   7  22
TORSDOF 12
ENDMDL
