MODEL 1
REMARK VINA RESULT:      -7.9      0.000      0.000
REMARK  Name = 
REMARK  7 active torsions:
REMARK  status: ('A' for Active; 'I' for Inactive)
REMARK    1  A    between atoms: C_2  and  C_3
REMARK    2  A    between atoms: C_3  and  N_4
REMARK    3  A    between atoms: C_5  and  C_7
REMARK    4  A    between atoms: C_10  and  C_11
REMARK    5  A    between atoms: C_11  and  N_12
REMARK    6  A    between atoms: C_15  and  C_16
REMARK    7  A    between atoms: C_16  and  C_17
REMARK                            x       y       z     vdW  Elec       q    Type
REMARK                         _______ _______ _______ _____ _____    ______ ____
ROOT
ATOM      1  C   UNL     1       7.105   5.361  17.237  0.00  0.00    +0.000 C 
ENDROOT
BRANCH   1   5
ATOM      2  C   UNL     1       5.796   3.703  13.445  0.00  0.00    +0.000 A 
ATOM      3  C   UNL     1       6.914   4.542  13.499  0.00  0.00    +0.000 A 
ATOM      4  C   UNL     1       7.329   5.078  14.723  0.00  0.00    +0.000 A 
ATOM      5  C   UNL     1       6.636   4.790  15.910  0.00  0.00    +0.000 A 
ATOM      6  C   UNL     1       5.518   3.943  15.845  0.00  0.00    +0.000 A 
ATOM      7  C   UNL     1       5.098   3.414  14.623  0.00  0.00    +0.000 A 
BRANCH   2   9
ATOM      8  N   UNL     1       4.049   3.588  11.743  0.00  0.00    +0.000 N 
ATOM      9  C   UNL     1       5.283   3.140  12.165  0.00  0.00    +0.000 C 
ATOM     10  O   UNL     1       5.964   2.336  11.538  0.00  0.00    +0.000 OA
ATOM     11  H   UNL     1       3.568   4.318  12.252  0.00  0.00    +0.000 HD
BRANCH   8  12
ATOM     12  C   UNL     1       3.428   3.080  10.547  0.00  0.00    +0.000 C 
BRANCH  12  14
ATOM     13  C   UNL     1       2.206   4.782   9.171  0.00  0.00    +0.000 C 
ATOM     14  C   UNL     1       3.347   4.192   9.550  0.00  0.00    +0.000 C 
ENDBRANCH  12  14
ENDBRANCH   8  12
ENDBRANCH   2   9
ENDBRANCH   1   5
BRANCH   1  15
ATOM     15  N   UNL     1       6.072   6.115  17.987  0.00  0.00    +0.000 NA
ATOM     16  C   UNL     1       5.208   6.878  17.072  0.00  0.00    +0.000 C 
ATOM     17  C   UNL     1       4.040   7.553  17.791  0.00  0.00    +0.000 C 
ATOM     18  C   UNL     1       3.161   6.551  18.548  0.00  0.00    +0.000 C 
ATOM     19  C   UNL     1       4.084   5.810  19.532  0.00  0.00    +0.000 C 
ATOM     20  C   UNL     1       5.320   5.194  18.858  0.00  0.00    +0.000 C 
BRANCH  18  21
ATOM     21  C   UNL     1       2.391   5.557  17.645  0.00  0.00    +0.000 C 
BRANCH  21  22
ATOM     22  C   UNL     1       1.982   4.242  18.276  0.00  0.00    +0.000 A 
ATOM     23  C   UNL     1       2.424   3.033  17.717  0.00  0.00    +0.000 A 
ATOM     24  C   UNL     1       2.117   1.810  18.318  0.00  0.00    +0.000 A 
ATOM     25  C   UNL     1       1.368   1.777  19.493  0.00  0.00    +0.000 A 
ATOM     26  C   UNL     1       0.927   2.968  20.060  0.00  0.00    +0.000 A 
ATOM     27  C   UNL     1       1.230   4.195  19.457  0.00  0.00    +0.000 A 
ENDBRANCH  21  22
ENDBRANCH  18  21
ENDBRANCH   1  15
TORSDOF 7
ENDMDL
MODEL 2
REMARK VINA RESULT:      -7.7      3.428      6.094
REMARK  Name = 
REMARK  7 active torsions:
REMARK  status: ('A' for Active; 'I' for Inactive)
REMARK    1  A    between atoms: C_2  and  C_3
REMARK    2  A    between atoms: C_3  and  N_4
REMARK    3  A    between atoms: C_5  and  C_7
REMARK    4  A    between atoms: C_10  and  C_11
REMARK    5  A    between atoms: C_11  and  N_12
REMARK    6  A    between atoms: C_15  and  C_16
REMARK    7  A    between atoms: C_16  and  C_17
REMARK                            x       y       z     vdW  Elec       q    Type
REMARK                         _______ _______ _______ _____ _____    ______ ____
ROOT
ATOM      1  C   UNL     1       3.303   1.922  18.012  0.00  0.00    +0.000 C 
ENDROOT
BRANCH   1   5
ATOM      2  C   UNL     1       6.158   5.064  17.108  0.00  0.00    +0.000 A 
ATOM      3  C   UNL     1       5.914   4.694  18.435  0.00  0.00    +0.000 A 
ATOM      4  C   UNL     1       4.990   3.683  18.721  0.00  0.00    +0.000 A 
ATOM      5  C   UNL     1       4.291   3.031  17.693  0.00  0.00    +0.000 A 
ATOM      6  C   UNL     1       4.547   3.407  16.364  0.00  0.00    +0.000 A 
ATOM      7  C   UNL     1       5.464   4.421  16.078  0.00  0.00    +0.000 A 
BRANCH   2   9
ATOM      8  N   UNL     1       7.215   7.198  17.649  0.00  0.00    +0.000 N 
ATOM      9  C   UNL     1       7.098   6.162  16.746  0.00  0.00    +0.000 C 
ATOM     10  O   UNL     1       7.733   6.099  15.699  0.00  0.00    +0.000 OA
ATOM     11  H   UNL     1       6.737   7.157  18.539  0.00  0.00    +0.000 HD
BRANCH   8  12
ATOM     12  C   UNL     1       8.056   8.337  17.387  0.00  0.00    +0.000 C 
BRANCH  12  14
ATOM     13  C   UNL     1       9.118  10.084  18.838  0.00  0.00    +0.000 C 
ATOM     14  C   UNL     1       8.509   8.899  18.698  0.00  0.00    +0.000 C 
ENDBRANCH  12  14
ENDBRANCH   8  12
ENDBRANCH   2   9
ENDBRANCH   1   5
BRANCH   1  15
ATOM     15  N   UNL     1       2.221   2.307  18.949  0.00  0.00    +0.000 NA
ATOM     16  C   UNL     1       2.706   2.319  20.338  0.00  0.00    +0.000 C 
ATOM     17  C   UNL     1       1.664   2.852  21.321  0.00  0.00    +0.000 C 
ATOM     18  C   UNL     1       1.198   4.269  20.970  0.00  0.00    +0.000 C 
ATOM     19  C   UNL     1       0.648   4.209  19.533  0.00  0.00    +0.000 C 
ATOM     20  C   UNL     1       1.636   3.594  18.530  0.00  0.00    +0.000 C 
BRANCH  18  21
ATOM     21  C   UNL     1       2.289   5.359  21.107  0.00  0.00    +0.000 C 
BRANCH  21  22
ATOM     22  C   UNL     1       2.026   6.676  20.403  0.00  0.00    +0.000 A 
ATOM     23  C   UNL     1       2.530   6.889  19.111  0.00  0.00    +0.000 A 
ATOM     24  C   UNL     1       2.246   8.066  18.416  0.00  0.00    +0.000 A 
ATOM     25  C   UNL     1       1.446   9.047  18.998  0.00  0.00    +0.000 A 
ATOM     26  C   UNL     1       0.938   8.847  20.278  0.00  0.00    +0.000 A 
ATOM     27  C   UNL     1       1.224   7.670  20.979  0.00  0.00    +0.000 A 
ENDBRANCH  21  22
ENDBRANCH  18  21
ENDBRANCH   1  15
TORSDOF 7
ENDMDL
MODEL 3
REMARK VINA RESULT:      -7.6      4.482      5.953
REMARK  Name = 
REMARK  7 active torsions:
REMARK  status: ('A' for Active; 'I' for Inactive)
REMARK    1  A    between atoms: C_2  and  C_3
REMARK    2  A    between atoms: C_3  and  N_4
REMARK    3  A    between atoms: C_5  and  C_7
REMARK    4  A    between atoms: C_10  and  C_11
REMARK    5  A    between atoms: C_11  and  N_12
REMARK    6  A    between atoms: C_15  and  C_16
REMARK    7  A    between atoms: C_16  and  C_17
REMARK                            x       y       z     vdW  Elec       q    Type
REMARK                         _______ _______ _______ _____ _____    ______ ____
ROOT
ATOM      1  C   UNL     1       2.360   6.831  19.287  0.00  0.00    +0.000 C 
ENDROOT
BRANCH   1   5
ATOM      2  C   UNL     1       5.088   5.406  16.227  0.00  0.00    +0.000 A 
ATOM      3  C   UNL     1       4.344   4.497  16.986  0.00  0.00    +0.000 A 
ATOM      4  C   UNL     1       3.469   4.961  17.974  0.00  0.00    +0.000 A 
ATOM      5  C   UNL     1       3.326   6.335  18.225  0.00  0.00    +0.000 A 
ATOM      6  C   UNL     1       4.074   7.239  17.454  0.00  0.00    +0.000 A 
ATOM      7  C   UNL     1       4.953   6.777  16.472  0.00  0.00    +0.000 A 
BRANCH   2   9
ATOM      8  N   UNL     1       5.585   4.145  14.196  0.00  0.00    +0.000 N 
ATOM      9  C   UNL     1       6.066   4.968  15.192  0.00  0.00    +0.000 C 
ATOM     10  O   UNL     1       7.227   5.359  15.248  0.00  0.00    +0.000 OA
ATOM     11  H   UNL     1       4.599   3.925  14.146  0.00  0.00    +0.000 HD
BRANCH   8  12
ATOM     12  C   UNL     1       6.446   3.618  13.169  0.00  0.00    +0.000 C 
BRANCH  12  14
ATOM     13  C   UNL     1       4.928   2.632  11.435  0.00  0.00    +0.000 C 
ATOM     14  C   UNL     1       5.698   3.636  11.873  0.00  0.00    +0.000 C 
ENDBRANCH  12  14
ENDBRANCH   8  12
ENDBRANCH   2   9
ENDBRANCH   1   5
BRANCH   1  15
ATOM     15  N   UNL     1       2.131   8.296  19.281  0.00  0.00    +0.000 NA
ATOM     16  C   UNL     1       1.479   8.723  18.033  0.00  0.00    +0.000 C 
ATOM     17  C   UNL     1       1.092  10.202  18.047  0.00  0.00    +0.000 C 
ATOM     18  C   UNL     1       0.160  10.552  19.212  0.00  0.00    +0.000 C 
ATOM     19  C   UNL     1       0.893  10.143  20.502  0.00  0.00    +0.000 C 
ATOM     20  C   UNL     1       1.378   8.685  20.488  0.00  0.00    +0.000 C 
BRANCH  18  21
ATOM     21  C   UNL     1      -1.243   9.901  19.134  0.00  0.00    +0.000 C 
BRANCH  21  22
ATOM     22  C   UNL     1      -2.125  10.325  17.977  0.00  0.00    +0.000 A 
ATOM     23  C   UNL     1      -1.944   9.745  16.712  0.00  0.00    +0.000 A 
ATOM     24  C   UNL     1      -2.787  10.069  15.647  0.00  0.00    +0.000 A 
ATOM     25  C   UNL     1      -3.831  10.973  15.831  0.00  0.00    +0.000 A 
ATOM     26  C   UNL     1      -4.024  11.553  17.081  0.00  0.00    +0.000 A 
ATOM     27  C   UNL     1      -3.178  11.233  18.149  0.00  0.00    +0.000 A 
ENDBRANCH  21  22
ENDBRANCH  18  21
ENDBRANCH   1  15
TORSDOF 7
ENDMDL
MODEL 4
REMARK VINA RESULT:      -7.5      0.677      1.209
REMARK  Name = 
REMARK  7 active torsions:
REMARK  status: ('A' for Active; 'I' for Inactive)
REMARK    1  A    between atoms: C_2  and  C_3
REMARK    2  A    between atoms: C_3  and  N_4
REMARK    3  A    between atoms: C_5  and  C_7
REMARK    4  A    between atoms: C_10  and  C_11
REMARK    5  A    between atoms: C_11  and  N_12
REMARK    6  A    between atoms: C_15  and  C_16
REMARK    7  A    between atoms: C_16  and  C_17
REMARK                            x       y       z     vdW  Elec       q    Type
REMARK                         _______ _______ _______ _____ _____    ______ ____
ROOT
ATOM      1  C   UNL     1       6.519   5.257  18.037  0.00  0.00    +0.000 C 
ENDROOT
BRANCH   1   5
ATOM      2  C   UNL     1       6.161   3.967  13.908  0.00  0.00    +0.000 A 
ATOM      3  C   UNL     1       7.250   4.748  14.310  0.00  0.00    +0.000 A 
ATOM      4  C   UNL     1       7.358   5.165  15.642  0.00  0.00    +0.000 A 
ATOM      5  C   UNL     1       6.384   4.816  16.590  0.00  0.00    +0.000 A 
ATOM      6  C   UNL     1       5.298   4.027  16.176  0.00  0.00    +0.000 A 
ATOM      7  C   UNL     1       5.184   3.617  14.846  0.00  0.00    +0.000 A 
BRANCH   2   9
ATOM      8  N   UNL     1       4.680   3.245  12.106  0.00  0.00    +0.000 N 
ATOM      9  C   UNL     1       5.971   3.531  12.497  0.00  0.00    +0.000 C 
ATOM     10  O   UNL     1       6.939   3.463  11.746  0.00  0.00    +0.000 OA
ATOM     11  H   UNL     1       3.908   3.404  12.739  0.00  0.00    +0.000 HD
BRANCH   8  12
ATOM     12  C   UNL     1       4.379   2.769  10.781  0.00  0.00    +0.000 C 
BRANCH  12  14
ATOM     13  C   UNL     1       2.921   4.361   9.507  0.00  0.00    +0.000 C 
ATOM     14  C   UNL     1       3.061   3.341  10.363  0.00  0.00    +0.000 C 
ENDBRANCH  12  14
ENDBRANCH   8  12
ENDBRANCH   2   9
ENDBRANCH   1   5
BRANCH   1  15
ATOM     15  N   UNL     1       5.448   6.166  18.511  0.00  0.00    +0.000 NA
ATOM     16  C   UNL     1       4.767   6.814  17.378  0.00  0.00    +0.000 C 
ATOM     17  C   UNL     1       3.561   7.646  17.815  0.00  0.00    +0.000 C 
ATOM     18  C   UNL     1       2.524   6.817  18.580  0.00  0.00    +0.000 C 
ATOM     19  C   UNL     1       3.255   6.199  19.785  0.00  0.00    +0.000 C 
ATOM     20  C   UNL     1       4.526   5.429  19.394  0.00  0.00    +0.000 C 
BRANCH  18  21
ATOM     21  C   UNL     1       1.817   5.729  17.735  0.00  0.00    +0.000 C 
BRANCH  21  22
ATOM     22  C   UNL     1       1.767   4.334  18.327  0.00  0.00    +0.000 A 
ATOM     23  C   UNL     1       1.086   4.112  19.534  0.00  0.00    +0.000 A 
ATOM     24  C   UNL     1       0.969   2.826  20.065  0.00  0.00    +0.000 A 
ATOM     25  C   UNL     1       1.524   1.739  19.394  0.00  0.00    +0.000 A 
ATOM     26  C   UNL     1       2.198   1.944  18.194  0.00  0.00    +0.000 A 
ATOM     27  C   UNL     1       2.321   3.233  17.661  0.00  0.00    +0.000 A 
ENDBRANCH  21  22
ENDBRANCH  18  21
ENDBRANCH   1  15
TORSDOF 7
ENDMDL
MODEL 5
REMARK VINA RESULT:      -7.4      4.530      5.915
REMARK  Name = 
REMARK  7 active torsions:
REMARK  status: ('A' for Active; 'I' for Inactive)
REMARK    1  A    between atoms: C_2  and  C_3
REMARK    2  A    between atoms: C_3  and  N_4
REMARK    3  A    between atoms: C_5  and  C_7
REMARK    4  A    between atoms: C_10  and  C_11
REMARK    5  A    between atoms: C_11  and  N_12
REMARK    6  A    between atoms: C_15  and  C_16
REMARK    7  A    between atoms: C_16  and  C_17
REMARK                            x       y       z     vdW  Elec       q    Type
REMARK                         _______ _______ _______ _____ _____    ______ ____
ROOT
ATOM      1  C   UNL     1       2.655   6.651  19.268  0.00  0.00    +0.000 C 
ENDROOT
BRANCH   1   5
ATOM      2  C   UNL     1       5.395   5.275  16.196  0.00  0.00    +0.000 A 
ATOM      3  C   UNL     1       5.364   6.625  16.559  0.00  0.00    +0.000 A 
ATOM      4  C   UNL     1       4.476   7.065  17.547  0.00  0.00    +0.000 A 
ATOM      5  C   UNL     1       3.603   6.168  18.183  0.00  0.00    +0.000 A 
ATOM      6  C   UNL     1       3.645   4.814  17.815  0.00  0.00    +0.000 A 
ATOM      7  C   UNL     1       4.526   4.376  16.824  0.00  0.00    +0.000 A 
BRANCH   2   9
ATOM      8  N   UNL     1       5.675   4.297  13.976  0.00  0.00    +0.000 N 
ATOM      9  C   UNL     1       6.288   4.758  15.122  0.00  0.00    +0.000 C 
ATOM     10  O   UNL     1       7.504   4.778  15.280  0.00  0.00    +0.000 OA
ATOM     11  H   UNL     1       4.675   4.386  13.860  0.00  0.00    +0.000 HD
BRANCH   8  12
ATOM     12  C   UNL     1       6.431   3.730  12.889  0.00  0.00    +0.000 C 
BRANCH  12  14
ATOM     13  C   UNL     1       5.686   1.857  11.400  0.00  0.00    +0.000 C 
ATOM     14  C   UNL     1       5.477   3.059  11.952  0.00  0.00    +0.000 C 
ENDBRANCH  12  14
ENDBRANCH   8  12
ENDBRANCH   2   9
ENDBRANCH   1   5
BRANCH   1  15
ATOM     15  N   UNL     1       2.317   8.093  19.199  0.00  0.00    +0.000 NA
ATOM     16  C   UNL     1       2.152   8.530  17.804  0.00  0.00    +0.000 C 
ATOM     17  C   UNL     1       1.659   9.973  17.694  0.00  0.00    +0.000 C 
ATOM     18  C   UNL     1       0.329  10.195  18.421  0.00  0.00    +0.000 C 
ATOM     19  C   UNL     1       0.552   9.779  19.886  0.00  0.00    +0.000 C 
ATOM     20  C   UNL     1       1.133   8.365  20.034  0.00  0.00    +0.000 C 
BRANCH  18  21
ATOM     21  C   UNL     1      -0.877   9.445  17.803  0.00  0.00    +0.000 C 
BRANCH  21  22
ATOM     22  C   UNL     1      -2.115  10.270  17.514  0.00  0.00    +0.000 A 
ATOM     23  C   UNL     1      -2.719  10.201  16.249  0.00  0.00    +0.000 A 
ATOM     24  C   UNL     1      -3.898  10.899  15.979  0.00  0.00    +0.000 A 
ATOM     25  C   UNL     1      -4.496  11.673  16.972  0.00  0.00    +0.000 A 
ATOM     26  C   UNL     1      -3.908  11.748  18.230  0.00  0.00    +0.000 A 
ATOM     27  C   UNL     1      -2.725  11.052  18.503  0.00  0.00    +0.000 A 
ENDBRANCH  21  22
ENDBRANCH  18  21
ENDBRANCH   1  15
TORSDOF 7
ENDMDL
MODEL 6
REMARK VINA RESULT:      -7.4      0.658      1.187
REMARK  Name = 
REMARK  7 active torsions:
REMARK  status: ('A' for Active; 'I' for Inactive)
REMARK    1  A    between atoms: C_2  and  C_3
REMARK    2  A    between atoms: C_3  and  N_4
REMARK    3  A    between atoms: C_5  and  C_7
REMARK    4  A    between atoms: C_10  and  C_11
REMARK    5  A    between atoms: C_11  and  N_12
REMARK    6  A    between atoms: C_15  and  C_16
REMARK    7  A    between atoms: C_16  and  C_17
REMARK                            x       y       z     vdW  Elec       q    Type
REMARK                         _______ _______ _______ _____ _____    ______ ____
ROOT
ATOM      1  C   UNL     1       6.621   5.372  17.974  0.00  0.00    +0.000 C 
ENDROOT
BRANCH   1   5
ATOM      2  C   UNL     1       6.033   3.984  13.904  0.00  0.00    +0.000 A 
ATOM      3  C   UNL     1       5.123   3.632  14.906  0.00  0.00    +0.000 A 
ATOM      4  C   UNL     1       5.319   4.078  16.218  0.00  0.00    +0.000 A 
ATOM      5  C   UNL     1       6.426   4.876  16.551  0.00  0.00    +0.000 A 
ATOM      6  C   UNL     1       7.330   5.227  15.536  0.00  0.00    +0.000 A 
ATOM      7  C   UNL     1       7.139   4.776  14.228  0.00  0.00    +0.000 A 
BRANCH   2   9
ATOM      8  N   UNL     1       4.626   3.177  12.079  0.00  0.00    +0.000 N 
ATOM      9  C   UNL     1       5.898   3.502  12.501  0.00  0.00    +0.000 C 
ATOM     10  O   UNL     1       6.890   3.433  11.783  0.00  0.00    +0.000 OA
ATOM     11  H   UNL     1       3.830   3.337  12.682  0.00  0.00    +0.000 HD
BRANCH   8  12
ATOM     12  C   UNL     1       4.377   2.654  10.760  0.00  0.00    +0.000 C 
BRANCH  12  14
ATOM     13  C   UNL     1       2.989   4.467   9.726  0.00  0.00    +0.000 C 
ATOM     14  C   UNL     1       3.097   3.242  10.254  0.00  0.00    +0.000 C 
ENDBRANCH  12  14
ENDBRANCH   8  12
ENDBRANCH   2   9
ENDBRANCH   1   5
BRANCH   1  15
ATOM     15  N   UNL     1       5.513   6.206  18.497  0.00  0.00    +0.000 NA
ATOM     16  C   UNL     1       4.814   6.901  17.404  0.00  0.00    +0.000 C 
ATOM     17  C   UNL     1       3.574   7.655  17.884  0.00  0.00    +0.000 C 
ATOM     18  C   UNL     1       2.566   6.738  18.584  0.00  0.00    +0.000 C 
ATOM     19  C   UNL     1       3.313   6.069  19.752  0.00  0.00    +0.000 C 
ATOM     20  C   UNL     1       4.615   5.376  19.322  0.00  0.00    +0.000 C 
BRANCH  18  21
ATOM     21  C   UNL     1       1.906   5.682  17.663  0.00  0.00    +0.000 C 
BRANCH  21  22
ATOM     22  C   UNL     1       1.754   4.285  18.231  0.00  0.00    +0.000 A 
ATOM     23  C   UNL     1       2.328   3.193  17.561  0.00  0.00    +0.000 A 
ATOM     24  C   UNL     1       2.260   1.906  18.098  0.00  0.00    +0.000 A 
ATOM     25  C   UNL     1       1.622   1.690  19.318  0.00  0.00    +0.000 A 
ATOM     26  C   UNL     1       1.052   2.764  19.994  0.00  0.00    +0.000 A 
ATOM     27  C   UNL     1       1.116   4.054  19.457  0.00  0.00    +0.000 A 
ENDBRANCH  21  22
ENDBRANCH  18  21
ENDBRANCH   1  15
TORSDOF 7
ENDMDL
MODEL 7
REMARK VINA RESULT:      -7.3      4.395      7.327
REMARK  Name = 
REMARK  7 active torsions:
REMARK  status: ('A' for Active; 'I' for Inactive)
REMARK    1  A    between atoms: C_2  and  C_3
REMARK    2  A    between atoms: C_3  and  N_4
REMARK    3  A    between atoms: C_5  and  C_7
REMARK    4  A    between atoms: C_10  and  C_11
REMARK    5  A    between atoms: C_11  and  N_12
REMARK    6  A    between atoms: C_15  and  C_16
REMARK    7  A    between atoms: C_16  and  C_17
REMARK                            x       y       z     vdW  Elec       q    Type
REMARK                         _______ _______ _______ _____ _____    ______ ____
ROOT
ATOM      1  C   UNL     1       6.535   4.651  17.526  0.00  0.00    +0.000 C 
ENDROOT
BRANCH   1   5
ATOM      2  C   UNL     1       8.339   8.482  18.476  0.00  0.00    +0.000 A 
ATOM      3  C   UNL     1       8.600   7.364  19.274  0.00  0.00    +0.000 A 
ATOM      4  C   UNL     1       8.012   6.131  18.966  0.00  0.00    +0.000 A 
ATOM      5  C   UNL     1       7.153   5.996  17.864  0.00  0.00    +0.000 A 
ATOM      6  C   UNL     1       6.902   7.125  17.067  0.00  0.00    +0.000 A 
ATOM      7  C   UNL     1       7.482   8.357  17.377  0.00  0.00    +0.000 A 
BRANCH   2   9
ATOM      8  N   UNL     1       8.845  10.764  17.771  0.00  0.00    +0.000 N 
ATOM      9  C   UNL     1       8.902   9.827  18.781  0.00  0.00    +0.000 C 
ATOM     10  O   UNL     1       9.364  10.055  19.893  0.00  0.00    +0.000 OA
ATOM     11  H   UNL     1       8.372  10.553  16.903  0.00  0.00    +0.000 HD
BRANCH   8  12
ATOM     12  C   UNL     1       9.400  12.084  17.931  0.00  0.00    +0.000 C 
BRANCH  12  14
ATOM     13  C   UNL     1      11.870  12.037  18.354  0.00  0.00    +0.000 C 
ATOM     14  C   UNL     1      10.834  12.046  17.506  0.00  0.00    +0.000 C 
ENDBRANCH  12  14
ENDBRANCH   8  12
ENDBRANCH   2   9
ENDBRANCH   1   5
BRANCH   1  15
ATOM     15  N   UNL     1       5.187   4.426  18.102  0.00  0.00    +0.000 NA
ATOM     16  C   UNL     1       4.958   5.299  19.264  0.00  0.00    +0.000 C 
ATOM     17  C   UNL     1       3.529   5.205  19.798  0.00  0.00    +0.000 C 
ATOM     18  C   UNL     1       2.482   5.550  18.733  0.00  0.00    +0.000 C 
ATOM     19  C   UNL     1       2.715   4.584  17.556  0.00  0.00    +0.000 C 
ATOM     20  C   UNL     1       4.166   4.584  17.050  0.00  0.00    +0.000 C 
BRANCH  18  21
ATOM     21  C   UNL     1       2.503   7.024  18.260  0.00  0.00    +0.000 C 
BRANCH  21  22
ATOM     22  C   UNL     1       1.855   8.041  19.178  0.00  0.00    +0.000 A 
ATOM     23  C   UNL     1       1.473   9.293  18.673  0.00  0.00    +0.000 A 
ATOM     24  C   UNL     1       0.814  10.222  19.482  0.00  0.00    +0.000 A 
ATOM     25  C   UNL     1       0.520   9.911  20.808  0.00  0.00    +0.000 A 
ATOM     26  C   UNL     1       0.891   8.672  21.320  0.00  0.00    +0.000 A 
ATOM     27  C   UNL     1       1.555   7.740  20.513  0.00  0.00    +0.000 A 
ENDBRANCH  21  22
ENDBRANCH  18  21
ENDBRANCH   1  15
TORSDOF 7
ENDMDL
MODEL 8
REMARK VINA RESULT:      -7.2      4.418      7.333
REMARK  Name = 
REMARK  7 active torsions:
REMARK  status: ('A' for Active; 'I' for Inactive)
REMARK    1  A    between atoms: C_2  and  C_3
REMARK    2  A    between atoms: C_3  and  N_4
REMARK    3  A    between atoms: C_5  and  C_7
REMARK    4  A    between atoms: C_10  and  C_11
REMARK    5  A    between atoms: C_11  and  N_12
REMARK    6  A    between atoms: C_15  and  C_16
REMARK    7  A    between atoms: C_16  and  C_17
REMARK                            x       y       z     vdW  Elec       q    Type
REMARK                         _______ _______ _______ _____ _____    ______ ____
ROOT
ATOM      1  C   UNL     1       6.764   4.556  17.626  0.00  0.00    +0.000 C 
ENDROOT
BRANCH   1   5
ATOM      2  C   UNL     1       8.331   8.520  18.443  0.00  0.00    +0.000 A 
ATOM      3  C   UNL     1       7.539   8.295  17.312  0.00  0.00    +0.000 A 
ATOM      4  C   UNL     1       7.039   7.014  17.051  0.00  0.00    +0.000 A 
ATOM      5  C   UNL     1       7.325   5.939  17.907  0.00  0.00    +0.000 A 
ATOM      6  C   UNL     1       8.117   6.177  19.042  0.00  0.00    +0.000 A 
ATOM      7  C   UNL     1       8.622   7.453  19.300  0.00  0.00    +0.000 A 
BRANCH   2   9
ATOM      8  N   UNL     1       8.910  10.782  17.730  0.00  0.00    +0.000 N 
ATOM      9  C   UNL     1       8.924   9.851  18.748  0.00  0.00    +0.000 C 
ATOM     10  O   UNL     1       9.374  10.076  19.866  0.00  0.00    +0.000 OA
ATOM     11  H   UNL     1       8.447  10.576  16.855  0.00  0.00    +0.000 HD
BRANCH   8  12
ATOM     12  C   UNL     1       9.498  12.087  17.890  0.00  0.00    +0.000 C 
BRANCH  12  14
ATOM     13  C   UNL     1      11.902  12.776  18.062  0.00  0.00    +0.000 C 
ATOM     14  C   UNL     1      10.949  11.997  17.536  0.00  0.00    +0.000 C 
ENDBRANCH  12  14
ENDBRANCH   8  12
ENDBRANCH   2   9
ENDBRANCH   1   5
BRANCH   1  15
ATOM     15  N   UNL     1       5.381   4.336  18.116  0.00  0.00    +0.000 NA
ATOM     16  C   UNL     1       5.100   5.175  19.292  0.00  0.00    +0.000 C 
ATOM     17  C   UNL     1       3.640   5.090  19.740  0.00  0.00    +0.000 C 
ATOM     18  C   UNL     1       2.663   5.488  18.629  0.00  0.00    +0.000 C 
ATOM     19  C   UNL     1       2.948   4.557  17.436  0.00  0.00    +0.000 C 
ATOM     20  C   UNL     1       4.425   4.547  17.014  0.00  0.00    +0.000 C 
BRANCH  18  21
ATOM     21  C   UNL     1       2.735   6.976  18.208  0.00  0.00    +0.000 C 
BRANCH  21  22
ATOM     22  C   UNL     1       1.957   7.961  19.058  0.00  0.00    +0.000 A 
ATOM     23  C   UNL     1       1.717   7.678  20.411  0.00  0.00    +0.000 A 
ATOM     24  C   UNL     1       1.061   8.598  21.231  0.00  0.00    +0.000 A 
ATOM     25  C   UNL     1       0.641   9.822  20.712  0.00  0.00    +0.000 A 
ATOM     26  C   UNL     1       0.876  10.117  19.374  0.00  0.00    +0.000 A 
ATOM     27  C   UNL     1       1.530   9.194  18.548  0.00  0.00    +0.000 A 
ENDBRANCH  21  22
ENDBRANCH  18  21
ENDBRANCH   1  15
TORSDOF 7
ENDMDL
MODEL 9
REMARK VINA RESULT:      -7.1      4.636      8.925
REMARK  Name = 
REMARK  7 active torsions:
REMARK  status: ('A' for Active; 'I' for Inactive)
REMARK    1  A    between atoms: C_2  and  C_3
REMARK    2  A    between atoms: C_3  and  N_4
REMARK    3  A    between atoms: C_5  and  C_7
REMARK    4  A    between atoms: C_10  and  C_11
REMARK    5  A    between atoms: C_11  and  N_12
REMARK    6  A    between atoms: C_15  and  C_16
REMARK    7  A    between atoms: C_16  and  C_17
REMARK                            x       y       z     vdW  Elec       q    Type
REMARK                         _______ _______ _______ _____ _____    ______ ____
ROOT
ATOM      1  C   UNL     1       2.989   5.975  19.185  0.00  0.00    +0.000 C 
ENDROOT
BRANCH   1   5
ATOM      2  C   UNL     1       0.860   9.753  19.361  0.00  0.00    +0.000 A 
ATOM      3  C   UNL     1       1.393   9.301  18.149  0.00  0.00    +0.000 A 
ATOM      4  C   UNL     1       2.082   8.083  18.099  0.00  0.00    +0.000 A 
ATOM      5  C   UNL     1       2.255   7.303  19.253  0.00  0.00    +0.000 A 
ATOM      6  C   UNL     1       1.712   7.765  20.463  0.00  0.00    +0.000 A 
ATOM      7  C   UNL     1       1.031   8.983  20.516  0.00  0.00    +0.000 A 
BRANCH   2   9
ATOM      8  N   UNL     1      -0.935  11.098  20.325  0.00  0.00    +0.000 N 
ATOM      9  C   UNL     1       0.155  11.060  19.482  0.00  0.00    +0.000 C 
ATOM     10  O   UNL     1       0.568  12.034  18.863  0.00  0.00    +0.000 OA
ATOM     11  H   UNL     1      -1.180  10.290  20.882  0.00  0.00    +0.000 HD
BRANCH   8  12
ATOM     12  C   UNL     1      -1.725  12.291  20.488  0.00  0.00    +0.000 C 
BRANCH  12  14
ATOM     13  C   UNL     1      -1.465  11.938  22.956  0.00  0.00    +0.000 C 
ATOM     14  C   UNL     1      -1.591  12.757  21.903  0.00  0.00    +0.000 C 
ENDBRANCH  12  14
ENDBRANCH   8  12
ENDBRANCH   2   9
ENDBRANCH   1   5
BRANCH   1  15
ATOM     15  N   UNL     1       4.405   6.070  18.756  0.00  0.00    +0.000 NA
ATOM     16  C   UNL     1       5.072   4.762  18.850  0.00  0.00    +0.000 C 
ATOM     17  C   UNL     1       6.490   4.782  18.278  0.00  0.00    +0.000 C 
ATOM     18  C   UNL     1       6.523   5.227  16.812  0.00  0.00    +0.000 C 
ATOM     19  C   UNL     1       5.867   6.618  16.758  0.00  0.00    +0.000 C 
ATOM     20  C   UNL     1       4.475   6.658  17.406  0.00  0.00    +0.000 C 
BRANCH  18  21
ATOM     21  C   UNL     1       5.843   4.247  15.825  0.00  0.00    +0.000 C 
BRANCH  21  22
ATOM     22  C   UNL     1       6.363   4.246  14.402  0.00  0.00    +0.000 A 
ATOM     23  C   UNL     1       5.750   3.434  13.435  0.00  0.00    +0.000 A 
ATOM     24  C   UNL     1       6.167   3.466  12.103  0.00  0.00    +0.000 A 
ATOM     25  C   UNL     1       7.201   4.315  11.713  0.00  0.00    +0.000 A 
ATOM     26  C   UNL     1       7.815   5.128  12.661  0.00  0.00    +0.000 A 
ATOM     27  C   UNL     1       7.401   5.096  13.997  0.00  0.00    +0.000 A 
ENDBRANCH  21  22
ENDBRANCH  18  21
ENDBRANCH   1  15
TORSDOF 7
ENDMDL
