MODEL 1
REMARK VINA RESULT:      -6.6      0.000      0.000
REMARK  Name = 
REMARK  10 active torsions:
REMARK  status: ('A' for Active; 'I' for Inactive)
REMARK    1  A    between atoms: C_1  and  C_2
REMARK    2  A    between atoms: C_2  and  C_3
REMARK    3  A    between atoms: C_3  and  C_4
REMARK    4  A    between atoms: C_4  and  C_5
REMARK    5  A    between atoms: C_5  and  C_6
REMARK    6  A    between atoms: C_7  and  C_8
REMARK    7  A    between atoms: C_10  and  C_11
REMARK    8  A    between atoms: C_11  and  O_13
REMARK    9  A    between atoms: O_13  and  C_14
REMARK   10  A    between atoms: C_15  and  N_16
REMARK                            x       y       z     vdW  Elec       q    Type
REMARK                         _______ _______ _______ _____ _____    ______ ____
ROOT
ATOM      1  C   UNL     1       5.844   4.215  16.001  0.00  0.00    +0.000 A 
ATOM      2  C   UNL     1       4.631   4.205  16.664  0.00  0.00    +0.000 A 
ATOM      3  C   UNL     1       4.760   4.565  18.064  0.00  0.00    +0.000 A 
ATOM      4  C   UNL     1       6.089   4.839  18.361  0.00  0.00    +0.000 A 
ATOM      5  S   UNL     1       7.126   4.650  17.023  0.00  0.00    +0.000 S 
ENDROOT
BRANCH   4   6
ATOM      6  N   UNL     1       6.633   5.214  19.528  0.00  0.00    +0.000 N 
ATOM      7  H   UNL     1       6.494   6.149  19.907  0.00  0.00    +0.000 HD
ATOM      8  H   UNL     1       7.084   4.536  20.133  0.00  0.00    +0.000 HD
ENDBRANCH   4   6
BRANCH   1  10
ATOM      9  C   UNL     1       6.330   3.657  13.375  0.00  0.00    +0.000 C 
ATOM     10  C   UNL     1       6.104   3.911  14.634  0.00  0.00    +0.000 C 
BRANCH   9  11
ATOM     11  C   UNL     1       6.593   3.360  11.908  0.00  0.00    +0.000 C 
BRANCH  11  12
ATOM     12  C   UNL     1       5.420   2.590  11.322  0.00  0.00    +0.000 C 
BRANCH  12  13
ATOM     13  C   UNL     1       4.119   3.344  11.561  0.00  0.00    +0.000 C 
BRANCH  13  15
ATOM     14  C   UNL     1       3.081   4.140   9.427  0.00  0.00    +0.000 C 
ATOM     15  C   UNL     1       3.101   3.035  10.468  0.00  0.00    +0.000 C 
ENDBRANCH  13  15
ENDBRANCH  12  13
ENDBRANCH  11  12
ENDBRANCH   9  11
ENDBRANCH   1  10
BRANCH   3  16
ATOM     16  C   UNL     1       3.709   4.658  19.084  0.00  0.00    +0.000 C 
ATOM     17  O   UNL     1       3.770   5.436  20.039  0.00  0.00    +0.000 OA
BRANCH  16  18
ATOM     18  O   UNL     1       2.657   3.803  18.895  0.00  0.00    +0.000 OA
ATOM     19  C   UNL     1       2.864   2.519  19.503  0.00  0.00    +0.000 C 
ENDBRANCH  16  18
ENDBRANCH   3  16
TORSDOF 8
ENDMDL
MODEL 2
REMARK VINA RESULT:      -6.5      1.600      1.960
REMARK  Name = 
REMARK  10 active torsions:
REMARK  status: ('A' for Active; 'I' for Inactive)
REMARK    1  A    between atoms: C_1  and  C_2
REMARK    2  A    between atoms: C_2  and  C_3
REMARK    3  A    between atoms: C_3  and  C_4
REMARK    4  A    between atoms: C_4  and  C_5
REMARK    5  A    between atoms: C_5  and  C_6
REMARK    6  A    between atoms: C_7  and  C_8
REMARK    7  A    between atoms: C_10  and  C_11
REMARK    8  A    between atoms: C_11  and  O_13
REMARK    9  A    between atoms: O_13  and  C_14
REMARK   10  A    between atoms: C_15  and  N_16
REMARK                            x       y       z     vdW  Elec       q    Type
REMARK                         _______ _______ _______ _____ _____    ______ ____
ROOT
ATOM      1  C   UNL     1       4.644   4.221  16.907  0.00  0.00    +0.000 A 
ATOM      2  C   UNL     1       4.060   3.170  17.589  0.00  0.00    +0.000 A 
ATOM      3  C   UNL     1       3.482   3.583  18.855  0.00  0.00    +0.000 A 
ATOM      4  C   UNL     1       3.664   4.948  19.035  0.00  0.00    +0.000 A 
ATOM      5  S   UNL     1       4.507   5.686  17.752  0.00  0.00    +0.000 S 
ENDROOT
BRANCH   4   6
ATOM      6  N   UNL     1       3.275   5.723  20.058  0.00  0.00    +0.000 N 
ATOM      7  H   UNL     1       3.886   5.909  20.852  0.00  0.00    +0.000 HD
ATOM      8  H   UNL     1       2.415   6.258  20.006  0.00  0.00    +0.000 HD
ENDBRANCH   4   6
BRANCH   1  10
ATOM      9  C   UNL     1       5.924   4.143  14.499  0.00  0.00    +0.000 C 
ATOM     10  C   UNL     1       5.309   4.194  15.647  0.00  0.00    +0.000 C 
BRANCH   9  11
ATOM     11  C   UNL     1       6.642   4.085  13.161  0.00  0.00    +0.000 C 
BRANCH  11  12
ATOM     12  C   UNL     1       5.873   3.185  12.205  0.00  0.00    +0.000 C 
BRANCH  12  13
ATOM     13  C   UNL     1       4.472   3.735  11.971  0.00  0.00    +0.000 C 
BRANCH  13  15
ATOM     14  C   UNL     1       3.114   4.032   9.889  0.00  0.00    +0.000 C 
ATOM     15  C   UNL     1       3.798   3.028  10.800  0.00  0.00    +0.000 C 
ENDBRANCH  13  15
ENDBRANCH  12  13
ENDBRANCH  11  12
ENDBRANCH   9  11
ENDBRANCH   1  10
BRANCH   3  16
ATOM     16  C   UNL     1       2.788   2.760  19.854  0.00  0.00    +0.000 C 
ATOM     17  O   UNL     1       2.965   2.892  21.067  0.00  0.00    +0.000 OA
BRANCH  16  18
ATOM     18  O   UNL     1       1.935   1.828  19.329  0.00  0.00    +0.000 OA
ATOM     19  C   UNL     1       0.766   2.412  18.736  0.00  0.00    +0.000 C 
ENDBRANCH  16  18
ENDBRANCH   3  16
TORSDOF 8
ENDMDL
MODEL 3
REMARK VINA RESULT:      -6.3      3.314      6.856
REMARK  Name = 
REMARK  10 active torsions:
REMARK  status: ('A' for Active; 'I' for Inactive)
REMARK    1  A    between atoms: C_1  and  C_2
REMARK    2  A    between atoms: C_2  and  C_3
REMARK    3  A    between atoms: C_3  and  C_4
REMARK    4  A    between atoms: C_4  and  C_5
REMARK    5  A    between atoms: C_5  and  C_6
REMARK    6  A    between atoms: C_7  and  C_8
REMARK    7  A    between atoms: C_10  and  C_11
REMARK    8  A    between atoms: C_11  and  O_13
REMARK    9  A    between atoms: O_13  and  C_14
REMARK   10  A    between atoms: C_15  and  N_16
REMARK                            x       y       z     vdW  Elec       q    Type
REMARK                         _______ _______ _______ _____ _____    ______ ____
ROOT
ATOM      1  C   UNL     1       4.781   4.046  17.199  0.00  0.00    +0.000 A 
ATOM      2  C   UNL     1       5.192   3.817  15.899  0.00  0.00    +0.000 A 
ATOM      3  C   UNL     1       6.256   4.714  15.487  0.00  0.00    +0.000 A 
ATOM      4  C   UNL     1       6.587   5.567  16.532  0.00  0.00    +0.000 A 
ATOM      5  S   UNL     1       5.647   5.309  17.929  0.00  0.00    +0.000 S 
ENDROOT
BRANCH   4   6
ATOM      6  N   UNL     1       7.516   6.533  16.572  0.00  0.00    +0.000 N 
ATOM      7  H   UNL     1       8.267   6.526  17.260  0.00  0.00    +0.000 HD
ATOM      8  H   UNL     1       7.579   7.224  15.832  0.00  0.00    +0.000 HD
ENDBRANCH   4   6
BRANCH   1  10
ATOM      9  C   UNL     1       2.835   2.732  18.588  0.00  0.00    +0.000 C 
ATOM     10  C   UNL     1       3.765   3.371  17.933  0.00  0.00    +0.000 C 
BRANCH   9  11
ATOM     11  C   UNL     1       1.752   1.988  19.352  0.00  0.00    +0.000 C 
BRANCH  11  12
ATOM     12  C   UNL     1       1.402   2.750  20.620  0.00  0.00    +0.000 C 
BRANCH  12  13
ATOM     13  C   UNL     1       0.929   4.158  20.280  0.00  0.00    +0.000 C 
BRANCH  13  15
ATOM     14  C   UNL     1       2.267   6.231  19.860  0.00  0.00    +0.000 C 
ATOM     15  C   UNL     1       1.848   5.206  20.898  0.00  0.00    +0.000 C 
ENDBRANCH  13  15
ENDBRANCH  12  13
ENDBRANCH  11  12
ENDBRANCH   9  11
ENDBRANCH   1  10
BRANCH   3  16
ATOM     16  C   UNL     1       6.942   4.783  14.191  0.00  0.00    +0.000 C 
ATOM     17  O   UNL     1       7.884   5.549  13.973  0.00  0.00    +0.000 OA
BRANCH  16  18
ATOM     18  O   UNL     1       6.446   3.934  13.240  0.00  0.00    +0.000 OA
ATOM     19  C   UNL     1       7.143   4.030  11.988  0.00  0.00    +0.000 C 
ENDBRANCH  16  18
ENDBRANCH   3  16
TORSDOF 8
ENDMDL
MODEL 4
REMARK VINA RESULT:      -6.3      1.646      1.899
REMARK  Name = 
REMARK  10 active torsions:
REMARK  status: ('A' for Active; 'I' for Inactive)
REMARK    1  A    between atoms: C_1  and  C_2
REMARK    2  A    between atoms: C_2  and  C_3
REMARK    3  A    between atoms: C_3  and  C_4
REMARK    4  A    between atoms: C_4  and  C_5
REMARK    5  A    between atoms: C_5  and  C_6
REMARK    6  A    between atoms: C_7  and  C_8
REMARK    7  A    between atoms: C_10  and  C_11
REMARK    8  A    between atoms: C_11  and  O_13
REMARK    9  A    between atoms: O_13  and  C_14
REMARK   10  A    between atoms: C_15  and  N_16
REMARK                            x       y       z     vdW  Elec       q    Type
REMARK                         _______ _______ _______ _____ _____    ______ ____
ROOT
ATOM      1  C   UNL     1       4.490   4.534  16.634  0.00  0.00    +0.000 A 
ATOM      2  C   UNL     1       3.637   3.676  17.303  0.00  0.00    +0.000 A 
ATOM      3  C   UNL     1       3.120   4.252  18.530  0.00  0.00    +0.000 A 
ATOM      4  C   UNL     1       3.620   5.536  18.697  0.00  0.00    +0.000 A 
ATOM      5  S   UNL     1       4.674   6.012  17.447  0.00  0.00    +0.000 S 
ENDROOT
BRANCH   4   6
ATOM      6  N   UNL     1       3.386   6.412  19.686  0.00  0.00    +0.000 N 
ATOM      7  H   UNL     1       2.488   6.451  20.164  0.00  0.00    +0.000 HD
ATOM      8  H   UNL     1       4.140   6.965  20.078  0.00  0.00    +0.000 HD
ENDBRANCH   4   6
BRANCH   1  10
ATOM      9  C   UNL     1       5.841   4.114  14.302  0.00  0.00    +0.000 C 
ATOM     10  C   UNL     1       5.183   4.311  15.410  0.00  0.00    +0.000 C 
BRANCH   9  11
ATOM     11  C   UNL     1       6.608   3.885  13.009  0.00  0.00    +0.000 C 
BRANCH  11  12
ATOM     12  C   UNL     1       5.770   3.046  12.057  0.00  0.00    +0.000 C 
BRANCH  12  13
ATOM     13  C   UNL     1       4.401   3.682  11.855  0.00  0.00    +0.000 C 
BRANCH  13  15
ATOM     14  C   UNL     1       3.019   4.124   9.815  0.00  0.00    +0.000 C 
ATOM     15  C   UNL     1       3.678   3.055  10.668  0.00  0.00    +0.000 C 
ENDBRANCH  13  15
ENDBRANCH  12  13
ENDBRANCH  11  12
ENDBRANCH   9  11
ENDBRANCH   1  10
BRANCH   3  16
ATOM     16  C   UNL     1       2.203   3.650  19.507  0.00  0.00    +0.000 C 
ATOM     17  O   UNL     1       1.022   3.988  19.611  0.00  0.00    +0.000 OA
BRANCH  16  18
ATOM     18  O   UNL     1       2.768   2.688  20.298  0.00  0.00    +0.000 OA
ATOM     19  C   UNL     1       2.203   2.647  21.617  0.00  0.00    +0.000 C 
ENDBRANCH  16  18
ENDBRANCH   3  16
TORSDOF 8
ENDMDL
MODEL 5
REMARK VINA RESULT:      -6.3      2.129      2.872
REMARK  Name = 
REMARK  10 active torsions:
REMARK  status: ('A' for Active; 'I' for Inactive)
REMARK    1  A    between atoms: C_1  and  C_2
REMARK    2  A    between atoms: C_2  and  C_3
REMARK    3  A    between atoms: C_3  and  C_4
REMARK    4  A    between atoms: C_4  and  C_5
REMARK    5  A    between atoms: C_5  and  C_6
REMARK    6  A    between atoms: C_7  and  C_8
REMARK    7  A    between atoms: C_10  and  C_11
REMARK    8  A    between atoms: C_11  and  O_13
REMARK    9  A    between atoms: O_13  and  C_14
REMARK   10  A    between atoms: C_15  and  N_16
REMARK                            x       y       z     vdW  Elec       q    Type
REMARK                         _______ _______ _______ _____ _____    ______ ____
ROOT
ATOM      1  C   UNL     1       3.781   4.665  17.318  0.00  0.00    +0.000 A 
ATOM      2  C   UNL     1       2.875   3.696  17.707  0.00  0.00    +0.000 A 
ATOM      3  C   UNL     1       2.106   4.091  18.873  0.00  0.00    +0.000 A 
ATOM      4  C   UNL     1       2.487   5.362  19.282  0.00  0.00    +0.000 A 
ATOM      5  S   UNL     1       3.722   6.033  18.319  0.00  0.00    +0.000 S 
ENDROOT
BRANCH   4   6
ATOM      6  N   UNL     1       2.022   6.095  20.304  0.00  0.00    +0.000 N 
ATOM      7  H   UNL     1       1.123   5.898  20.739  0.00  0.00    +0.000 HD
ATOM      8  H   UNL     1       2.614   6.779  20.764  0.00  0.00    +0.000 HD
ENDBRANCH   4   6
BRANCH   1  10
ATOM      9  C   UNL     1       5.557   4.606  15.248  0.00  0.00    +0.000 C 
ATOM     10  C   UNL     1       4.700   4.626  16.230  0.00  0.00    +0.000 C 
BRANCH   9  11
ATOM     11  C   UNL     1       6.557   4.583  14.103  0.00  0.00    +0.000 C 
BRANCH  11  12
ATOM     12  C   UNL     1       6.166   3.508  13.102  0.00  0.00    +0.000 C 
BRANCH  12  13
ATOM     13  C   UNL     1       4.819   3.836  12.470  0.00  0.00    +0.000 C 
BRANCH  13  15
ATOM     14  C   UNL     1       3.388   3.467  10.450  0.00  0.00    +0.000 C 
ATOM     15  C   UNL     1       4.540   2.926  11.278  0.00  0.00    +0.000 C 
ENDBRANCH  13  15
ENDBRANCH  12  13
ENDBRANCH  11  12
ENDBRANCH   9  11
ENDBRANCH   1  10
BRANCH   3  16
ATOM     16  C   UNL     1       1.065   3.335  19.580  0.00  0.00    +0.000 C 
ATOM     17  O   UNL     1       0.287   2.570  19.005  0.00  0.00    +0.000 OA
BRANCH  16  18
ATOM     18  O   UNL     1       1.020   3.555  20.930  0.00  0.00    +0.000 OA
ATOM     19  C   UNL     1       1.875   2.670  21.668  0.00  0.00    +0.000 C 
ENDBRANCH  16  18
ENDBRANCH   3  16
TORSDOF 8
ENDMDL
MODEL 6
REMARK VINA RESULT:      -6.3      0.748      1.129
REMARK  Name = 
REMARK  10 active torsions:
REMARK  status: ('A' for Active; 'I' for Inactive)
REMARK    1  A    between atoms: C_1  and  C_2
REMARK    2  A    between atoms: C_2  and  C_3
REMARK    3  A    between atoms: C_3  and  C_4
REMARK    4  A    between atoms: C_4  and  C_5
REMARK    5  A    between atoms: C_5  and  C_6
REMARK    6  A    between atoms: C_7  and  C_8
REMARK    7  A    between atoms: C_10  and  C_11
REMARK    8  A    between atoms: C_11  and  O_13
REMARK    9  A    between atoms: O_13  and  C_14
REMARK   10  A    between atoms: C_15  and  N_16
REMARK                            x       y       z     vdW  Elec       q    Type
REMARK                         _______ _______ _______ _____ _____    ______ ____
ROOT
ATOM      1  C   UNL     1       5.866   4.108  16.085  0.00  0.00    +0.000 A 
ATOM      2  C   UNL     1       4.737   3.843  16.837  0.00  0.00    +0.000 A 
ATOM      3  C   UNL     1       4.898   4.214  18.231  0.00  0.00    +0.000 A 
ATOM      4  C   UNL     1       6.161   4.755  18.433  0.00  0.00    +0.000 A 
ATOM      5  S   UNL     1       7.107   4.793  17.017  0.00  0.00    +0.000 S 
ENDROOT
BRANCH   4   6
ATOM      6  N   UNL     1       6.705   5.228  19.564  0.00  0.00    +0.000 N 
ATOM      7  H   UNL     1       6.922   6.216  19.681  0.00  0.00    +0.000 HD
ATOM      8  H   UNL     1       6.790   4.639  20.385  0.00  0.00    +0.000 HD
ENDBRANCH   4   6
BRANCH   1  10
ATOM      9  C   UNL     1       6.265   3.685  13.420  0.00  0.00    +0.000 C 
ATOM     10  C   UNL     1       6.075   3.873  14.696  0.00  0.00    +0.000 C 
BRANCH   9  11
ATOM     11  C   UNL     1       6.486   3.465  11.932  0.00  0.00    +0.000 C 
BRANCH  11  12
ATOM     12  C   UNL     1       5.468   2.466  11.404  0.00  0.00    +0.000 C 
BRANCH  12  13
ATOM     13  C   UNL     1       4.053   2.998  11.597  0.00  0.00    +0.000 C 
BRANCH  13  15
ATOM     14  C   UNL     1       2.836   3.690   9.523  0.00  0.00    +0.000 C 
ATOM     15  C   UNL     1       3.765   4.144  10.634  0.00  0.00    +0.000 C 
ENDBRANCH  13  15
ENDBRANCH  12  13
ENDBRANCH  11  12
ENDBRANCH   9  11
ENDBRANCH   1  10
BRANCH   3  16
ATOM     16  C   UNL     1       3.933   4.080  19.329  0.00  0.00    +0.000 C 
ATOM     17  O   UNL     1       3.494   2.991  19.705  0.00  0.00    +0.000 OA
BRANCH  16  18
ATOM     18  O   UNL     1       3.552   5.265  19.898  0.00  0.00    +0.000 OA
ATOM     19  C   UNL     1       2.270   5.190  20.539  0.00  0.00    +0.000 C 
ENDBRANCH  16  18
ENDBRANCH   3  16
TORSDOF 8
ENDMDL
MODEL 7
REMARK VINA RESULT:      -6.2      4.380      7.680
REMARK  Name = 
REMARK  10 active torsions:
REMARK  status: ('A' for Active; 'I' for Inactive)
REMARK    1  A    between atoms: C_1  and  C_2
REMARK    2  A    between atoms: C_2  and  C_3
REMARK    3  A    between atoms: C_3  and  C_4
REMARK    4  A    between atoms: C_4  and  C_5
REMARK    5  A    between atoms: C_5  and  C_6
REMARK    6  A    between atoms: C_7  and  C_8
REMARK    7  A    between atoms: C_10  and  C_11
REMARK    8  A    between atoms: C_11  and  O_13
REMARK    9  A    between atoms: O_13  and  C_14
REMARK   10  A    between atoms: C_15  and  N_16
REMARK                            x       y       z     vdW  Elec       q    Type
REMARK                         _______ _______ _______ _____ _____    ______ ____
ROOT
ATOM      1  C   UNL     1       3.951   6.680  17.862  0.00  0.00    +0.000 A 
ATOM      2  C   UNL     1       5.043   6.607  17.018  0.00  0.00    +0.000 A 
ATOM      3  C   UNL     1       5.892   5.465  17.305  0.00  0.00    +0.000 A 
ATOM      4  C   UNL     1       5.361   4.735  18.361  0.00  0.00    +0.000 A 
ATOM      5  S   UNL     1       3.925   5.407  18.983  0.00  0.00    +0.000 S 
ENDROOT
BRANCH   4   6
ATOM      6  N   UNL     1       5.826   3.613  18.929  0.00  0.00    +0.000 N 
ATOM      7  H   UNL     1       5.762   2.711  18.462  0.00  0.00    +0.000 HD
ATOM      8  H   UNL     1       6.377   3.652  19.780  0.00  0.00    +0.000 HD
ENDBRANCH   4   6
BRANCH   1  10
ATOM      9  C   UNL     1       1.984   8.570  17.910  0.00  0.00    +0.000 C 
ATOM     10  C   UNL     1       2.915   7.658  17.881  0.00  0.00    +0.000 C 
BRANCH   9  11
ATOM     11  C   UNL     1       0.898   9.633  17.944  0.00  0.00    +0.000 C 
BRANCH  11  12
ATOM     12  C   UNL     1       0.936  10.362  19.279  0.00  0.00    +0.000 C 
BRANCH  12  13
ATOM     13  C   UNL     1      -0.404  10.231  19.992  0.00  0.00    +0.000 C 
BRANCH  13  15
ATOM     14  C   UNL     1       0.549   8.427  21.441  0.00  0.00    +0.000 C 
ATOM     15  C   UNL     1      -0.215   9.738  21.422  0.00  0.00    +0.000 C 
ENDBRANCH  13  15
ENDBRANCH  12  13
ENDBRANCH  11  12
ENDBRANCH   9  11
ENDBRANCH   1  10
BRANCH   3  16
ATOM     16  C   UNL     1       7.135   5.060  16.638  0.00  0.00    +0.000 C 
ATOM     17  O   UNL     1       7.980   4.341  17.177  0.00  0.00    +0.000 OA
BRANCH  16  18
ATOM     18  O   UNL     1       7.285   5.551  15.369  0.00  0.00    +0.000 OA
ATOM     19  C   UNL     1       6.709   4.698  14.368  0.00  0.00    +0.000 C 
ENDBRANCH  16  18
ENDBRANCH   3  16
TORSDOF 8
ENDMDL
MODEL 8
REMARK VINA RESULT:      -6.0      2.980      6.464
REMARK  Name = 
REMARK  10 active torsions:
REMARK  status: ('A' for Active; 'I' for Inactive)
REMARK    1  A    between atoms: C_1  and  C_2
REMARK    2  A    between atoms: C_2  and  C_3
REMARK    3  A    between atoms: C_3  and  C_4
REMARK    4  A    between atoms: C_4  and  C_5
REMARK    5  A    between atoms: C_5  and  C_6
REMARK    6  A    between atoms: C_7  and  C_8
REMARK    7  A    between atoms: C_10  and  C_11
REMARK    8  A    between atoms: C_11  and  O_13
REMARK    9  A    between atoms: O_13  and  C_14
REMARK   10  A    between atoms: C_15  and  N_16
REMARK                            x       y       z     vdW  Elec       q    Type
REMARK                         _______ _______ _______ _____ _____    ______ ____
ROOT
ATOM      1  C   UNL     1       5.310   4.339  18.151  0.00  0.00    +0.000 A 
ATOM      2  C   UNL     1       5.422   3.936  16.833  0.00  0.00    +0.000 A 
ATOM      3  C   UNL     1       6.326   4.778  16.070  0.00  0.00    +0.000 A 
ATOM      4  C   UNL     1       6.851   5.770  16.887  0.00  0.00    +0.000 A 
ATOM      5  S   UNL     1       6.267   5.699  18.486  0.00  0.00    +0.000 S 
ENDROOT
BRANCH   4   6
ATOM      6  N   UNL     1       7.724   6.741  16.582  0.00  0.00    +0.000 N 
ATOM      7  H   UNL     1       8.728   6.571  16.559  0.00  0.00    +0.000 HD
ATOM      8  H   UNL     1       7.403   7.637  16.231  0.00  0.00    +0.000 HD
ENDBRANCH   4   6
BRANCH   1  10
ATOM      9  C   UNL     1       3.814   3.227  20.143  0.00  0.00    +0.000 C 
ATOM     10  C   UNL     1       4.517   3.762  19.184  0.00  0.00    +0.000 C 
BRANCH   9  11
ATOM     11  C   UNL     1       2.995   2.603  21.261  0.00  0.00    +0.000 C 
BRANCH  11  12
ATOM     12  C   UNL     1       1.557   2.420  20.802  0.00  0.00    +0.000 C 
BRANCH  12  13
ATOM     13  C   UNL     1       1.089   3.642  20.022  0.00  0.00    +0.000 C 
BRANCH  13  15
ATOM     14  C   UNL     1       1.406   4.269  17.619  0.00  0.00    +0.000 C 
ATOM     15  C   UNL     1       0.769   3.277  18.577  0.00  0.00    +0.000 C 
ENDBRANCH  13  15
ENDBRANCH  12  13
ENDBRANCH  11  12
ENDBRANCH   9  11
ENDBRANCH   1  10
BRANCH   3  16
ATOM     16  C   UNL     1       6.694   4.674  14.653  0.00  0.00    +0.000 C 
ATOM     17  O   UNL     1       7.617   5.320  14.152  0.00  0.00    +0.000 OA
BRANCH  16  18
ATOM     18  O   UNL     1       5.922   3.806  13.928  0.00  0.00    +0.000 OA
ATOM     19  C   UNL     1       6.395   3.629  12.584  0.00  0.00    +0.000 C 
ENDBRANCH  16  18
ENDBRANCH   3  16
TORSDOF 8
ENDMDL
MODEL 9
REMARK VINA RESULT:      -6.0      4.271      6.642
REMARK  Name = 
REMARK  10 active torsions:
REMARK  status: ('A' for Active; 'I' for Inactive)
REMARK    1  A    between atoms: C_1  and  C_2
REMARK    2  A    between atoms: C_2  and  C_3
REMARK    3  A    between atoms: C_3  and  C_4
REMARK    4  A    between atoms: C_4  and  C_5
REMARK    5  A    between atoms: C_5  and  C_6
REMARK    6  A    between atoms: C_7  and  C_8
REMARK    7  A    between atoms: C_10  and  C_11
REMARK    8  A    between atoms: C_11  and  O_13
REMARK    9  A    between atoms: O_13  and  C_14
REMARK   10  A    between atoms: C_15  and  N_16
REMARK                            x       y       z     vdW  Elec       q    Type
REMARK                         _______ _______ _______ _____ _____    ______ ____
ROOT
ATOM      1  C   UNL     1       4.759   4.448  17.412  0.00  0.00    +0.000 A 
ATOM      2  C   UNL     1       5.438   5.411  18.134  0.00  0.00    +0.000 A 
ATOM      3  C   UNL     1       6.596   5.924  17.425  0.00  0.00    +0.000 A 
ATOM      4  C   UNL     1       6.703   5.306  16.186  0.00  0.00    +0.000 A 
ATOM      5  S   UNL     1       5.481   4.154  15.905  0.00  0.00    +0.000 S 
ENDROOT
BRANCH   4   6
ATOM      6  N   UNL     1       7.618   5.496  15.224  0.00  0.00    +0.000 N 
ATOM      7  H   UNL     1       8.609   5.323  15.385  0.00  0.00    +0.000 HD
ATOM      8  H   UNL     1       7.335   5.686  14.268  0.00  0.00    +0.000 HD
ENDBRANCH   4   6
BRANCH   1  10
ATOM      9  C   UNL     1       2.529   3.065  18.158  0.00  0.00    +0.000 C 
ATOM     10  C   UNL     1       3.591   3.725  17.788  0.00  0.00    +0.000 C 
BRANCH   9  11
ATOM     11  C   UNL     1       1.291   2.297  18.589  0.00  0.00    +0.000 C 
BRANCH  11  12
ATOM     12  C   UNL     1       0.973   2.610  20.043  0.00  0.00    +0.000 C 
BRANCH  12  13
ATOM     13  C   UNL     1       1.903   3.695  20.567  0.00  0.00    +0.000 C 
BRANCH  13  15
ATOM     14  C   UNL     1       2.204   6.161  20.261  0.00  0.00    +0.000 C 
ATOM     15  C   UNL     1       1.211   5.054  20.566  0.00  0.00    +0.000 C 
ENDBRANCH  13  15
ENDBRANCH  12  13
ENDBRANCH  11  12
ENDBRANCH   9  11
ENDBRANCH   1  10
BRANCH   3  16
ATOM     16  C   UNL     1       7.561   6.940  17.864  0.00  0.00    +0.000 C 
ATOM     17  O   UNL     1       8.305   6.780  18.834  0.00  0.00    +0.000 OA
BRANCH  16  18
ATOM     18  O   UNL     1       7.562   8.084  17.113  0.00  0.00    +0.000 OA
ATOM     19  C   UNL     1       8.116   9.209  17.812  0.00  0.00    +0.000 C 
ENDBRANCH  16  18
ENDBRANCH   3  16
TORSDOF 8
ENDMDL
