MODEL 1
REMARK VINA RESULT:      -8.8      0.000      0.000
REMARK  Name = 
REMARK  4 active torsions:
REMARK  status: ('A' for Active; 'I' for Inactive)
REMARK    1  A    between atoms: S_2  and  N_4
REMARK    2  A    between atoms: S_2  and  C_26
REMARK    3  A    between atoms: C_7  and  C_8
REMARK    4  A    between atoms: N_11  and  C_12
REMARK                            x       y       z     vdW  Elec       q    Type
REMARK                         _______ _______ _______ _____ _____    ______ ____
ROOT
ATOM      1  C   UNL     1       2.497   6.558  19.319  0.00  0.00    +0.000 A 
ATOM      2  N   UNL     1       3.435   6.106  18.464  0.00  0.00    +0.000 NA
ATOM      3  C   UNL     1       3.970   4.876  18.648  0.00  0.00    +0.000 A 
ATOM      4  N   UNL     1       4.985   4.421  17.798  0.00  0.00    +0.000 N 
ATOM      5  C   UNL     1       3.460   4.104  19.703  0.00  0.00    +0.000 A 
ATOM      6  S   UNL     1       3.870   2.509  20.202  0.00  0.00    +0.000 S 
ATOM      7  C   UNL     1       2.735   2.537  21.481  0.00  0.00    +0.000 A 
ATOM      8  C   UNL     1       2.071   3.741  21.550  0.00  0.00    +0.000 A 
ATOM      9  C   UNL     1       2.484   4.646  20.530  0.00  0.00    +0.000 A 
ATOM     10  N   UNL     1       1.990   5.895  20.364  0.00  0.00    +0.000 NA
ATOM     11  H   UNL     1       5.494   3.634  18.192  0.00  0.00    +0.000 HD
ENDROOT
BRANCH   1  15
ATOM     12  N   UNL     1      -0.351  10.416  20.481  0.00  0.00    +0.000 N 
ATOM     13  C   UNL     1       0.576   9.762  19.648  0.00  0.00    +0.000 A 
ATOM     14  C   UNL     1       0.996   8.470  19.903  0.00  0.00    +0.000 A 
ATOM     15  C   UNL     1       1.987   7.915  19.086  0.00  0.00    +0.000 A 
ATOM     16  C   UNL     1       2.485   8.709  18.043  0.00  0.00    +0.000 A 
ATOM     17  C   UNL     1       1.978   9.987  17.864  0.00  0.00    +0.000 A 
ATOM     18  N   UNL     1       1.033  10.538  18.654  0.00  0.00    +0.000 NA
ATOM     19  H   UNL     1      -0.886  11.093  19.944  0.00  0.00    +0.000 HD
BRANCH  12  21
ATOM     20  O   UNL     1       0.480  10.156  22.830  0.00  0.00    +0.000 OA
ATOM     21  S   UNL     1       0.339  11.184  21.824  0.00  0.00    +0.000 S 
ATOM     22  O   UNL     1       1.484  11.958  21.388  0.00  0.00    +0.000 OA
BRANCH  21  23
ATOM     23  C   UNL     1      -0.857  12.404  22.456  0.00  0.00    +0.000 C 
ATOM     24  C   UNL     1      -2.182  12.451  21.738  0.00  0.00    +0.000 C 
ATOM     25  C   UNL     1      -2.091  11.811  23.095  0.00  0.00    +0.000 C 
ENDBRANCH  21  23
ENDBRANCH  12  21
ENDBRANCH   1  15
BRANCH   4  26
ATOM     26  C   UNL     1       5.795   5.435  17.112  0.00  0.00    +0.000 C 
ATOM     27  C   UNL     1       5.292   5.654  15.686  0.00  0.00    +0.000 C 
ATOM     28  C   UNL     1       6.255   4.886  14.799  0.00  0.00    +0.000 C 
ATOM     29  N   UNL     1       7.551   4.937  15.473  0.00  0.00    +0.000 NA
ATOM     30  C   UNL     1       7.268   5.026  16.917  0.00  0.00    +0.000 C 
ATOM     31  H   UNL     1       8.050   5.779  15.183  0.00  0.00    +0.000 HD
ENDBRANCH   4  26
TORSDOF 4
ENDMDL
MODEL 2
REMARK VINA RESULT:      -8.5      3.019      5.058
REMARK  Name = 
REMARK  4 active torsions:
REMARK  status: ('A' for Active; 'I' for Inactive)
REMARK    1  A    between atoms: S_2  and  N_4
REMARK    2  A    between atoms: S_2  and  C_26
REMARK    3  A    between atoms: C_7  and  C_8
REMARK    4  A    between atoms: N_11  and  C_12
REMARK                            x       y       z     vdW  Elec       q    Type
REMARK                         _______ _______ _______ _____ _____    ______ ____
ROOT
ATOM      1  C   UNL     1       2.189   8.056  18.748  0.00  0.00    +0.000 A 
ATOM      2  N   UNL     1       2.319   7.038  19.622  0.00  0.00    +0.000 NA
ATOM      3  C   UNL     1       3.205   6.047  19.366  0.00  0.00    +0.000 A 
ATOM      4  N   UNL     1       3.308   4.958  20.239  0.00  0.00    +0.000 N 
ATOM      5  C   UNL     1       3.994   6.172  18.212  0.00  0.00    +0.000 A 
ATOM      6  S   UNL     1       5.226   5.139  17.600  0.00  0.00    +0.000 S 
ATOM      7  C   UNL     1       5.512   6.153  16.252  0.00  0.00    +0.000 A 
ATOM      8  C   UNL     1       4.674   7.245  16.247  0.00  0.00    +0.000 A 
ATOM      9  C   UNL     1       3.799   7.261  17.371  0.00  0.00    +0.000 A 
ATOM     10  N   UNL     1       2.878   8.223  17.614  0.00  0.00    +0.000 NA
ATOM     11  H   UNL     1       3.777   4.163  19.812  0.00  0.00    +0.000 HD
ENDROOT
BRANCH   1  15
ATOM     12  N   UNL     1      -1.227  11.378  17.465  0.00  0.00    +0.000 N 
ATOM     13  C   UNL     1      -0.446  10.705  18.423  0.00  0.00    +0.000 A 
ATOM     14  C   UNL     1       0.508   9.773  18.059  0.00  0.00    +0.000 A 
ATOM     15  C   UNL     1       1.183   9.077  19.067  0.00  0.00    +0.000 A 
ATOM     16  C   UNL     1       0.853   9.383  20.396  0.00  0.00    +0.000 A 
ATOM     17  C   UNL     1      -0.106  10.350  20.650  0.00  0.00    +0.000 A 
ATOM     18  N   UNL     1      -0.774  11.018  19.686  0.00  0.00    +0.000 NA
ATOM     19  H   UNL     1      -1.495  12.293  17.814  0.00  0.00    +0.000 HD
BRANCH  12  21
ATOM     20  O   UNL     1      -2.489  10.374  15.547  0.00  0.00    +0.000 OA
ATOM     21  S   UNL     1      -2.613  10.534  16.977  0.00  0.00    +0.000 S 
ATOM     22  O   UNL     1      -2.792   9.383  17.841  0.00  0.00    +0.000 OA
BRANCH  21  23
ATOM     23  C   UNL     1      -4.060  11.597  17.283  0.00  0.00    +0.000 C 
ATOM     24  C   UNL     1      -5.217  10.937  17.990  0.00  0.00    +0.000 C 
ATOM     25  C   UNL     1      -4.333  11.896  18.738  0.00  0.00    +0.000 C 
ENDBRANCH  21  23
ENDBRANCH  12  21
ENDBRANCH   1  15
BRANCH   4  26
ATOM     26  C   UNL     1       2.138   4.646  21.069  0.00  0.00    +0.000 C 
ATOM     27  C   UNL     1       2.368   3.363  21.866  0.00  0.00    +0.000 C 
ATOM     28  C   UNL     1       1.605   2.285  21.120  0.00  0.00    +0.000 C 
ATOM     29  N   UNL     1       0.453   2.952  20.516  0.00  0.00    +0.000 NA
ATOM     30  C   UNL     1       0.864   4.344  20.257  0.00  0.00    +0.000 C 
ATOM     31  H   UNL     1      -0.322   2.955  21.180  0.00  0.00    +0.000 HD
ENDBRANCH   4  26
TORSDOF 4
ENDMDL
MODEL 3
REMARK VINA RESULT:      -8.4      1.268      1.439
REMARK  Name = 
REMARK  4 active torsions:
REMARK  status: ('A' for Active; 'I' for Inactive)
REMARK    1  A    between atoms: S_2  and  N_4
REMARK    2  A    between atoms: S_2  and  C_26
REMARK    3  A    between atoms: C_7  and  C_8
REMARK    4  A    between atoms: N_11  and  C_12
REMARK                            x       y       z     vdW  Elec       q    Type
REMARK                         _______ _______ _______ _____ _____    ______ ____
ROOT
ATOM      1  C   UNL     1       2.310   7.082  18.967  0.00  0.00    +0.000 A 
ATOM      2  N   UNL     1       3.041   6.566  17.960  0.00  0.00    +0.000 NA
ATOM      3  C   UNL     1       3.524   5.305  18.062  0.00  0.00    +0.000 A 
ATOM      4  N   UNL     1       4.331   4.781  17.045  0.00  0.00    +0.000 N 
ATOM      5  C   UNL     1       3.175   4.574  19.208  0.00  0.00    +0.000 A 
ATOM      6  S   UNL     1       3.571   2.959  19.650  0.00  0.00    +0.000 S 
ATOM      7  C   UNL     1       2.701   3.068  21.119  0.00  0.00    +0.000 A 
ATOM      8  C   UNL     1       2.138   4.313  21.289  0.00  0.00    +0.000 A 
ATOM      9  C   UNL     1       2.407   5.182  20.193  0.00  0.00    +0.000 A 
ATOM     10  N   UNL     1       1.969   6.459  20.101  0.00  0.00    +0.000 NA
ATOM     11  H   UNL     1       4.855   3.965  17.351  0.00  0.00    +0.000 HD
ENDROOT
BRANCH   1  15
ATOM     12  N   UNL     1      -0.640  10.867  20.118  0.00  0.00    +0.000 N 
ATOM     13  C   UNL     1       0.390  10.280  19.359  0.00  0.00    +0.000 A 
ATOM     14  C   UNL     1       0.759   8.959  19.533  0.00  0.00    +0.000 A 
ATOM     15  C   UNL     1       1.851   8.468  18.809  0.00  0.00    +0.000 A 
ATOM     16  C   UNL     1       2.499   9.353  17.937  0.00  0.00    +0.000 A 
ATOM     17  C   UNL     1       2.034  10.654  17.823  0.00  0.00    +0.000 A 
ATOM     18  N   UNL     1       0.991  11.144  18.527  0.00  0.00    +0.000 NA
ATOM     19  H   UNL     1      -1.086  11.608  19.586  0.00  0.00    +0.000 HD
BRANCH  12  21
ATOM     20  O   UNL     1       1.302  11.414  21.603  0.00  0.00    +0.000 OA
ATOM     21  S   UNL     1      -0.141  11.475  21.619  0.00  0.00    +0.000 S 
ATOM     22  O   UNL     1      -0.828  12.726  21.872  0.00  0.00    +0.000 OA
BRANCH  21  23
ATOM     23  C   UNL     1      -0.721  10.334  22.914  0.00  0.00    +0.000 C 
ATOM     24  C   UNL     1      -0.692   8.870  22.555  0.00  0.00    +0.000 C 
ATOM     25  C   UNL     1       0.344   9.431  23.488  0.00  0.00    +0.000 C 
ENDBRANCH  21  23
ENDBRANCH  12  21
ENDBRANCH   1  15
BRANCH   4  26
ATOM     26  C   UNL     1       5.059   5.736  16.202  0.00  0.00    +0.000 C 
ATOM     27  C   UNL     1       5.592   5.049  14.945  0.00  0.00    +0.000 C 
ATOM     28  C   UNL     1       7.065   4.805  15.217  0.00  0.00    +0.000 C 
ATOM     29  N   UNL     1       7.503   5.902  16.079  0.00  0.00    +0.000 NA
ATOM     30  C   UNL     1       6.325   6.311  16.865  0.00  0.00    +0.000 C 
ATOM     31  H   UNL     1       7.802   6.688  15.501  0.00  0.00    +0.000 HD
ENDBRANCH   4  26
TORSDOF 4
ENDMDL
MODEL 4
REMARK VINA RESULT:      -8.2      3.132      5.291
REMARK  Name = 
REMARK  4 active torsions:
REMARK  status: ('A' for Active; 'I' for Inactive)
REMARK    1  A    between atoms: S_2  and  N_4
REMARK    2  A    between atoms: S_2  and  C_26
REMARK    3  A    between atoms: C_7  and  C_8
REMARK    4  A    between atoms: N_11  and  C_12
REMARK                            x       y       z     vdW  Elec       q    Type
REMARK                         _______ _______ _______ _____ _____    ______ ____
ROOT
ATOM      1  C   UNL     1       2.210   8.155  18.812  0.00  0.00    +0.000 A 
ATOM      2  N   UNL     1       2.334   7.104  19.646  0.00  0.00    +0.000 NA
ATOM      3  C   UNL     1       3.158   6.081  19.315  0.00  0.00    +0.000 A 
ATOM      4  N   UNL     1       3.250   4.960  20.149  0.00  0.00    +0.000 N 
ATOM      5  C   UNL     1       3.894   6.208  18.128  0.00  0.00    +0.000 A 
ATOM      6  S   UNL     1       5.045   5.140  17.423  0.00  0.00    +0.000 S 
ATOM      7  C   UNL     1       5.313   6.183  16.095  0.00  0.00    +0.000 A 
ATOM      8  C   UNL     1       4.529   7.313  16.165  0.00  0.00    +0.000 A 
ATOM      9  C   UNL     1       3.712   7.332  17.332  0.00  0.00    +0.000 A 
ATOM     10  N   UNL     1       2.851   8.327  17.651  0.00  0.00    +0.000 NA
ATOM     11  H   UNL     1       3.660   4.159  19.674  0.00  0.00    +0.000 HD
ENDROOT
BRANCH   1  15
ATOM     12  N   UNL     1      -1.128  11.647  17.807  0.00  0.00    +0.000 N 
ATOM     13  C   UNL     1      -0.321  10.920  18.702  0.00  0.00    +0.000 A 
ATOM     14  C   UNL     1       0.568   9.957  18.261  0.00  0.00    +0.000 A 
ATOM     15  C   UNL     1       1.271   9.211  19.213  0.00  0.00    +0.000 A 
ATOM     16  C   UNL     1       1.036   9.500  20.564  0.00  0.00    +0.000 A 
ATOM     17  C   UNL     1       0.138  10.501  20.896  0.00  0.00    +0.000 A 
ATOM     18  N   UNL     1      -0.558  11.218  19.988  0.00  0.00    +0.000 NA
ATOM     19  H   UNL     1      -1.334  12.565  18.190  0.00  0.00    +0.000 HD
BRANCH  12  21
ATOM     20  O   UNL     1      -2.360   9.471  17.654  0.00  0.00    +0.000 OA
ATOM     21  S   UNL     1      -2.577  10.874  17.389  0.00  0.00    +0.000 S 
ATOM     22  O   UNL     1      -3.683  11.584  18.002  0.00  0.00    +0.000 OA
BRANCH  21  23
ATOM     23  C   UNL     1      -2.820  11.059  15.594  0.00  0.00    +0.000 C 
ATOM     24  C   UNL     1      -2.607   9.811  14.775  0.00  0.00    +0.000 C 
ATOM     25  C   UNL     1      -4.003  10.305  15.032  0.00  0.00    +0.000 C 
ENDBRANCH  21  23
ENDBRANCH  12  21
ENDBRANCH   1  15
BRANCH   4  26
ATOM     26  C   UNL     1       2.108   4.676  21.025  0.00  0.00    +0.000 C 
ATOM     27  C   UNL     1       2.406   3.480  21.929  0.00  0.00    +0.000 C 
ATOM     28  C   UNL     1       1.678   2.308  21.296  0.00  0.00    +0.000 C 
ATOM     29  N   UNL     1       0.489   2.870  20.658  0.00  0.00    +0.000 NA
ATOM     30  C   UNL     1       0.835   4.249  20.269  0.00  0.00    +0.000 C 
ATOM     31  H   UNL     1      -0.275   2.901  21.335  0.00  0.00    +0.000 HD
ENDBRANCH   4  26
TORSDOF 4
ENDMDL
MODEL 5
REMARK VINA RESULT:      -8.2      2.538      3.079
REMARK  Name = 
REMARK  4 active torsions:
REMARK  status: ('A' for Active; 'I' for Inactive)
REMARK    1  A    between atoms: S_2  and  N_4
REMARK    2  A    between atoms: S_2  and  C_26
REMARK    3  A    between atoms: C_7  and  C_8
REMARK    4  A    between atoms: N_11  and  C_12
REMARK                            x       y       z     vdW  Elec       q    Type
REMARK                         _______ _______ _______ _____ _____    ______ ____
ROOT
ATOM      1  C   UNL     1       1.986   7.005  19.892  0.00  0.00    +0.000 A 
ATOM      2  N   UNL     1       2.794   6.756  18.842  0.00  0.00    +0.000 NA
ATOM      3  C   UNL     1       3.310   5.515  18.676  0.00  0.00    +0.000 A 
ATOM      4  N   UNL     1       4.193   5.261  17.620  0.00  0.00    +0.000 N 
ATOM      5  C   UNL     1       2.916   4.527  19.591  0.00  0.00    +0.000 A 
ATOM      6  S   UNL     1       3.336   2.860  19.665  0.00  0.00    +0.000 S 
ATOM      7  C   UNL     1       2.376   2.602  21.057  0.00  0.00    +0.000 A 
ATOM      8  C   UNL     1       1.764   3.761  21.478  0.00  0.00    +0.000 A 
ATOM      9  C   UNL     1       2.070   4.871  20.639  0.00  0.00    +0.000 A 
ATOM     10  N   UNL     1       1.597   6.125  20.822  0.00  0.00    +0.000 NA
ATOM     11  H   UNL     1       4.724   4.405  17.759  0.00  0.00    +0.000 HD
ENDROOT
BRANCH   1  15
ATOM     12  N   UNL     1      -0.177  11.078  18.137  0.00  0.00    +0.000 N 
ATOM     13  C   UNL     1       0.471  10.356  19.157  0.00  0.00    +0.000 A 
ATOM     14  C   UNL     1       0.941   9.072  18.952  0.00  0.00    +0.000 A 
ATOM     15  C   UNL     1       1.493   8.381  20.036  0.00  0.00    +0.000 A 
ATOM     16  C   UNL     1       1.544   9.047  21.269  0.00  0.00    +0.000 A 
ATOM     17  C   UNL     1       1.062  10.343  21.359  0.00  0.00    +0.000 A 
ATOM     18  N   UNL     1       0.515  11.015  20.324  0.00  0.00    +0.000 NA
ATOM     19  H   UNL     1      -0.029  12.074  18.267  0.00  0.00    +0.000 HD
BRANCH  12  21
ATOM     20  O   UNL     1      -1.987   9.349  18.226  0.00  0.00    +0.000 OA
ATOM     21  S   UNL     1      -1.838  10.769  18.010  0.00  0.00    +0.000 S 
ATOM     22  O   UNL     1      -2.559  11.724  18.829  0.00  0.00    +0.000 OA
BRANCH  21  23
ATOM     23  C   UNL     1      -2.350  11.117  16.297  0.00  0.00    +0.000 C 
ATOM     24  C   UNL     1      -2.817   9.925  15.501  0.00  0.00    +0.000 C 
ATOM     25  C   UNL     1      -3.821  10.915  16.021  0.00  0.00    +0.000 C 
ENDBRANCH  21  23
ENDBRANCH  12  21
ENDBRANCH   1  15
BRANCH   4  26
ATOM     26  C   UNL     1       4.939   6.402  17.076  0.00  0.00    +0.000 C 
ATOM     27  C   UNL     1       5.192   6.218  15.581  0.00  0.00    +0.000 C 
ATOM     28  C   UNL     1       6.634   5.757  15.472  0.00  0.00    +0.000 C 
ATOM     29  N   UNL     1       7.342   6.385  16.586  0.00  0.00    +0.000 NA
ATOM     30  C   UNL     1       6.354   6.557  17.666  0.00  0.00    +0.000 C 
ATOM     31  H   UNL     1       7.678   7.305  16.298  0.00  0.00    +0.000 HD
ENDBRANCH   4  26
TORSDOF 4
ENDMDL
MODEL 6
REMARK VINA RESULT:      -8.1      2.125      2.812
REMARK  Name = 
REMARK  4 active torsions:
REMARK  status: ('A' for Active; 'I' for Inactive)
REMARK    1  A    between atoms: S_2  and  N_4
REMARK    2  A    between atoms: S_2  and  C_26
REMARK    3  A    between atoms: C_7  and  C_8
REMARK    4  A    between atoms: N_11  and  C_12
REMARK                            x       y       z     vdW  Elec       q    Type
REMARK                         _______ _______ _______ _____ _____    ______ ____
ROOT
ATOM      1  C   UNL     1       1.871   6.768  19.980  0.00  0.00    +0.000 A 
ATOM      2  N   UNL     1       2.678   6.625  18.910  0.00  0.00    +0.000 NA
ATOM      3  C   UNL     1       3.010   5.383  18.485  0.00  0.00    +0.000 A 
ATOM      4  N   UNL     1       3.892   5.224  17.409  0.00  0.00    +0.000 N 
ATOM      5  C   UNL     1       2.432   4.297  19.160  0.00  0.00    +0.000 A 
ATOM      6  S   UNL     1       2.595   2.607  18.877  0.00  0.00    +0.000 S 
ATOM      7  C   UNL     1       1.546   2.212  20.168  0.00  0.00    +0.000 A 
ATOM      8  C   UNL     1       1.096   3.337  20.824  0.00  0.00    +0.000 A 
ATOM      9  C   UNL     1       1.602   4.537  20.248  0.00  0.00    +0.000 A 
ATOM     10  N   UNL     1       1.314   5.783  20.692  0.00  0.00    +0.000 NA
ATOM     11  H   UNL     1       4.282   4.286  17.366  0.00  0.00    +0.000 HD
ENDROOT
BRANCH   1  15
ATOM     12  N   UNL     1       0.712  11.480  19.082  0.00  0.00    +0.000 N 
ATOM     13  C   UNL     1       1.051  10.428  19.953  0.00  0.00    +0.000 A 
ATOM     14  C   UNL     1       1.343   9.161  19.483  0.00  0.00    +0.000 A 
ATOM     15  C   UNL     1       1.583   8.142  20.412  0.00  0.00    +0.000 A 
ATOM     16  C   UNL     1       1.525   8.479  21.771  0.00  0.00    +0.000 A 
ATOM     17  C   UNL     1       1.244   9.787  22.133  0.00  0.00    +0.000 A 
ATOM     18  N   UNL     1       0.996  10.775  21.247  0.00  0.00    +0.000 NA
ATOM     19  H   UNL     1       0.990  12.370  19.484  0.00  0.00    +0.000 HD
BRANCH  12  21
ATOM     20  O   UNL     1      -1.651  11.408  19.913  0.00  0.00    +0.000 OA
ATOM     21  S   UNL     1      -0.930  11.540  18.668  0.00  0.00    +0.000 S 
ATOM     22  O   UNL     1      -1.155  12.676  17.796  0.00  0.00    +0.000 OA
BRANCH  21  23
ATOM     23  C   UNL     1      -1.314  10.074  17.658  0.00  0.00    +0.000 C 
ATOM     24  C   UNL     1      -2.748   9.610  17.699  0.00  0.00    +0.000 C 
ATOM     25  C   UNL     1      -2.231  10.332  16.486  0.00  0.00    +0.000 C 
ENDBRANCH  21  23
ENDBRANCH  12  21
ENDBRANCH   1  15
BRANCH   4  26
ATOM     26  C   UNL     1       4.824   6.323  17.134  0.00  0.00    +0.000 C 
ATOM     27  C   UNL     1       5.273   6.297  15.673  0.00  0.00    +0.000 C 
ATOM     28  C   UNL     1       6.660   5.681  15.692  0.00  0.00    +0.000 C 
ATOM     29  N   UNL     1       7.258   6.074  16.966  0.00  0.00    +0.000 NA
ATOM     30  C   UNL     1       6.145   6.230  17.920  0.00  0.00    +0.000 C 
ATOM     31  H   UNL     1       7.725   6.975  16.856  0.00  0.00    +0.000 HD
ENDBRANCH   4  26
TORSDOF 4
ENDMDL
MODEL 7
REMARK VINA RESULT:      -7.9      2.261      2.652
REMARK  Name = 
REMARK  4 active torsions:
REMARK  status: ('A' for Active; 'I' for Inactive)
REMARK    1  A    between atoms: S_2  and  N_4
REMARK    2  A    between atoms: S_2  and  C_26
REMARK    3  A    between atoms: C_7  and  C_8
REMARK    4  A    between atoms: N_11  and  C_12
REMARK                            x       y       z     vdW  Elec       q    Type
REMARK                         _______ _______ _______ _____ _____    ______ ____
ROOT
ATOM      1  C   UNL     1       2.104   6.812  19.877  0.00  0.00    +0.000 A 
ATOM      2  N   UNL     1       2.919   6.541  18.838  0.00  0.00    +0.000 NA
ATOM      3  C   UNL     1       3.493   5.318  18.742  0.00  0.00    +0.000 A 
ATOM      4  N   UNL     1       4.385   5.046  17.697  0.00  0.00    +0.000 N 
ATOM      5  C   UNL     1       3.149   4.368  19.715  0.00  0.00    +0.000 A 
ATOM      6  S   UNL     1       3.649   2.730  19.883  0.00  0.00    +0.000 S 
ATOM      7  C   UNL     1       2.706   2.508  21.292  0.00  0.00    +0.000 A 
ATOM      8  C   UNL     1       2.040   3.659  21.649  0.00  0.00    +0.000 A 
ATOM      9  C   UNL     1       2.291   4.731  20.745  0.00  0.00    +0.000 A 
ATOM     10  N   UNL     1       1.760   5.970  20.858  0.00  0.00    +0.000 NA
ATOM     11  H   UNL     1       4.956   4.225  17.883  0.00  0.00    +0.000 HD
ENDROOT
BRANCH   1  15
ATOM     12  N   UNL     1      -0.114  10.730  17.855  0.00  0.00    +0.000 N 
ATOM     13  C   UNL     1       0.499  10.069  18.936  0.00  0.00    +0.000 A 
ATOM     14  C   UNL     1       1.034   8.801  18.804  0.00  0.00    +0.000 A 
ATOM     15  C   UNL     1       1.545   8.169  19.943  0.00  0.00    +0.000 A 
ATOM     16  C   UNL     1       1.493   8.875  21.153  0.00  0.00    +0.000 A 
ATOM     17  C   UNL     1       0.952  10.151  21.170  0.00  0.00    +0.000 A 
ATOM     18  N   UNL     1       0.443  10.766  20.081  0.00  0.00    +0.000 NA
ATOM     19  H   UNL     1      -0.015  11.735  17.959  0.00  0.00    +0.000 HD
BRANCH  12  21
ATOM     20  O   UNL     1      -1.889  10.010  16.240  0.00  0.00    +0.000 OA
ATOM     21  S   UNL     1      -1.749  10.345  17.638  0.00  0.00    +0.000 S 
ATOM     22  O   UNL     1      -2.154   9.409  18.669  0.00  0.00    +0.000 OA
BRANCH  21  23
ATOM     23  C   UNL     1      -2.730  11.849  17.938  0.00  0.00    +0.000 C 
ATOM     24  C   UNL     1      -4.030  11.644  18.674  0.00  0.00    +0.000 C 
ATOM     25  C   UNL     1      -2.854  12.247  19.390  0.00  0.00    +0.000 C 
ENDBRANCH  21  23
ENDBRANCH  12  21
ENDBRANCH   1  15
BRANCH   4  26
ATOM     26  C   UNL     1       5.074   6.187  17.084  0.00  0.00    +0.000 C 
ATOM     27  C   UNL     1       5.260   5.963  15.584  0.00  0.00    +0.000 C 
ATOM     28  C   UNL     1       6.706   5.534  15.419  0.00  0.00    +0.000 C 
ATOM     29  N   UNL     1       7.451   6.213  16.478  0.00  0.00    +0.000 NA
ATOM     30  C   UNL     1       6.511   6.394  17.599  0.00  0.00    +0.000 C 
ATOM     31  H   UNL     1       7.748   7.132  16.146  0.00  0.00    +0.000 HD
ENDBRANCH   4  26
TORSDOF 4
ENDMDL
MODEL 8
REMARK VINA RESULT:      -7.8      2.056      2.464
REMARK  Name = 
REMARK  4 active torsions:
REMARK  status: ('A' for Active; 'I' for Inactive)
REMARK    1  A    between atoms: S_2  and  N_4
REMARK    2  A    between atoms: S_2  and  C_26
REMARK    3  A    between atoms: C_7  and  C_8
REMARK    4  A    between atoms: N_11  and  C_12
REMARK                            x       y       z     vdW  Elec       q    Type
REMARK                         _______ _______ _______ _____ _____    ______ ____
ROOT
ATOM      1  C   UNL     1       1.968   6.783  19.953  0.00  0.00    +0.000 A 
ATOM      2  N   UNL     1       2.752   6.596  18.873  0.00  0.00    +0.000 NA
ATOM      3  C   UNL     1       3.158   5.346  18.550  0.00  0.00    +0.000 A 
ATOM      4  N   UNL     1       4.018   5.149  17.463  0.00  0.00    +0.000 N 
ATOM      5  C   UNL     1       2.679   4.290  19.340  0.00  0.00    +0.000 A 
ATOM      6  S   UNL     1       2.953   2.597  19.204  0.00  0.00    +0.000 S 
ATOM      7  C   UNL     1       1.972   2.252  20.562  0.00  0.00    +0.000 A 
ATOM      8  C   UNL     1       1.462   3.398  21.129  0.00  0.00    +0.000 A 
ATOM      9  C   UNL     1       1.865   4.573  20.430  0.00  0.00    +0.000 A 
ATOM     10  N   UNL     1       1.503   5.831  20.771  0.00  0.00    +0.000 NA
ATOM     11  H   UNL     1       4.472   4.239  17.490  0.00  0.00    +0.000 HD
ENDROOT
BRANCH   1  15
ATOM     12  N   UNL     1       0.652  11.359  18.661  0.00  0.00    +0.000 N 
ATOM     13  C   UNL     1       0.989  10.388  19.622  0.00  0.00    +0.000 A 
ATOM     14  C   UNL     1       1.362   9.107  19.260  0.00  0.00    +0.000 A 
ATOM     15  C   UNL     1       1.595   8.168  20.270  0.00  0.00    +0.000 A 
ATOM     16  C   UNL     1       1.448   8.595  21.597  0.00  0.00    +0.000 A 
ATOM     17  C   UNL     1       1.090   9.910  21.849  0.00  0.00    +0.000 A 
ATOM     18  N   UNL     1       0.848  10.821  20.883  0.00  0.00    +0.000 NA
ATOM     19  H   UNL     1       0.868  12.287  19.012  0.00  0.00    +0.000 HD
BRANCH  12  21
ATOM     20  O   UNL     1      -1.166  12.509  17.376  0.00  0.00    +0.000 OA
ATOM     21  S   UNL     1      -0.965  11.311  18.158  0.00  0.00    +0.000 S 
ATOM     22  O   UNL     1      -1.246  10.003  17.600  0.00  0.00    +0.000 OA
BRANCH  21  23
ATOM     23  C   UNL     1      -2.022  11.443  19.636  0.00  0.00    +0.000 C 
ATOM     24  C   UNL     1      -2.233  12.839  20.165  0.00  0.00    +0.000 C 
ATOM     25  C   UNL     1      -3.338  12.151  19.414  0.00  0.00    +0.000 C 
ENDBRANCH  21  23
ENDBRANCH  12  21
ENDBRANCH   1  15
BRANCH   4  26
ATOM     26  C   UNL     1       4.861   6.279  17.057  0.00  0.00    +0.000 C 
ATOM     27  C   UNL     1       5.201   6.193  15.570  0.00  0.00    +0.000 C 
ATOM     28  C   UNL     1       6.619   5.654  15.513  0.00  0.00    +0.000 C 
ATOM     29  N   UNL     1       7.287   6.152  16.714  0.00  0.00    +0.000 NA
ATOM     30  C   UNL     1       6.241   6.303  17.742  0.00  0.00    +0.000 C 
ATOM     31  H   UNL     1       7.692   7.069  16.520  0.00  0.00    +0.000 HD
ENDBRANCH   4  26
TORSDOF 4
ENDMDL
MODEL 9
REMARK VINA RESULT:      -7.7      3.417      7.869
REMARK  Name = 
REMARK  4 active torsions:
REMARK  status: ('A' for Active; 'I' for Inactive)
REMARK    1  A    between atoms: S_2  and  N_4
REMARK    2  A    between atoms: S_2  and  C_26
REMARK    3  A    between atoms: C_7  and  C_8
REMARK    4  A    between atoms: N_11  and  C_12
REMARK                            x       y       z     vdW  Elec       q    Type
REMARK                         _______ _______ _______ _____ _____    ______ ____
ROOT
ATOM      1  C   UNL     1       1.401   8.543  19.742  0.00  0.00    +0.000 A 
ATOM      2  N   UNL     1       0.632   9.381  19.019  0.00  0.00    +0.000 NA
ATOM      3  C   UNL     1      -0.258  10.184  19.649  0.00  0.00    +0.000 A 
ATOM      4  N   UNL     1      -1.100  11.017  18.901  0.00  0.00    +0.000 N 
ATOM      5  C   UNL     1      -0.283  10.139  21.051  0.00  0.00    +0.000 A 
ATOM      6  S   UNL     1      -1.243  11.031  22.166  0.00  0.00    +0.000 S 
ATOM      7  C   UNL     1      -0.525  10.263  23.515  0.00  0.00    +0.000 A 
ATOM      8  C   UNL     1       0.410   9.327  23.133  0.00  0.00    +0.000 A 
ATOM      9  C   UNL     1       0.553   9.252  21.717  0.00  0.00    +0.000 A 
ATOM     10  N   UNL     1       1.406   8.421  21.074  0.00  0.00    +0.000 NA
ATOM     11  H   UNL     1      -1.895  11.346  19.442  0.00  0.00    +0.000 HD
ENDROOT
BRANCH   1  15
ATOM     12  N   UNL     1       3.677   4.235  18.965  0.00  0.00    +0.000 N 
ATOM     13  C   UNL     1       3.434   5.586  18.654  0.00  0.00    +0.000 A 
ATOM     14  C   UNL     1       2.582   6.365  19.415  0.00  0.00    +0.000 A 
ATOM     15  C   UNL     1       2.316   7.672  18.994  0.00  0.00    +0.000 A 
ATOM     16  C   UNL     1       2.946   8.115  17.823  0.00  0.00    +0.000 A 
ATOM     17  C   UNL     1       3.798   7.257  17.146  0.00  0.00    +0.000 A 
ATOM     18  N   UNL     1       4.052   5.989  17.534  0.00  0.00    +0.000 NA
ATOM     19  H   UNL     1       4.607   3.968  18.655  0.00  0.00    +0.000 HD
BRANCH  12  21
ATOM     20  O   UNL     1       1.627   3.964  17.551  0.00  0.00    +0.000 OA
ATOM     21  S   UNL     1       2.539   3.155  18.327  0.00  0.00    +0.000 S 
ATOM     22  O   UNL     1       3.238   2.037  17.723  0.00  0.00    +0.000 OA
BRANCH  21  23
ATOM     23  C   UNL     1       1.594   2.443  19.711  0.00  0.00    +0.000 C 
ATOM     24  C   UNL     1       1.998   2.911  21.086  0.00  0.00    +0.000 C 
ATOM     25  C   UNL     1       0.731   3.428  20.464  0.00  0.00    +0.000 C 
ENDBRANCH  21  23
ENDBRANCH  12  21
ENDBRANCH   1  15
BRANCH   4  26
ATOM     26  C   UNL     1      -1.380  10.623  17.516  0.00  0.00    +0.000 C 
ATOM     27  C   UNL     1      -2.042  11.770  16.753  0.00  0.00    +0.000 C 
ATOM     28  C   UNL     1      -3.519  11.422  16.710  0.00  0.00    +0.000 C 
ATOM     29  N   UNL     1      -3.588   9.962  16.677  0.00  0.00    +0.000 NA
ATOM     30  C   UNL     1      -2.394   9.471  17.390  0.00  0.00    +0.000 C 
ATOM     31  H   UNL     1      -3.547   9.643  15.709  0.00  0.00    +0.000 HD
ENDBRANCH   4  26
TORSDOF 4
ENDMDL
