MODEL 1
REMARK VINA RESULT:      -5.7      0.000      0.000
REMARK  Name = 
REMARK  17 active torsions:
REMARK  status: ('A' for Active; 'I' for Inactive)
REMARK    1  A    between atoms: C_1  and  C_2
REMARK    2  A    between atoms: C_2  and  C_3
REMARK    3  A    between atoms: C_3  and  C_4
REMARK    4  A    between atoms: C_4  and  C_5
REMARK    5  A    between atoms: C_5  and  C_6
REMARK    6  A    between atoms: C_6  and  C_7
REMARK    7  A    between atoms: C_7  and  C_8
REMARK    8  A    between atoms: C_8  and  C_9
REMARK    9  A    between atoms: C_9  and  C_10
REMARK   10  A    between atoms: C_10  and  C_11
REMARK   11  A    between atoms: C_11  and  C_12
REMARK   12  A    between atoms: C_12  and  C_13
REMARK   13  A    between atoms: C_13  and  C_14
REMARK   14  A    between atoms: C_14  and  C_15
REMARK   15  A    between atoms: C_15  and  C_16
REMARK   16  A    between atoms: C_16  and  N_17
REMARK   17  A    between atoms: N_20  and  C_21
REMARK                            x       y       z     vdW  Elec       q    Type
REMARK                         _______ _______ _______ _____ _____    ______ ____
ROOT
ATOM      1  C   UNL     1       6.036   7.132  17.204  0.00  0.00    +0.000 C 
ENDROOT
BRANCH   1   2
ATOM      2  C   UNL     1       5.167   6.184  16.406  0.00  0.00    +0.000 C 
BRANCH   2   3
ATOM      3  C   UNL     1       4.404   5.281  17.350  0.00  0.00    +0.000 C 
BRANCH   3   4
ATOM      4  C   UNL     1       3.361   6.096  18.080  0.00  0.00    +0.000 C 
BRANCH   4   5
ATOM      5  C   UNL     1       2.012   5.434  17.928  0.00  0.00    +0.000 C 
BRANCH   5   6
ATOM      6  C   UNL     1       2.218   3.955  17.697  0.00  0.00    +0.000 C 
BRANCH   6   7
ATOM      7  C   UNL     1       1.017   3.196  18.211  0.00  0.00    +0.000 C 
BRANCH   7   8
ATOM      8  C   UNL     1       1.410   2.441  19.464  0.00  0.00    +0.000 C 
BRANCH   8   9
ATOM      9  C   UNL     1       1.024   3.259  20.675  0.00  0.00    +0.000 C 
BRANCH   9  11
ATOM     10  C   UNL     1       3.397   2.691  21.008  0.00  0.00    +0.000 C 
ATOM     11  C   UNL     1       2.235   3.482  21.560  0.00  0.00    +0.000 C 
ENDBRANCH   9  11
ENDBRANCH   8   9
ENDBRANCH   7   8
ENDBRANCH   6   7
ENDBRANCH   5   6
ENDBRANCH   4   5
ENDBRANCH   3   4
ENDBRANCH   2   3
ENDBRANCH   1   2
BRANCH   1  12
ATOM     12  C   UNL     1       7.047   6.338  18.006  0.00  0.00    +0.000 C 
BRANCH  12  13
ATOM     13  C   UNL     1       8.182   7.245  18.441  0.00  0.00    +0.000 C 
BRANCH  13  14
ATOM     14  C   UNL     1       7.993   8.637  17.860  0.00  0.00    +0.000 C 
BRANCH  14  15
ATOM     15  C   UNL     1       8.774   9.647  18.683  0.00  0.00    +0.000 C 
BRANCH  15  16
ATOM     16  C   UNL     1       8.966  10.947  17.920  0.00  0.00    +0.000 C 
BRANCH  16  17
ATOM     17  N   UNL     1      10.129  11.664  18.440  0.00  0.00    +0.000 N 
ATOM     18  C   UNL     1      10.845  11.343  19.580  0.00  0.00    +0.000 A 
ATOM     19  C   UNL     1      11.782  12.322  19.752  0.00  0.00    +0.000 A 
ATOM     20  N   UNL     1      11.606  13.226  18.701  0.00  0.00    +0.000 N 
ATOM     21  C   UNL     1      12.332  14.466  18.489  0.00  0.00    +0.000 C 
ATOM     22  C   UNL     1      10.622  12.790  17.895  0.00  0.00    +0.000 A 
ENDBRANCH  16  17
ENDBRANCH  15  16
ENDBRANCH  14  15
ENDBRANCH  13  14
ENDBRANCH  12  13
ENDBRANCH   1  12
TORSDOF 15
ENDMDL
MODEL 2
REMARK VINA RESULT:      -5.7      5.482      7.792
REMARK  Name = 
REMARK  17 active torsions:
REMARK  status: ('A' for Active; 'I' for Inactive)
REMARK    1  A    between atoms: C_1  and  C_2
REMARK    2  A    between atoms: C_2  and  C_3
REMARK    3  A    between atoms: C_3  and  C_4
REMARK    4  A    between atoms: C_4  and  C_5
REMARK    5  A    between atoms: C_5  and  C_6
REMARK    6  A    between atoms: C_6  and  C_7
REMARK    7  A    between atoms: C_7  and  C_8
REMARK    8  A    between atoms: C_8  and  C_9
REMARK    9  A    between atoms: C_9  and  C_10
REMARK   10  A    between atoms: C_10  and  C_11
REMARK   11  A    between atoms: C_11  and  C_12
REMARK   12  A    between atoms: C_12  and  C_13
REMARK   13  A    between atoms: C_13  and  C_14
REMARK   14  A    between atoms: C_14  and  C_15
REMARK   15  A    between atoms: C_15  and  C_16
REMARK   16  A    between atoms: C_16  and  N_17
REMARK   17  A    between atoms: N_20  and  C_21
REMARK                            x       y       z     vdW  Elec       q    Type
REMARK                         _______ _______ _______ _____ _____    ______ ____
ROOT
ATOM      1  C   UNL     1       1.113   3.519  20.736  0.00  0.00    +0.000 C 
ENDROOT
BRANCH   1   2
ATOM      2  C   UNL     1       0.953   4.930  20.211  0.00  0.00    +0.000 C 
BRANCH   2   3
ATOM      3  C   UNL     1       2.006   5.822  20.832  0.00  0.00    +0.000 C 
BRANCH   3   4
ATOM      4  C   UNL     1       2.103   7.103  20.036  0.00  0.00    +0.000 C 
BRANCH   4   5
ATOM      5  C   UNL     1       2.660   6.799  18.665  0.00  0.00    +0.000 C 
BRANCH   5   6
ATOM      6  C   UNL     1       2.782   8.091  17.891  0.00  0.00    +0.000 C 
BRANCH   6   7
ATOM      7  C   UNL     1       1.419   8.733  17.772  0.00  0.00    +0.000 C 
BRANCH   7   8
ATOM      8  C   UNL     1       1.462  10.104  18.413  0.00  0.00    +0.000 C 
BRANCH   8   9
ATOM      9  C   UNL     1       0.048  10.588  18.639  0.00  0.00    +0.000 C 
BRANCH   9  11
ATOM     10  C   UNL     1       0.743  10.435  20.996  0.00  0.00    +0.000 C 
ATOM     11  C   UNL     1      -0.408  10.231  20.040  0.00  0.00    +0.000 C 
ENDBRANCH   9  11
ENDBRANCH   8   9
ENDBRANCH   7   8
ENDBRANCH   6   7
ENDBRANCH   5   6
ENDBRANCH   4   5
ENDBRANCH   3   4
ENDBRANCH   2   3
ENDBRANCH   1   2
BRANCH   1  12
ATOM     12  C   UNL     1       1.052   2.540  19.580  0.00  0.00    +0.000 C 
BRANCH  12  13
ATOM     13  C   UNL     1       1.373   3.258  18.283  0.00  0.00    +0.000 C 
BRANCH  13  14
ATOM     14  C   UNL     1       2.438   2.496  17.511  0.00  0.00    +0.000 C 
BRANCH  14  15
ATOM     15  C   UNL     1       3.728   2.464  18.312  0.00  0.00    +0.000 C 
BRANCH  15  16
ATOM     16  C   UNL     1       4.272   3.866  18.534  0.00  0.00    +0.000 C 
BRANCH  16  17
ATOM     17  N   UNL     1       5.384   4.120  17.620  0.00  0.00    +0.000 N 
ATOM     18  C   UNL     1       6.619   4.644  17.959  0.00  0.00    +0.000 A 
ATOM     19  C   UNL     1       7.317   4.807  16.797  0.00  0.00    +0.000 A 
ATOM     20  N   UNL     1       6.476   4.377  15.768  0.00  0.00    +0.000 N 
ATOM     21  C   UNL     1       6.756   4.413  14.343  0.00  0.00    +0.000 C 
ATOM     22  C   UNL     1       5.320   3.929  16.290  0.00  0.00    +0.000 A 
ENDBRANCH  16  17
ENDBRANCH  15  16
ENDBRANCH  14  15
ENDBRANCH  13  14
ENDBRANCH  12  13
ENDBRANCH   1  12
TORSDOF 15
ENDMDL
MODEL 3
REMARK VINA RESULT:      -5.6      4.812      8.081
REMARK  Name = 
REMARK  17 active torsions:
REMARK  status: ('A' for Active; 'I' for Inactive)
REMARK    1  A    between atoms: C_1  and  C_2
REMARK    2  A    between atoms: C_2  and  C_3
REMARK    3  A    between atoms: C_3  and  C_4
REMARK    4  A    between atoms: C_4  and  C_5
REMARK    5  A    between atoms: C_5  and  C_6
REMARK    6  A    between atoms: C_6  and  C_7
REMARK    7  A    between atoms: C_7  and  C_8
REMARK    8  A    between atoms: C_8  and  C_9
REMARK    9  A    between atoms: C_9  and  C_10
REMARK   10  A    between atoms: C_10  and  C_11
REMARK   11  A    between atoms: C_11  and  C_12
REMARK   12  A    between atoms: C_12  and  C_13
REMARK   13  A    between atoms: C_13  and  C_14
REMARK   14  A    between atoms: C_14  and  C_15
REMARK   15  A    between atoms: C_15  and  C_16
REMARK   16  A    between atoms: C_16  and  N_17
REMARK   17  A    between atoms: N_20  and  C_21
REMARK                            x       y       z     vdW  Elec       q    Type
REMARK                         _______ _______ _______ _____ _____    ______ ____
ROOT
ATOM      1  C   UNL     1       2.128   2.981  21.097  0.00  0.00    +0.000 C 
ENDROOT
BRANCH   1   2
ATOM      2  C   UNL     1       0.974   2.844  20.127  0.00  0.00    +0.000 C 
BRANCH   2   3
ATOM      3  C   UNL     1       1.460   2.183  18.855  0.00  0.00    +0.000 C 
BRANCH   3   4
ATOM      4  C   UNL     1       2.954   1.972  18.946  0.00  0.00    +0.000 C 
BRANCH   4   5
ATOM      5  C   UNL     1       3.598   2.379  17.641  0.00  0.00    +0.000 C 
BRANCH   5   6
ATOM      6  C   UNL     1       4.082   3.805  17.761  0.00  0.00    +0.000 C 
BRANCH   6   7
ATOM      7  C   UNL     1       5.087   3.900  18.886  0.00  0.00    +0.000 C 
BRANCH   7   8
ATOM      8  C   UNL     1       5.410   5.357  19.137  0.00  0.00    +0.000 C 
BRANCH   8   9
ATOM      9  C   UNL     1       6.899   5.504  19.348  0.00  0.00    +0.000 C 
BRANCH   9  11
ATOM     10  C   UNL     1       7.245   6.953  17.387  0.00  0.00    +0.000 C 
ATOM     11  C   UNL     1       7.605   5.626  18.012  0.00  0.00    +0.000 C 
ENDBRANCH   9  11
ENDBRANCH   8   9
ENDBRANCH   7   8
ENDBRANCH   6   7
ENDBRANCH   5   6
ENDBRANCH   4   5
ENDBRANCH   3   4
ENDBRANCH   2   3
ENDBRANCH   1   2
BRANCH   1  12
ATOM     12  C   UNL     1       2.420   4.449  21.334  0.00  0.00    +0.000 C 
BRANCH  12  13
ATOM     13  C   UNL     1       1.379   5.298  20.628  0.00  0.00    +0.000 C 
BRANCH  13  14
ATOM     14  C   UNL     1       2.056   6.333  19.746  0.00  0.00    +0.000 C 
BRANCH  14  15
ATOM     15  C   UNL     1       1.744   7.728  20.259  0.00  0.00    +0.000 C 
BRANCH  15  16
ATOM     16  C   UNL     1       1.803   8.752  19.138  0.00  0.00    +0.000 C 
BRANCH  16  17
ATOM     17  N   UNL     1       0.716   9.719  19.288  0.00  0.00    +0.000 N 
ATOM     18  C   UNL     1       0.267  10.266  20.477  0.00  0.00    +0.000 A 
ATOM     19  C   UNL     1      -0.819  11.039  20.175  0.00  0.00    +0.000 A 
ATOM     20  N   UNL     1      -1.005  10.935  18.795  0.00  0.00    +0.000 N 
ATOM     21  C   UNL     1      -2.074  11.535  18.014  0.00  0.00    +0.000 C 
ATOM     22  C   UNL     1      -0.042  10.159  18.268  0.00  0.00    +0.000 A 
ENDBRANCH  16  17
ENDBRANCH  15  16
ENDBRANCH  14  15
ENDBRANCH  13  14
ENDBRANCH  12  13
ENDBRANCH   1  12
TORSDOF 15
ENDMDL
MODEL 4
REMARK VINA RESULT:      -5.6      1.486      2.518
REMARK  Name = 
REMARK  17 active torsions:
REMARK  status: ('A' for Active; 'I' for Inactive)
REMARK    1  A    between atoms: C_1  and  C_2
REMARK    2  A    between atoms: C_2  and  C_3
REMARK    3  A    between atoms: C_3  and  C_4
REMARK    4  A    between atoms: C_4  and  C_5
REMARK    5  A    between atoms: C_5  and  C_6
REMARK    6  A    between atoms: C_6  and  C_7
REMARK    7  A    between atoms: C_7  and  C_8
REMARK    8  A    between atoms: C_8  and  C_9
REMARK    9  A    between atoms: C_9  and  C_10
REMARK   10  A    between atoms: C_10  and  C_11
REMARK   11  A    between atoms: C_11  and  C_12
REMARK   12  A    between atoms: C_12  and  C_13
REMARK   13  A    between atoms: C_13  and  C_14
REMARK   14  A    between atoms: C_14  and  C_15
REMARK   15  A    between atoms: C_15  and  C_16
REMARK   16  A    between atoms: C_16  and  N_17
REMARK   17  A    between atoms: N_20  and  C_21
REMARK                            x       y       z     vdW  Elec       q    Type
REMARK                         _______ _______ _______ _____ _____    ______ ____
ROOT
ATOM      1  C   UNL     1       7.862   6.550  18.642  0.00  0.00    +0.000 C 
ENDROOT
BRANCH   1   2
ATOM      2  C   UNL     1       7.267   5.184  18.373  0.00  0.00    +0.000 C 
BRANCH   2   3
ATOM      3  C   UNL     1       7.229   4.935  16.881  0.00  0.00    +0.000 C 
BRANCH   3   4
ATOM      4  C   UNL     1       5.893   4.331  16.515  0.00  0.00    +0.000 C 
BRANCH   4   5
ATOM      5  C   UNL     1       4.844   4.802  17.495  0.00  0.00    +0.000 C 
BRANCH   5   6
ATOM      6  C   UNL     1       4.298   6.129  17.025  0.00  0.00    +0.000 C 
BRANCH   6   7
ATOM      7  C   UNL     1       3.323   6.661  18.050  0.00  0.00    +0.000 C 
BRANCH   7   8
ATOM      8  C   UNL     1       2.266   5.611  18.316  0.00  0.00    +0.000 C 
BRANCH   8   9
ATOM      9  C   UNL     1       2.054   5.489  19.808  0.00  0.00    +0.000 C 
BRANCH   9  11
ATOM     10  C   UNL     1       1.313   3.265  20.561  0.00  0.00    +0.000 C 
ATOM     11  C   UNL     1       2.521   4.130  20.291  0.00  0.00    +0.000 C 
ENDBRANCH   9  11
ENDBRANCH   8   9
ENDBRANCH   7   8
ENDBRANCH   6   7
ENDBRANCH   5   6
ENDBRANCH   4   5
ENDBRANCH   3   4
ENDBRANCH   2   3
ENDBRANCH   1   2
BRANCH   1  12
ATOM     12  C   UNL     1       7.724   7.415  17.405  0.00  0.00    +0.000 C 
BRANCH  12  13
ATOM     13  C   UNL     1       7.903   8.874  17.778  0.00  0.00    +0.000 C 
BRANCH  13  14
ATOM     14  C   UNL     1       8.955   9.012  18.867  0.00  0.00    +0.000 C 
BRANCH  14  15
ATOM     15  C   UNL     1       9.266  10.481  19.097  0.00  0.00    +0.000 C 
BRANCH  15  16
ATOM     16  C   UNL     1       9.735  11.150  17.815  0.00  0.00    +0.000 C 
BRANCH  16  17
ATOM     17  N   UNL     1       9.792  12.599  18.001  0.00  0.00    +0.000 N 
ATOM     18  C   UNL     1       9.057  13.337  18.913  0.00  0.00    +0.000 A 
ATOM     19  C   UNL     1       9.343  14.653  18.684  0.00  0.00    +0.000 A 
ATOM     20  N   UNL     1      10.251  14.681  17.623  0.00  0.00    +0.000 N 
ATOM     21  C   UNL     1      10.803  15.862  16.981  0.00  0.00    +0.000 C 
ATOM     22  C   UNL     1      10.540  13.423  17.246  0.00  0.00    +0.000 A 
ENDBRANCH  16  17
ENDBRANCH  15  16
ENDBRANCH  14  15
ENDBRANCH  13  14
ENDBRANCH  12  13
ENDBRANCH   1  12
TORSDOF 15
ENDMDL
MODEL 5
REMARK VINA RESULT:      -5.5      1.417      2.609
REMARK  Name = 
REMARK  17 active torsions:
REMARK  status: ('A' for Active; 'I' for Inactive)
REMARK    1  A    between atoms: C_1  and  C_2
REMARK    2  A    between atoms: C_2  and  C_3
REMARK    3  A    between atoms: C_3  and  C_4
REMARK    4  A    between atoms: C_4  and  C_5
REMARK    5  A    between atoms: C_5  and  C_6
REMARK    6  A    between atoms: C_6  and  C_7
REMARK    7  A    between atoms: C_7  and  C_8
REMARK    8  A    between atoms: C_8  and  C_9
REMARK    9  A    between atoms: C_9  and  C_10
REMARK   10  A    between atoms: C_10  and  C_11
REMARK   11  A    between atoms: C_11  and  C_12
REMARK   12  A    between atoms: C_12  and  C_13
REMARK   13  A    between atoms: C_13  and  C_14
REMARK   14  A    between atoms: C_14  and  C_15
REMARK   15  A    between atoms: C_15  and  C_16
REMARK   16  A    between atoms: C_16  and  N_17
REMARK   17  A    between atoms: N_20  and  C_21
REMARK                            x       y       z     vdW  Elec       q    Type
REMARK                         _______ _______ _______ _____ _____    ______ ____
ROOT
ATOM      1  C   UNL     1       7.558   7.605  17.430  0.00  0.00    +0.000 C 
ENDROOT
BRANCH   1   2
ATOM      2  C   UNL     1       7.932   6.692  18.578  0.00  0.00    +0.000 C 
BRANCH   2   3
ATOM      3  C   UNL     1       6.826   5.684  18.803  0.00  0.00    +0.000 C 
BRANCH   3   4
ATOM      4  C   UNL     1       5.876   5.722  17.629  0.00  0.00    +0.000 C 
BRANCH   4   5
ATOM      5  C   UNL     1       4.551   6.295  18.074  0.00  0.00    +0.000 C 
BRANCH   5   6
ATOM      6  C   UNL     1       3.693   5.175  18.616  0.00  0.00    +0.000 C 
BRANCH   6   7
ATOM      7  C   UNL     1       2.283   5.328  18.094  0.00  0.00    +0.000 C 
BRANCH   7   8
ATOM      8  C   UNL     1       1.757   3.966  17.690  0.00  0.00    +0.000 C 
BRANCH   8   9
ATOM      9  C   UNL     1       1.092   3.320  18.883  0.00  0.00    +0.000 C 
BRANCH   9  11
ATOM     10  C   UNL     1       2.855   1.743  18.195  0.00  0.00    +0.000 C 
ATOM     11  C   UNL     1       1.806   2.031  19.242  0.00  0.00    +0.000 C 
ENDBRANCH   9  11
ENDBRANCH   8   9
ENDBRANCH   7   8
ENDBRANCH   6   7
ENDBRANCH   5   6
ENDBRANCH   4   5
ENDBRANCH   3   4
ENDBRANCH   2   3
ENDBRANCH   1   2
BRANCH   1  12
ATOM     12  C   UNL     1       8.038   9.012  17.724  0.00  0.00    +0.000 C 
BRANCH  12  13
ATOM     13  C   UNL     1       8.859   9.017  18.999  0.00  0.00    +0.000 C 
BRANCH  13  14
ATOM     14  C   UNL     1       9.317  10.429  19.324  0.00  0.00    +0.000 C 
BRANCH  14  15
ATOM     15  C   UNL     1       9.520  11.211  18.038  0.00  0.00    +0.000 C 
BRANCH  15  16
ATOM     16  C   UNL     1      10.975  11.610  17.862  0.00  0.00    +0.000 C 
BRANCH  16  17
ATOM     17  N   UNL     1      11.072  13.047  17.609  0.00  0.00    +0.000 N 
ATOM     18  C   UNL     1      12.222  13.746  17.292  0.00  0.00    +0.000 A 
ATOM     19  C   UNL     1      11.885  15.068  17.238  0.00  0.00    +0.000 A 
ATOM     20  N   UNL     1      10.520  15.139  17.532  0.00  0.00    +0.000 N 
ATOM     21  C   UNL     1       9.718  16.344  17.652  0.00  0.00    +0.000 C 
ATOM     22  C   UNL     1      10.037  13.898  17.719  0.00  0.00    +0.000 A 
ENDBRANCH  16  17
ENDBRANCH  15  16
ENDBRANCH  14  15
ENDBRANCH  13  14
ENDBRANCH  12  13
ENDBRANCH   1  12
TORSDOF 15
ENDMDL
MODEL 6
REMARK VINA RESULT:      -5.5      5.504      8.039
REMARK  Name = 
REMARK  17 active torsions:
REMARK  status: ('A' for Active; 'I' for Inactive)
REMARK    1  A    between atoms: C_1  and  C_2
REMARK    2  A    between atoms: C_2  and  C_3
REMARK    3  A    between atoms: C_3  and  C_4
REMARK    4  A    between atoms: C_4  and  C_5
REMARK    5  A    between atoms: C_5  and  C_6
REMARK    6  A    between atoms: C_6  and  C_7
REMARK    7  A    between atoms: C_7  and  C_8
REMARK    8  A    between atoms: C_8  and  C_9
REMARK    9  A    between atoms: C_9  and  C_10
REMARK   10  A    between atoms: C_10  and  C_11
REMARK   11  A    between atoms: C_11  and  C_12
REMARK   12  A    between atoms: C_12  and  C_13
REMARK   13  A    between atoms: C_13  and  C_14
REMARK   14  A    between atoms: C_14  and  C_15
REMARK   15  A    between atoms: C_15  and  C_16
REMARK   16  A    between atoms: C_16  and  N_17
REMARK   17  A    between atoms: N_20  and  C_21
REMARK                            x       y       z     vdW  Elec       q    Type
REMARK                         _______ _______ _______ _____ _____    ______ ____
ROOT
ATOM      1  C   UNL     1       1.163   4.394  20.445  0.00  0.00    +0.000 C 
ENDROOT
BRANCH   1   2
ATOM      2  C   UNL     1       1.515   5.826  20.786  0.00  0.00    +0.000 C 
BRANCH   2   3
ATOM      3  C   UNL     1       2.430   6.388  19.721  0.00  0.00    +0.000 C 
BRANCH   3   4
ATOM      4  C   UNL     1       2.103   7.848  19.507  0.00  0.00    +0.000 C 
BRANCH   4   5
ATOM      5  C   UNL     1       1.977   8.122  18.026  0.00  0.00    +0.000 C 
BRANCH   5   6
ATOM      6  C   UNL     1       1.873   9.614  17.813  0.00  0.00    +0.000 C 
BRANCH   6   7
ATOM      7  C   UNL     1       1.280  10.255  19.046  0.00  0.00    +0.000 C 
BRANCH   7   8
ATOM      8  C   UNL     1       0.053  11.047  18.648  0.00  0.00    +0.000 C 
BRANCH   8   9
ATOM      9  C   UNL     1      -1.183  10.300  19.092  0.00  0.00    +0.000 C 
BRANCH   9  11
ATOM     10  C   UNL     1      -2.038   9.864  16.824  0.00  0.00    +0.000 C 
ATOM     11  C   UNL     1      -2.325  10.564  18.130  0.00  0.00    +0.000 C 
ENDBRANCH   9  11
ENDBRANCH   8   9
ENDBRANCH   7   8
ENDBRANCH   6   7
ENDBRANCH   5   6
ENDBRANCH   4   5
ENDBRANCH   3   4
ENDBRANCH   2   3
ENDBRANCH   1   2
BRANCH   1  12
ATOM     12  C   UNL     1       2.059   3.453  21.226  0.00  0.00    +0.000 C 
BRANCH  12  13
ATOM     13  C   UNL     1       2.785   2.526  20.269  0.00  0.00    +0.000 C 
BRANCH  13  14
ATOM     14  C   UNL     1       2.207   2.660  18.869  0.00  0.00    +0.000 C 
BRANCH  14  15
ATOM     15  C   UNL     1       3.323   2.943  17.879  0.00  0.00    +0.000 C 
BRANCH  15  16
ATOM     16  C   UNL     1       4.506   3.610  18.560  0.00  0.00    +0.000 C 
BRANCH  16  17
ATOM     17  N   UNL     1       5.505   3.993  17.563  0.00  0.00    +0.000 N 
ATOM     18  C   UNL     1       6.725   4.594  17.816  0.00  0.00    +0.000 A 
ATOM     19  C   UNL     1       7.296   4.865  16.606  0.00  0.00    +0.000 A 
ATOM     20  N   UNL     1       6.394   4.420  15.636  0.00  0.00    +0.000 N 
ATOM     21  C   UNL     1       6.534   4.545  14.195  0.00  0.00    +0.000 C 
ATOM     22  C   UNL     1       5.329   3.860  16.237  0.00  0.00    +0.000 A 
ENDBRANCH  16  17
ENDBRANCH  15  16
ENDBRANCH  14  15
ENDBRANCH  13  14
ENDBRANCH  12  13
ENDBRANCH   1  12
TORSDOF 15
ENDMDL
MODEL 7
REMARK VINA RESULT:      -5.5      1.564      2.115
REMARK  Name = 
REMARK  17 active torsions:
REMARK  status: ('A' for Active; 'I' for Inactive)
REMARK    1  A    between atoms: C_1  and  C_2
REMARK    2  A    between atoms: C_2  and  C_3
REMARK    3  A    between atoms: C_3  and  C_4
REMARK    4  A    between atoms: C_4  and  C_5
REMARK    5  A    between atoms: C_5  and  C_6
REMARK    6  A    between atoms: C_6  and  C_7
REMARK    7  A    between atoms: C_7  and  C_8
REMARK    8  A    between atoms: C_8  and  C_9
REMARK    9  A    between atoms: C_9  and  C_10
REMARK   10  A    between atoms: C_10  and  C_11
REMARK   11  A    between atoms: C_11  and  C_12
REMARK   12  A    between atoms: C_12  and  C_13
REMARK   13  A    between atoms: C_13  and  C_14
REMARK   14  A    between atoms: C_14  and  C_15
REMARK   15  A    between atoms: C_15  and  C_16
REMARK   16  A    between atoms: C_16  and  N_17
REMARK   17  A    between atoms: N_20  and  C_21
REMARK                            x       y       z     vdW  Elec       q    Type
REMARK                         _______ _______ _______ _____ _____    ______ ____
ROOT
ATOM      1  C   UNL     1       6.855   6.071  16.858  0.00  0.00    +0.000 C 
ENDROOT
BRANCH   1   2
ATOM      2  C   UNL     1       5.695   6.298  15.911  0.00  0.00    +0.000 C 
BRANCH   2   3
ATOM      3  C   UNL     1       5.302   4.985  15.271  0.00  0.00    +0.000 C 
BRANCH   3   4
ATOM      4  C   UNL     1       5.527   3.865  16.260  0.00  0.00    +0.000 C 
BRANCH   4   5
ATOM      5  C   UNL     1       4.198   3.422  16.827  0.00  0.00    +0.000 C 
BRANCH   5   6
ATOM      6  C   UNL     1       4.213   3.630  18.323  0.00  0.00    +0.000 C 
BRANCH   6   7
ATOM      7  C   UNL     1       3.459   4.895  18.661  0.00  0.00    +0.000 C 
BRANCH   7   8
ATOM      8  C   UNL     1       2.046   4.784  18.129  0.00  0.00    +0.000 C 
BRANCH   8   9
ATOM      9  C   UNL     1       1.303   3.729  18.915  0.00  0.00    +0.000 C 
BRANCH   9  11
ATOM     10  C   UNL     1       1.546   3.095  21.283  0.00  0.00    +0.000 C 
ATOM     11  C   UNL     1       1.100   4.192  20.345  0.00  0.00    +0.000 C 
ENDBRANCH   9  11
ENDBRANCH   8   9
ENDBRANCH   7   8
ENDBRANCH   6   7
ENDBRANCH   5   6
ENDBRANCH   4   5
ENDBRANCH   3   4
ENDBRANCH   2   3
ENDBRANCH   1   2
BRANCH   1  12
ATOM     12  C   UNL     1       6.856   7.147  17.925  0.00  0.00    +0.000 C 
BRANCH  12  13
ATOM     13  C   UNL     1       8.189   7.870  17.922  0.00  0.00    +0.000 C 
BRANCH  13  14
ATOM     14  C   UNL     1       7.970   9.375  17.940  0.00  0.00    +0.000 C 
BRANCH  14  15
ATOM     15  C   UNL     1       9.045  10.039  18.782  0.00  0.00    +0.000 C 
BRANCH  15  16
ATOM     16  C   UNL     1       9.877  11.002  17.950  0.00  0.00    +0.000 C 
BRANCH  16  17
ATOM     17  N   UNL     1       9.670  12.372  18.417  0.00  0.00    +0.000 N 
ATOM     18  C   UNL     1       9.040  12.750  19.588  0.00  0.00    +0.000 A 
ATOM     19  C   UNL     1       8.976  14.115  19.585  0.00  0.00    +0.000 A 
ATOM     20  N   UNL     1       9.573  14.534  18.393  0.00  0.00    +0.000 N 
ATOM     21  C   UNL     1       9.690  15.900  17.913  0.00  0.00    +0.000 C 
ATOM     22  C   UNL     1      10.021  13.463  17.714  0.00  0.00    +0.000 A 
ENDBRANCH  16  17
ENDBRANCH  15  16
ENDBRANCH  14  15
ENDBRANCH  13  14
ENDBRANCH  12  13
ENDBRANCH   1  12
TORSDOF 15
ENDMDL
MODEL 8
REMARK VINA RESULT:      -5.5      1.415      2.271
REMARK  Name = 
REMARK  17 active torsions:
REMARK  status: ('A' for Active; 'I' for Inactive)
REMARK    1  A    between atoms: C_1  and  C_2
REMARK    2  A    between atoms: C_2  and  C_3
REMARK    3  A    between atoms: C_3  and  C_4
REMARK    4  A    between atoms: C_4  and  C_5
REMARK    5  A    between atoms: C_5  and  C_6
REMARK    6  A    between atoms: C_6  and  C_7
REMARK    7  A    between atoms: C_7  and  C_8
REMARK    8  A    between atoms: C_8  and  C_9
REMARK    9  A    between atoms: C_9  and  C_10
REMARK   10  A    between atoms: C_10  and  C_11
REMARK   11  A    between atoms: C_11  and  C_12
REMARK   12  A    between atoms: C_12  and  C_13
REMARK   13  A    between atoms: C_13  and  C_14
REMARK   14  A    between atoms: C_14  and  C_15
REMARK   15  A    between atoms: C_15  and  C_16
REMARK   16  A    between atoms: C_16  and  N_17
REMARK   17  A    between atoms: N_20  and  C_21
REMARK                            x       y       z     vdW  Elec       q    Type
REMARK                         _______ _______ _______ _____ _____    ______ ____
ROOT
ATOM      1  C   UNL     1       7.215   4.838  17.281  0.00  0.00    +0.000 C 
ENDROOT
BRANCH   1   2
ATOM      2  C   UNL     1       5.914   4.268  17.803  0.00  0.00    +0.000 C 
BRANCH   2   3
ATOM      3  C   UNL     1       5.042   3.852  16.638  0.00  0.00    +0.000 C 
BRANCH   3   4
ATOM      4  C   UNL     1       3.603   3.783  17.096  0.00  0.00    +0.000 C 
BRANCH   4   5
ATOM      5  C   UNL     1       3.261   2.358  17.462  0.00  0.00    +0.000 C 
BRANCH   5   6
ATOM      6  C   UNL     1       2.233   2.372  18.569  0.00  0.00    +0.000 C 
BRANCH   6   7
ATOM      7  C   UNL     1       1.613   3.747  18.658  0.00  0.00    +0.000 C 
BRANCH   7   8
ATOM      8  C   UNL     1       1.027   3.934  20.042  0.00  0.00    +0.000 C 
BRANCH   8   9
ATOM      9  C   UNL     1       1.935   4.836  20.845  0.00  0.00    +0.000 C 
BRANCH   9  11
ATOM     10  C   UNL     1       2.213   7.075  19.857  0.00  0.00    +0.000 C 
ATOM     11  C   UNL     1       2.786   5.679  19.916  0.00  0.00    +0.000 C 
ENDBRANCH   9  11
ENDBRANCH   8   9
ENDBRANCH   7   8
ENDBRANCH   6   7
ENDBRANCH   5   6
ENDBRANCH   4   5
ENDBRANCH   3   4
ENDBRANCH   2   3
ENDBRANCH   1   2
BRANCH   1  12
ATOM     12  C   UNL     1       6.926   6.035  16.397  0.00  0.00    +0.000 C 
BRANCH  12  13
ATOM     13  C   UNL     1       6.657   7.254  17.259  0.00  0.00    +0.000 C 
BRANCH  13  14
ATOM     14  C   UNL     1       7.883   7.588  18.093  0.00  0.00    +0.000 C 
BRANCH  14  15
ATOM     15  C   UNL     1       8.211   9.065  17.955  0.00  0.00    +0.000 C 
BRANCH  15  16
ATOM     16  C   UNL     1       9.151   9.524  19.057  0.00  0.00    +0.000 C 
BRANCH  16  17
ATOM     17  N   UNL     1       9.378  10.965  18.951  0.00  0.00    +0.000 N 
ATOM     18  C   UNL     1       8.905  11.795  17.951  0.00  0.00    +0.000 A 
ATOM     19  C   UNL     1       9.428  13.036  18.181  0.00  0.00    +0.000 A 
ATOM     20  N   UNL     1      10.220  12.923  19.326  0.00  0.00    +0.000 N 
ATOM     21  C   UNL     1      11.030  13.967  19.930  0.00  0.00    +0.000 C 
ATOM     22  C   UNL     1      10.147  11.667  19.800  0.00  0.00    +0.000 A 
ENDBRANCH  16  17
ENDBRANCH  15  16
ENDBRANCH  14  15
ENDBRANCH  13  14
ENDBRANCH  12  13
ENDBRANCH   1  12
TORSDOF 15
ENDMDL
MODEL 9
REMARK VINA RESULT:      -5.4      5.548      7.414
REMARK  Name = 
REMARK  17 active torsions:
REMARK  status: ('A' for Active; 'I' for Inactive)
REMARK    1  A    between atoms: C_1  and  C_2
REMARK    2  A    between atoms: C_2  and  C_3
REMARK    3  A    between atoms: C_3  and  C_4
REMARK    4  A    between atoms: C_4  and  C_5
REMARK    5  A    between atoms: C_5  and  C_6
REMARK    6  A    between atoms: C_6  and  C_7
REMARK    7  A    between atoms: C_7  and  C_8
REMARK    8  A    between atoms: C_8  and  C_9
REMARK    9  A    between atoms: C_9  and  C_10
REMARK   10  A    between atoms: C_10  and  C_11
REMARK   11  A    between atoms: C_11  and  C_12
REMARK   12  A    between atoms: C_12  and  C_13
REMARK   13  A    between atoms: C_13  and  C_14
REMARK   14  A    between atoms: C_14  and  C_15
REMARK   15  A    between atoms: C_15  and  C_16
REMARK   16  A    between atoms: C_16  and  N_17
REMARK   17  A    between atoms: N_20  and  C_21
REMARK                            x       y       z     vdW  Elec       q    Type
REMARK                         _______ _______ _______ _____ _____    ______ ____
ROOT
ATOM      1  C   UNL     1       3.805   7.179  16.754  0.00  0.00    +0.000 C 
ENDROOT
BRANCH   1   2
ATOM      2  C   UNL     1       5.251   6.765  16.930  0.00  0.00    +0.000 C 
BRANCH   2   3
ATOM      3  C   UNL     1       5.610   5.729  15.887  0.00  0.00    +0.000 C 
BRANCH   3   4
ATOM      4  C   UNL     1       4.993   4.404  16.272  0.00  0.00    +0.000 C 
BRANCH   4   5
ATOM      5  C   UNL     1       5.289   4.117  17.726  0.00  0.00    +0.000 C 
BRANCH   5   6
ATOM      6  C   UNL     1       4.000   3.745  18.421  0.00  0.00    +0.000 C 
BRANCH   6   7
ATOM      7  C   UNL     1       2.924   3.509  17.387  0.00  0.00    +0.000 C 
BRANCH   7   8
ATOM      8  C   UNL     1       1.666   4.239  17.808  0.00  0.00    +0.000 C 
BRANCH   8   9
ATOM      9  C   UNL     1       1.666   4.396  19.311  0.00  0.00    +0.000 C 
BRANCH   9  11
ATOM     10  C   UNL     1       1.461   2.820  21.192  0.00  0.00    +0.000 C 
ATOM     11  C   UNL     1       0.785   3.339  19.946  0.00  0.00    +0.000 C 
ENDBRANCH   9  11
ENDBRANCH   8   9
ENDBRANCH   7   8
ENDBRANCH   6   7
ENDBRANCH   5   6
ENDBRANCH   4   5
ENDBRANCH   3   4
ENDBRANCH   2   3
ENDBRANCH   1   2
BRANCH   1  12
ATOM     12  C   UNL     1       3.333   7.912  17.994  0.00  0.00    +0.000 C 
BRANCH  12  13
ATOM     13  C   UNL     1       1.818   7.968  18.010  0.00  0.00    +0.000 C 
BRANCH  13  14
ATOM     14  C   UNL     1       1.344   9.404  17.854  0.00  0.00    +0.000 C 
BRANCH  14  15
ATOM     15  C   UNL     1       1.327  10.089  19.209  0.00  0.00    +0.000 C 
BRANCH  15  16
ATOM     16  C   UNL     1       0.884   9.132  20.303  0.00  0.00    +0.000 C 
BRANCH  16  17
ATOM     17  N   UNL     1       0.237   9.874  21.383  0.00  0.00    +0.000 N 
ATOM     18  C   UNL     1      -0.359   9.330  22.507  0.00  0.00    +0.000 A 
ATOM     19  C   UNL     1      -0.922  10.364  23.201  0.00  0.00    +0.000 A 
ATOM     20  N   UNL     1      -0.654  11.523  22.468  0.00  0.00    +0.000 N 
ATOM     21  C   UNL     1      -1.102  12.870  22.777  0.00  0.00    +0.000 C 
ATOM     22  C   UNL     1       0.082  11.210  21.387  0.00  0.00    +0.000 A 
ENDBRANCH  16  17
ENDBRANCH  15  16
ENDBRANCH  14  15
ENDBRANCH  13  14
ENDBRANCH  12  13
ENDBRANCH   1  12
TORSDOF 15
ENDMDL
