MODEL 1
REMARK VINA RESULT:      -6.5      0.000      0.000
REMARK  Name = 
REMARK  8 active torsions:
REMARK  status: ('A' for Active; 'I' for Inactive)
REMARK    1  A    between atoms: C_1  and  O_2
REMARK    2  A    between atoms: O_2  and  C_3
REMARK    3  A    between atoms: C_5  and  O_6
REMARK    4  A    between atoms: O_6  and  C_7
REMARK    5  A    between atoms: C_9  and  C_10
REMARK    6  A    between atoms: N_13  and  C_14
REMARK    7  A    between atoms: C_21  and  C_22
REMARK    8  A    between atoms: C_28  and  C_29
REMARK                            x       y       z     vdW  Elec       q    Type
REMARK                         _______ _______ _______ _____ _____    ______ ____
ROOT
ATOM      1  C   UNL     1       7.111  14.136  21.910  0.00  0.00    +0.000 A 
ATOM      2  N   UNL     1       8.210  13.538  21.405  0.00  0.00    +0.000 NA
ATOM      3  C   UNL     1       8.855  12.626  22.150  0.00  0.00    +0.000 A 
ATOM      4  N   UNL     1      10.028  12.059  21.664  0.00  0.00    +0.000 N 
ATOM      5  N   UNL     1       8.456  12.276  23.377  0.00  0.00    +0.000 NA
ATOM      6  C   UNL     1       7.329  12.845  23.882  0.00  0.00    +0.000 A 
ATOM      7  C   UNL     1       6.616  13.800  23.164  0.00  0.00    +0.000 A 
ATOM      8  H   UNL     1      10.483  11.490  22.368  0.00  0.00    +0.000 HD
ENDROOT
BRANCH   1  13
ATOM      9  C   UNL     1       5.074  15.962  19.276  0.00  0.00    +0.000 A 
ATOM     10  C   UNL     1       5.762  17.175  19.200  0.00  0.00    +0.000 A 
ATOM     11  C   UNL     1       6.824  17.442  20.054  0.00  0.00    +0.000 A 
ATOM     12  C   UNL     1       7.161  16.508  21.032  0.00  0.00    +0.000 A 
ATOM     13  C   UNL     1       6.573  15.235  21.066  0.00  0.00    +0.000 A 
ATOM     14  C   UNL     1       5.491  14.996  20.198  0.00  0.00    +0.000 A 
BRANCH   9  16
ATOM     15  C   UNL     1       3.159  14.731  18.596  0.00  0.00    +0.000 C 
ATOM     16  O   UNL     1       4.053  15.817  18.379  0.00  0.00    +0.000 OA
ENDBRANCH   9  16
BRANCH  11  17
ATOM     17  O   UNL     1       7.483  18.630  19.883  0.00  0.00    +0.000 OA
ATOM     18  C   UNL     1       8.905  18.555  20.031  0.00  0.00    +0.000 C 
ENDBRANCH  11  17
ENDBRANCH   1  13
BRANCH   4  19
ATOM     19  C   UNL     1      10.349  11.734  20.333  0.00  0.00    +0.000 A 
ATOM     20  C   UNL     1      11.572  12.162  19.798  0.00  0.00    +0.000 A 
ATOM     21  C   UNL     1      11.902  11.902  18.464  0.00  0.00    +0.000 A 
ATOM     22  C   UNL     1      11.023  11.190  17.651  0.00  0.00    +0.000 A 
ATOM     23  C   UNL     1       9.811  10.747  18.169  0.00  0.00    +0.000 A 
ATOM     24  C   UNL     1       9.475  11.029  19.496  0.00  0.00    +0.000 A 
ENDBRANCH   4  19
BRANCH   6  25
ATOM     25  C   UNL     1       6.917  12.331  25.217  0.00  0.00    +0.000 A 
ATOM     26  C   UNL     1       5.953  11.315  25.387  0.00  0.00    +0.000 A 
ATOM     27  C   UNL     1       5.674  10.761  26.639  0.00  0.00    +0.000 A 
ATOM     28  C   UNL     1       6.299  11.261  27.771  0.00  0.00    +0.000 A 
ATOM     29  C   UNL     1       7.204  12.311  27.648  0.00  0.00    +0.000 A 
ATOM     30  C   UNL     1       7.517  12.832  26.388  0.00  0.00    +0.000 A 
ENDBRANCH   6  25
BRANCH   7  31
ATOM     31  C   UNL     1       5.441  14.413  23.693  0.00  0.00    +0.000 C 
ATOM     32  N   UNL     1       4.481  14.908  24.127  0.00  0.00    +0.000 NA
ENDBRANCH   7  31
TORSDOF 6
ENDMDL
MODEL 2
REMARK VINA RESULT:      -6.4      7.497     11.040
REMARK  Name = 
REMARK  8 active torsions:
REMARK  status: ('A' for Active; 'I' for Inactive)
REMARK    1  A    between atoms: C_1  and  O_2
REMARK    2  A    between atoms: O_2  and  C_3
REMARK    3  A    between atoms: C_5  and  O_6
REMARK    4  A    between atoms: O_6  and  C_7
REMARK    5  A    between atoms: C_9  and  C_10
REMARK    6  A    between atoms: N_13  and  C_14
REMARK    7  A    between atoms: C_21  and  C_22
REMARK    8  A    between atoms: C_28  and  C_29
REMARK                            x       y       z     vdW  Elec       q    Type
REMARK                         _______ _______ _______ _____ _____    ______ ____
ROOT
ATOM      1  C   UNL     1      -1.103  12.843  19.539  0.00  0.00    +0.000 A 
ATOM      2  N   UNL     1      -2.227  12.533  18.859  0.00  0.00    +0.000 NA
ATOM      3  C   UNL     1      -2.313  11.338  18.252  0.00  0.00    +0.000 A 
ATOM      4  N   UNL     1      -3.437  11.041  17.492  0.00  0.00    +0.000 N 
ATOM      5  N   UNL     1      -1.330  10.432  18.293  0.00  0.00    +0.000 NA
ATOM      6  C   UNL     1      -0.208  10.719  19.004  0.00  0.00    +0.000 A 
ATOM      7  C   UNL     1      -0.055  11.940  19.652  0.00  0.00    +0.000 A 
ATOM      8  H   UNL     1      -3.323  10.171  16.986  0.00  0.00    +0.000 HD
ENDROOT
BRANCH   1  13
ATOM      9  C   UNL     1      -1.856  15.938  21.607  0.00  0.00    +0.000 A 
ATOM     10  C   UNL     1      -1.298  16.936  20.807  0.00  0.00    +0.000 A 
ATOM     11  C   UNL     1      -0.604  16.611  19.649  0.00  0.00    +0.000 A 
ATOM     12  C   UNL     1      -0.418  15.269  19.323  0.00  0.00    +0.000 A 
ATOM     13  C   UNL     1      -1.059  14.244  20.035  0.00  0.00    +0.000 A 
ATOM     14  C   UNL     1      -1.745  14.601  21.210  0.00  0.00    +0.000 A 
BRANCH   9  16
ATOM     15  C   UNL     1      -2.861  15.411  23.695  0.00  0.00    +0.000 C 
ATOM     16  O   UNL     1      -2.519  16.386  22.716  0.00  0.00    +0.000 OA
ENDBRANCH   9  16
BRANCH  11  17
ATOM     17  O   UNL     1      -0.131  17.648  18.888  0.00  0.00    +0.000 OA
ATOM     18  C   UNL     1      -0.659  17.705  17.559  0.00  0.00    +0.000 C 
ENDBRANCH  11  17
ENDBRANCH   1  13
BRANCH   4  19
ATOM     19  C   UNL     1      -4.771  11.425  17.728  0.00  0.00    +0.000 A 
ATOM     20  C   UNL     1      -5.522  10.738  18.690  0.00  0.00    +0.000 A 
ATOM     21  C   UNL     1      -6.866  11.059  18.915  0.00  0.00    +0.000 A 
ATOM     22  C   UNL     1      -7.471  12.086  18.195  0.00  0.00    +0.000 A 
ATOM     23  C   UNL     1      -6.736  12.786  17.244  0.00  0.00    +0.000 A 
ATOM     24  C   UNL     1      -5.401  12.448  17.006  0.00  0.00    +0.000 A 
ENDBRANCH   4  19
BRANCH   6  25
ATOM     25  C   UNL     1       0.792   9.617  19.060  0.00  0.00    +0.000 A 
ATOM     26  C   UNL     1       0.999   8.823  20.207  0.00  0.00    +0.000 A 
ATOM     27  C   UNL     1       1.851   7.715  20.198  0.00  0.00    +0.000 A 
ATOM     28  C   UNL     1       2.581   7.415  19.058  0.00  0.00    +0.000 A 
ATOM     29  C   UNL     1       2.454   8.220  17.929  0.00  0.00    +0.000 A 
ATOM     30  C   UNL     1       1.564   9.300  17.927  0.00  0.00    +0.000 A 
ENDBRANCH   6  25
BRANCH   7  31
ATOM     31  C   UNL     1       1.127  12.254  20.389  0.00  0.00    +0.000 C 
ATOM     32  N   UNL     1       2.088  12.514  20.991  0.00  0.00    +0.000 NA
ENDBRANCH   7  31
TORSDOF 6
ENDMDL
MODEL 3
REMARK VINA RESULT:      -6.4      7.474     10.940
REMARK  Name = 
REMARK  8 active torsions:
REMARK  status: ('A' for Active; 'I' for Inactive)
REMARK    1  A    between atoms: C_1  and  O_2
REMARK    2  A    between atoms: O_2  and  C_3
REMARK    3  A    between atoms: C_5  and  O_6
REMARK    4  A    between atoms: O_6  and  C_7
REMARK    5  A    between atoms: C_9  and  C_10
REMARK    6  A    between atoms: N_13  and  C_14
REMARK    7  A    between atoms: C_21  and  C_22
REMARK    8  A    between atoms: C_28  and  C_29
REMARK                            x       y       z     vdW  Elec       q    Type
REMARK                         _______ _______ _______ _____ _____    ______ ____
ROOT
ATOM      1  C   UNL     1      -1.084  13.056  19.497  0.00  0.00    +0.000 A 
ATOM      2  N   UNL     1      -2.253  12.718  18.914  0.00  0.00    +0.000 NA
ATOM      3  C   UNL     1      -2.435  11.451  18.507  0.00  0.00    +0.000 A 
ATOM      4  N   UNL     1      -3.608  11.113  17.841  0.00  0.00    +0.000 N 
ATOM      5  N   UNL     1      -1.507  10.500  18.656  0.00  0.00    +0.000 NA
ATOM      6  C   UNL     1      -0.340  10.819  19.275  0.00  0.00    +0.000 A 
ATOM      7  C   UNL     1      -0.087  12.115  19.717  0.00  0.00    +0.000 A 
ATOM      8  H   UNL     1      -3.567  10.170  17.475  0.00  0.00    +0.000 HD
ENDROOT
BRANCH   1  13
ATOM      9  C   UNL     1      -1.595  16.486  21.045  0.00  0.00    +0.000 A 
ATOM     10  C   UNL     1      -0.974  17.301  20.097  0.00  0.00    +0.000 A 
ATOM     11  C   UNL     1      -0.315  16.747  19.008  0.00  0.00    +0.000 A 
ATOM     12  C   UNL     1      -0.228  15.360  18.900  0.00  0.00    +0.000 A 
ATOM     13  C   UNL     1      -0.935  14.510  19.764  0.00  0.00    +0.000 A 
ATOM     14  C   UNL     1      -1.583  15.098  20.866  0.00  0.00    +0.000 A 
BRANCH   9  16
ATOM     15  C   UNL     1      -1.567  17.125  23.333  0.00  0.00    +0.000 C 
ATOM     16  O   UNL     1      -2.215  17.151  22.066  0.00  0.00    +0.000 OA
ENDBRANCH   9  16
BRANCH  11  17
ATOM     17  O   UNL     1       0.224  17.613  18.093  0.00  0.00    +0.000 OA
ATOM     18  C   UNL     1      -0.734  18.334  17.312  0.00  0.00    +0.000 C 
ENDBRANCH  11  17
ENDBRANCH   1  13
BRANCH   4  19
ATOM     19  C   UNL     1      -4.904  11.615  18.058  0.00  0.00    +0.000 A 
ATOM     20  C   UNL     1      -5.563  12.287  17.019  0.00  0.00    +0.000 A 
ATOM     21  C   UNL     1      -6.832  12.843  17.214  0.00  0.00    +0.000 A 
ATOM     22  C   UNL     1      -7.470  12.717  18.446  0.00  0.00    +0.000 A 
ATOM     23  C   UNL     1      -6.836  12.043  19.484  0.00  0.00    +0.000 A 
ATOM     24  C   UNL     1      -5.559  11.508  19.292  0.00  0.00    +0.000 A 
ENDBRANCH   4  19
BRANCH   6  25
ATOM     25  C   UNL     1       0.594   9.677  19.470  0.00  0.00    +0.000 A 
ATOM     26  C   UNL     1       0.693   8.962  20.682  0.00  0.00    +0.000 A 
ATOM     27  C   UNL     1       1.482   7.816  20.804  0.00  0.00    +0.000 A 
ATOM     28  C   UNL     1       2.259   7.396  19.735  0.00  0.00    +0.000 A 
ATOM     29  C   UNL     1       2.240   8.119  18.546  0.00  0.00    +0.000 A 
ATOM     30  C   UNL     1       1.411   9.238  18.412  0.00  0.00    +0.000 A 
ENDBRANCH   6  25
BRANCH   7  31
ATOM     31  C   UNL     1       1.142  12.462  20.354  0.00  0.00    +0.000 C 
ATOM     32  N   UNL     1       2.143  12.741  20.877  0.00  0.00    +0.000 NA
ENDBRANCH   7  31
TORSDOF 6
ENDMDL
MODEL 4
REMARK VINA RESULT:      -6.4      7.427     10.914
REMARK  Name = 
REMARK  8 active torsions:
REMARK  status: ('A' for Active; 'I' for Inactive)
REMARK    1  A    between atoms: C_1  and  O_2
REMARK    2  A    between atoms: O_2  and  C_3
REMARK    3  A    between atoms: C_5  and  O_6
REMARK    4  A    between atoms: O_6  and  C_7
REMARK    5  A    between atoms: C_9  and  C_10
REMARK    6  A    between atoms: N_13  and  C_14
REMARK    7  A    between atoms: C_21  and  C_22
REMARK    8  A    between atoms: C_28  and  C_29
REMARK                            x       y       z     vdW  Elec       q    Type
REMARK                         _______ _______ _______ _____ _____    ______ ____
ROOT
ATOM      1  C   UNL     1      -1.103  13.014  19.581  0.00  0.00    +0.000 A 
ATOM      2  N   UNL     1      -2.266  12.679  18.982  0.00  0.00    +0.000 NA
ATOM      3  C   UNL     1      -2.436  11.419  18.550  0.00  0.00    +0.000 A 
ATOM      4  N   UNL     1      -3.601  11.086  17.869  0.00  0.00    +0.000 N 
ATOM      5  N   UNL     1      -1.502  10.472  18.688  0.00  0.00    +0.000 NA
ATOM      6  C   UNL     1      -0.341  10.788  19.321  0.00  0.00    +0.000 A 
ATOM      7  C   UNL     1      -0.101  12.077  19.789  0.00  0.00    +0.000 A 
ATOM      8  H   UNL     1      -3.550  10.150  17.486  0.00  0.00    +0.000 HD
ENDROOT
BRANCH   1  13
ATOM      9  C   UNL     1      -0.094  16.660  19.246  0.00  0.00    +0.000 A 
ATOM     10  C   UNL     1      -0.364  17.131  20.533  0.00  0.00    +0.000 A 
ATOM     11  C   UNL     1      -0.951  16.304  21.481  0.00  0.00    +0.000 A 
ATOM     12  C   UNL     1      -1.324  15.011  21.119  0.00  0.00    +0.000 A 
ATOM     13  C   UNL     1      -0.967  14.464  19.876  0.00  0.00    +0.000 A 
ATOM     14  C   UNL     1      -0.385  15.328  18.930  0.00  0.00    +0.000 A 
BRANCH   9  16
ATOM     15  C   UNL     1      -0.349  18.160  17.421  0.00  0.00    +0.000 C 
ATOM     16  O   UNL     1       0.490  17.568  18.407  0.00  0.00    +0.000 OA
ENDBRANCH   9  16
BRANCH  11  17
ATOM     17  O   UNL     1      -1.135  16.820  22.737  0.00  0.00    +0.000 OA
ATOM     18  C   UNL     1      -2.015  16.064  23.574  0.00  0.00    +0.000 C 
ENDBRANCH  11  17
ENDBRANCH   1  13
BRANCH   4  19
ATOM     19  C   UNL     1      -4.903  11.574  18.086  0.00  0.00    +0.000 A 
ATOM     20  C   UNL     1      -5.550  12.280  17.063  0.00  0.00    +0.000 A 
ATOM     21  C   UNL     1      -6.824  12.824  17.260  0.00  0.00    +0.000 A 
ATOM     22  C   UNL     1      -7.478  12.650  18.477  0.00  0.00    +0.000 A 
ATOM     23  C   UNL     1      -6.856  11.941  19.499  0.00  0.00    +0.000 A 
ATOM     24  C   UNL     1      -5.574  11.419  19.306  0.00  0.00    +0.000 A 
ENDBRANCH   4  19
BRANCH   6  25
ATOM     25  C   UNL     1       0.600   9.649  19.502  0.00  0.00    +0.000 A 
ATOM     26  C   UNL     1       0.710   8.925  20.707  0.00  0.00    +0.000 A 
ATOM     27  C   UNL     1       1.506   7.783  20.815  0.00  0.00    +0.000 A 
ATOM     28  C   UNL     1       2.278   7.374  19.738  0.00  0.00    +0.000 A 
ATOM     29  C   UNL     1       2.247   8.106  18.555  0.00  0.00    +0.000 A 
ATOM     30  C   UNL     1       1.412   9.222  18.435  0.00  0.00    +0.000 A 
ENDBRANCH   6  25
BRANCH   7  31
ATOM     31  C   UNL     1       1.121  12.420  20.443  0.00  0.00    +0.000 C 
ATOM     32  N   UNL     1       2.115  12.702  20.978  0.00  0.00    +0.000 NA
ENDBRANCH   7  31
TORSDOF 6
ENDMDL
MODEL 5
REMARK VINA RESULT:      -6.2      6.702      9.757
REMARK  Name = 
REMARK  8 active torsions:
REMARK  status: ('A' for Active; 'I' for Inactive)
REMARK    1  A    between atoms: C_1  and  O_2
REMARK    2  A    between atoms: O_2  and  C_3
REMARK    3  A    between atoms: C_5  and  O_6
REMARK    4  A    between atoms: O_6  and  C_7
REMARK    5  A    between atoms: C_9  and  C_10
REMARK    6  A    between atoms: N_13  and  C_14
REMARK    7  A    between atoms: C_21  and  C_22
REMARK    8  A    between atoms: C_28  and  C_29
REMARK                            x       y       z     vdW  Elec       q    Type
REMARK                         _______ _______ _______ _____ _____    ______ ____
ROOT
ATOM      1  C   UNL     1      -0.073  11.744  18.579  0.00  0.00    +0.000 A 
ATOM      2  N   UNL     1       0.590  10.576  18.441  0.00  0.00    +0.000 NA
ATOM      3  C   UNL     1       1.928  10.596  18.328  0.00  0.00    +0.000 A 
ATOM      4  N   UNL     1       2.610   9.404  18.114  0.00  0.00    +0.000 N 
ATOM      5  N   UNL     1       2.642  11.727  18.349  0.00  0.00    +0.000 NA
ATOM      6  C   UNL     1       1.988  12.907  18.523  0.00  0.00    +0.000 A 
ATOM      7  C   UNL     1       0.603  12.955  18.643  0.00  0.00    +0.000 A 
ATOM      8  H   UNL     1       3.590   9.569  17.917  0.00  0.00    +0.000 HD
ENDROOT
BRANCH   1  13
ATOM      9  C   UNL     1      -3.589  11.214  17.244  0.00  0.00    +0.000 A 
ATOM     10  C   UNL     1      -4.353  11.695  18.308  0.00  0.00    +0.000 A 
ATOM     11  C   UNL     1      -3.746  12.107  19.488  0.00  0.00    +0.000 A 
ATOM     12  C   UNL     1      -2.365  11.980  19.622  0.00  0.00    +0.000 A 
ATOM     13  C   UNL     1      -1.552  11.612  18.539  0.00  0.00    +0.000 A 
ATOM     14  C   UNL     1      -2.194  11.187  17.361  0.00  0.00    +0.000 A 
BRANCH   9  16
ATOM     15  C   UNL     1      -3.552  10.401  15.012  0.00  0.00    +0.000 C 
ATOM     16  O   UNL     1      -4.301  10.845  16.137  0.00  0.00    +0.000 OA
ENDBRANCH   9  16
BRANCH  11  17
ATOM     17  O   UNL     1      -4.558  12.617  20.467  0.00  0.00    +0.000 OA
ATOM     18  C   UNL     1      -5.915  12.162  20.419  0.00  0.00    +0.000 C 
ENDBRANCH  11  17
ENDBRANCH   1  13
BRANCH   4  19
ATOM     19  C   UNL     1       2.308   8.128  18.624  0.00  0.00    +0.000 A 
ATOM     20  C   UNL     1       1.868   8.004  19.948  0.00  0.00    +0.000 A 
ATOM     21  C   UNL     1       1.608   6.747  20.504  0.00  0.00    +0.000 A 
ATOM     22  C   UNL     1       1.763   5.596  19.736  0.00  0.00    +0.000 A 
ATOM     23  C   UNL     1       2.186   5.701  18.415  0.00  0.00    +0.000 A 
ATOM     24  C   UNL     1       2.467   6.957  17.870  0.00  0.00    +0.000 A 
ENDBRANCH   4  19
BRANCH   6  25
ATOM     25  C   UNL     1       2.873  14.100  18.618  0.00  0.00    +0.000 A 
ATOM     26  C   UNL     1       3.081  14.991  17.544  0.00  0.00    +0.000 A 
ATOM     27  C   UNL     1       3.813  16.172  17.692  0.00  0.00    +0.000 A 
ATOM     28  C   UNL     1       4.425  16.458  18.903  0.00  0.00    +0.000 A 
ATOM     29  C   UNL     1       4.298  15.566  19.964  0.00  0.00    +0.000 A 
ATOM     30  C   UNL     1       3.525  14.408  19.826  0.00  0.00    +0.000 A 
ENDBRANCH   6  25
BRANCH   7  31
ATOM     31  C   UNL     1      -0.092  14.191  18.812  0.00  0.00    +0.000 C 
ATOM     32  N   UNL     1      -0.660  15.196  18.953  0.00  0.00    +0.000 NA
ENDBRANCH   7  31
TORSDOF 6
ENDMDL
MODEL 6
REMARK VINA RESULT:      -6.2      5.908      8.105
REMARK  Name = 
REMARK  8 active torsions:
REMARK  status: ('A' for Active; 'I' for Inactive)
REMARK    1  A    between atoms: C_1  and  O_2
REMARK    2  A    between atoms: O_2  and  C_3
REMARK    3  A    between atoms: C_5  and  O_6
REMARK    4  A    between atoms: O_6  and  C_7
REMARK    5  A    between atoms: C_9  and  C_10
REMARK    6  A    between atoms: N_13  and  C_14
REMARK    7  A    between atoms: C_21  and  C_22
REMARK    8  A    between atoms: C_28  and  C_29
REMARK                            x       y       z     vdW  Elec       q    Type
REMARK                         _______ _______ _______ _____ _____    ______ ____
ROOT
ATOM      1  C   UNL     1       0.855  12.765  20.710  0.00  0.00    +0.000 A 
ATOM      2  N   UNL     1       1.159  11.458  20.570  0.00  0.00    +0.000 NA
ATOM      3  C   UNL     1       0.281  10.536  20.997  0.00  0.00    +0.000 A 
ATOM      4  N   UNL     1       0.618   9.190  20.920  0.00  0.00    +0.000 N 
ATOM      5  N   UNL     1      -0.892  10.854  21.555  0.00  0.00    +0.000 NA
ATOM      6  C   UNL     1      -1.225  12.167  21.670  0.00  0.00    +0.000 A 
ATOM      7  C   UNL     1      -0.357  13.172  21.251  0.00  0.00    +0.000 A 
ATOM      8  H   UNL     1      -0.067   8.609  21.389  0.00  0.00    +0.000 HD
ENDROOT
BRANCH   1  13
ATOM      9  C   UNL     1       3.179  14.931  18.629  0.00  0.00    +0.000 A 
ATOM     10  C   UNL     1       4.224  15.142  19.529  0.00  0.00    +0.000 A 
ATOM     11  C   UNL     1       4.145  14.666  20.831  0.00  0.00    +0.000 A 
ATOM     12  C   UNL     1       2.983  14.023  21.250  0.00  0.00    +0.000 A 
ATOM     13  C   UNL     1       1.961  13.689  20.348  0.00  0.00    +0.000 A 
ATOM     14  C   UNL     1       2.061  14.196  19.039  0.00  0.00    +0.000 A 
BRANCH   9  16
ATOM     15  C   UNL     1       3.019  16.805  17.178  0.00  0.00    +0.000 C 
ATOM     16  O   UNL     1       3.378  15.443  17.377  0.00  0.00    +0.000 OA
ENDBRANCH   9  16
BRANCH  11  17
ATOM     17  O   UNL     1       5.233  14.866  21.640  0.00  0.00    +0.000 OA
ATOM     18  C   UNL     1       5.403  13.888  22.671  0.00  0.00    +0.000 C 
ENDBRANCH  11  17
ENDBRANCH   1  13
BRANCH   4  19
ATOM     19  C   UNL     1       1.374   8.539  19.927  0.00  0.00    +0.000 A 
ATOM     20  C   UNL     1       1.999   7.321  20.229  0.00  0.00    +0.000 A 
ATOM     21  C   UNL     1       2.800   6.672  19.283  0.00  0.00    +0.000 A 
ATOM     22  C   UNL     1       2.970   7.220  18.014  0.00  0.00    +0.000 A 
ATOM     23  C   UNL     1       2.347   8.422  17.694  0.00  0.00    +0.000 A 
ATOM     24  C   UNL     1       1.566   9.079  18.648  0.00  0.00    +0.000 A 
ENDBRANCH   4  19
BRANCH   6  25
ATOM     25  C   UNL     1      -2.582  12.419  22.226  0.00  0.00    +0.000 A 
ATOM     26  C   UNL     1      -2.875  12.351  23.604  0.00  0.00    +0.000 A 
ATOM     27  C   UNL     1      -4.123  12.714  24.116  0.00  0.00    +0.000 A 
ATOM     28  C   UNL     1      -5.142  13.084  23.251  0.00  0.00    +0.000 A 
ATOM     29  C   UNL     1      -4.909  13.095  21.879  0.00  0.00    +0.000 A 
ATOM     30  C   UNL     1      -3.644  12.776  21.374  0.00  0.00    +0.000 A 
ENDBRANCH   6  25
BRANCH   7  31
ATOM     31  C   UNL     1      -0.694  14.553  21.380  0.00  0.00    +0.000 C 
ATOM     32  N   UNL     1      -0.964  15.679  21.487  0.00  0.00    +0.000 NA
ENDBRANCH   7  31
TORSDOF 6
ENDMDL
MODEL 7
REMARK VINA RESULT:      -6.1      0.706      1.396
REMARK  Name = 
REMARK  8 active torsions:
REMARK  status: ('A' for Active; 'I' for Inactive)
REMARK    1  A    between atoms: C_1  and  O_2
REMARK    2  A    between atoms: O_2  and  C_3
REMARK    3  A    between atoms: C_5  and  O_6
REMARK    4  A    between atoms: O_6  and  C_7
REMARK    5  A    between atoms: C_9  and  C_10
REMARK    6  A    between atoms: N_13  and  C_14
REMARK    7  A    between atoms: C_21  and  C_22
REMARK    8  A    between atoms: C_28  and  C_29
REMARK                            x       y       z     vdW  Elec       q    Type
REMARK                         _______ _______ _______ _____ _____    ______ ____
ROOT
ATOM      1  C   UNL     1       7.083  14.228  22.354  0.00  0.00    +0.000 A 
ATOM      2  N   UNL     1       8.123  13.624  21.742  0.00  0.00    +0.000 NA
ATOM      3  C   UNL     1       8.838  12.712  22.420  0.00  0.00    +0.000 A 
ATOM      4  N   UNL     1       9.953  12.139  21.820  0.00  0.00    +0.000 N 
ATOM      5  N   UNL     1       8.564  12.368  23.683  0.00  0.00    +0.000 NA
ATOM      6  C   UNL     1       7.497  12.943  24.298  0.00  0.00    +0.000 A 
ATOM      7  C   UNL     1       6.718  13.899  23.652  0.00  0.00    +0.000 A 
ATOM      8  H   UNL     1      10.475  11.571  22.475  0.00  0.00    +0.000 HD
ENDROOT
BRANCH   1  13
ATOM      9  C   UNL     1       4.728  16.073  20.014  0.00  0.00    +0.000 A 
ATOM     10  C   UNL     1       5.450  17.244  19.778  0.00  0.00    +0.000 A 
ATOM     11  C   UNL     1       6.650  17.482  20.436  0.00  0.00    +0.000 A 
ATOM     12  C   UNL     1       7.099  16.565  21.383  0.00  0.00    +0.000 A 
ATOM     13  C   UNL     1       6.465  15.326  21.565  0.00  0.00    +0.000 A 
ATOM     14  C   UNL     1       5.245  15.116  20.895  0.00  0.00    +0.000 A 
BRANCH   9  16
ATOM     15  C   UNL     1       2.603  16.986  19.470  0.00  0.00    +0.000 C 
ATOM     16  O   UNL     1       3.567  15.953  19.302  0.00  0.00    +0.000 OA
ENDBRANCH   9  16
BRANCH  11  17
ATOM     17  O   UNL     1       7.327  18.629  20.112  0.00  0.00    +0.000 OA
ATOM     18  C   UNL     1       8.671  18.425  19.666  0.00  0.00    +0.000 C 
ENDBRANCH  11  17
ENDBRANCH   1  13
BRANCH   4  19
ATOM     19  C   UNL     1      10.135  11.809  20.464  0.00  0.00    +0.000 A 
ATOM     20  C   UNL     1       9.290  10.862  19.869  0.00  0.00    +0.000 A 
ATOM     21  C   UNL     1       9.475  10.472  18.538  0.00  0.00    +0.000 A 
ATOM     22  C   UNL     1      10.494  11.038  17.776  0.00  0.00    +0.000 A 
ATOM     23  C   UNL     1      11.334  11.989  18.347  0.00  0.00    +0.000 A 
ATOM     24  C   UNL     1      11.161  12.360  19.684  0.00  0.00    +0.000 A 
ENDBRANCH   4  19
BRANCH   6  25
ATOM     25  C   UNL     1       7.222  12.436  25.671  0.00  0.00    +0.000 A 
ATOM     26  C   UNL     1       7.699  13.071  26.836  0.00  0.00    +0.000 A 
ATOM     27  C   UNL     1       7.324  12.651  28.115  0.00  0.00    +0.000 A 
ATOM     28  C   UNL     1       6.519  11.532  28.266  0.00  0.00    +0.000 A 
ATOM     29  C   UNL     1       6.088  10.839  27.139  0.00  0.00    +0.000 A 
ATOM     30  C   UNL     1       6.426  11.291  25.859  0.00  0.00    +0.000 A 
ENDBRANCH   6  25
BRANCH   7  31
ATOM     31  C   UNL     1       5.605  14.518  24.297  0.00  0.00    +0.000 C 
ATOM     32  N   UNL     1       4.695  15.022  24.819  0.00  0.00    +0.000 NA
ENDBRANCH   7  31
TORSDOF 6
ENDMDL
MODEL 8
REMARK VINA RESULT:      -6.1      0.535      2.347
REMARK  Name = 
REMARK  8 active torsions:
REMARK  status: ('A' for Active; 'I' for Inactive)
REMARK    1  A    between atoms: C_1  and  O_2
REMARK    2  A    between atoms: O_2  and  C_3
REMARK    3  A    between atoms: C_5  and  O_6
REMARK    4  A    between atoms: O_6  and  C_7
REMARK    5  A    between atoms: C_9  and  C_10
REMARK    6  A    between atoms: N_13  and  C_14
REMARK    7  A    between atoms: C_21  and  C_22
REMARK    8  A    between atoms: C_28  and  C_29
REMARK                            x       y       z     vdW  Elec       q    Type
REMARK                         _______ _______ _______ _____ _____    ______ ____
ROOT
ATOM      1  C   UNL     1       7.091  14.117  22.099  0.00  0.00    +0.000 A 
ATOM      2  N   UNL     1       8.166  13.512  21.551  0.00  0.00    +0.000 NA
ATOM      3  C   UNL     1       8.856  12.622  22.283  0.00  0.00    +0.000 A 
ATOM      4  N   UNL     1      10.004  12.049  21.750  0.00  0.00    +0.000 N 
ATOM      5  N   UNL     1       8.524  12.301  23.538  0.00  0.00    +0.000 NA
ATOM      6  C   UNL     1       7.422  12.878  24.088  0.00  0.00    +0.000 A 
ATOM      7  C   UNL     1       6.666  13.811  23.384  0.00  0.00    +0.000 A 
ATOM      8  H   UNL     1      10.500  11.501  22.442  0.00  0.00    +0.000 HD
ENDROOT
BRANCH   1  13
ATOM      9  C   UNL     1       6.650  17.449  20.331  0.00  0.00    +0.000 A 
ATOM     10  C   UNL     1       5.301  17.388  19.979  0.00  0.00    +0.000 A 
ATOM     11  C   UNL     1       4.554  16.244  20.228  0.00  0.00    +0.000 A 
ATOM     12  C   UNL     1       5.182  15.130  20.784  0.00  0.00    +0.000 A 
ATOM     13  C   UNL     1       6.502  15.190  21.256  0.00  0.00    +0.000 A 
ATOM     14  C   UNL     1       7.238  16.357  20.978  0.00  0.00    +0.000 A 
BRANCH   9  16
ATOM     15  C   UNL     1       8.696  18.629  20.074  0.00  0.00    +0.000 C 
ATOM     16  O   UNL     1       7.273  18.630  20.038  0.00  0.00    +0.000 OA
ENDBRANCH   9  16
BRANCH  11  17
ATOM     17  O   UNL     1       3.224  16.278  19.903  0.00  0.00    +0.000 OA
ATOM     18  C   UNL     1       2.673  15.023  19.492  0.00  0.00    +0.000 C 
ENDBRANCH  11  17
ENDBRANCH   1  13
BRANCH   4  19
ATOM     19  C   UNL     1      10.257  11.692  20.412  0.00  0.00    +0.000 A 
ATOM     20  C   UNL     1      11.445  12.114  19.802  0.00  0.00    +0.000 A 
ATOM     21  C   UNL     1      11.705  11.821  18.458  0.00  0.00    +0.000 A 
ATOM     22  C   UNL     1      10.791  11.082  17.713  0.00  0.00    +0.000 A 
ATOM     23  C   UNL     1       9.612  10.644  18.307  0.00  0.00    +0.000 A 
ATOM     24  C   UNL     1       9.345  10.958  19.642  0.00  0.00    +0.000 A 
ENDBRANCH   4  19
BRANCH   6  25
ATOM     25  C   UNL     1       7.085  12.396  25.456  0.00  0.00    +0.000 A 
ATOM     26  C   UNL     1       6.249  11.286  25.697  0.00  0.00    +0.000 A 
ATOM     27  C   UNL     1       6.048  10.775  26.981  0.00  0.00    +0.000 A 
ATOM     28  C   UNL     1       6.619  11.409  28.074  0.00  0.00    +0.000 A 
ATOM     29  C   UNL     1       7.393  12.549  27.879  0.00  0.00    +0.000 A 
ATOM     30  C   UNL     1       7.631  13.030  26.587  0.00  0.00    +0.000 A 
ENDBRANCH   6  25
BRANCH   7  31
ATOM     31  C   UNL     1       5.517  14.430  23.960  0.00  0.00    +0.000 C 
ATOM     32  N   UNL     1       4.578  14.932  24.430  0.00  0.00    +0.000 NA
ENDBRANCH   7  31
TORSDOF 6
ENDMDL
MODEL 9
REMARK VINA RESULT:      -6.1      5.900      8.103
REMARK  Name = 
REMARK  8 active torsions:
REMARK  status: ('A' for Active; 'I' for Inactive)
REMARK    1  A    between atoms: C_1  and  O_2
REMARK    2  A    between atoms: O_2  and  C_3
REMARK    3  A    between atoms: C_5  and  O_6
REMARK    4  A    between atoms: O_6  and  C_7
REMARK    5  A    between atoms: C_9  and  C_10
REMARK    6  A    between atoms: N_13  and  C_14
REMARK    7  A    between atoms: C_21  and  C_22
REMARK    8  A    between atoms: C_28  and  C_29
REMARK                            x       y       z     vdW  Elec       q    Type
REMARK                         _______ _______ _______ _____ _____    ______ ____
ROOT
ATOM      1  C   UNL     1       0.841  12.883  20.768  0.00  0.00    +0.000 A 
ATOM      2  N   UNL     1       1.134  11.571  20.653  0.00  0.00    +0.000 NA
ATOM      3  C   UNL     1       0.238  10.664  21.074  0.00  0.00    +0.000 A 
ATOM      4  N   UNL     1       0.562   9.314  21.023  0.00  0.00    +0.000 N 
ATOM      5  N   UNL     1      -0.943  11.002  21.603  0.00  0.00    +0.000 NA
ATOM      6  C   UNL     1      -1.264  12.320  21.692  0.00  0.00    +0.000 A 
ATOM      7  C   UNL     1      -0.378  13.310  21.278  0.00  0.00    +0.000 A 
ATOM      8  H   UNL     1      -0.138   8.747  21.486  0.00  0.00    +0.000 HD
ENDROOT
BRANCH   1  13
ATOM      9  C   UNL     1       3.225  15.002  18.706  0.00  0.00    +0.000 A 
ATOM     10  C   UNL     1       4.258  15.209  19.622  0.00  0.00    +0.000 A 
ATOM     11  C   UNL     1       4.151  14.747  20.927  0.00  0.00    +0.000 A 
ATOM     12  C   UNL     1       2.974  14.121  21.333  0.00  0.00    +0.000 A 
ATOM     13  C   UNL     1       1.964  13.791  20.416  0.00  0.00    +0.000 A 
ATOM     14  C   UNL     1       2.092  14.284  19.104  0.00  0.00    +0.000 A 
BRANCH   9  16
ATOM     15  C   UNL     1       3.023  16.834  17.207  0.00  0.00    +0.000 C 
ATOM     16  O   UNL     1       3.452  15.500  17.453  0.00  0.00    +0.000 OA
ENDBRANCH   9  16
BRANCH  11  17
ATOM     17  O   UNL     1       5.228  14.942  21.752  0.00  0.00    +0.000 OA
ATOM     18  C   UNL     1       5.608  13.798  22.523  0.00  0.00    +0.000 C 
ENDBRANCH  11  17
ENDBRANCH   1  13
BRANCH   4  19
ATOM     19  C   UNL     1       1.332   8.641  20.056  0.00  0.00    +0.000 A 
ATOM     20  C   UNL     1       1.446   9.186  18.770  0.00  0.00    +0.000 A 
ATOM     21  C   UNL     1       2.161   8.520  17.768  0.00  0.00    +0.000 A 
ATOM     22  C   UNL     1       2.790   7.308  18.045  0.00  0.00    +0.000 A 
ATOM     23  C   UNL     1       2.698   6.759  19.320  0.00  0.00    +0.000 A 
ATOM     24  C   UNL     1       1.964   7.417  20.311  0.00  0.00    +0.000 A 
ENDBRANCH   4  19
BRANCH   6  25
ATOM     25  C   UNL     1      -2.630  12.594  22.216  0.00  0.00    +0.000 A 
ATOM     26  C   UNL     1      -3.736  12.861  21.382  0.00  0.00    +0.000 A 
ATOM     27  C   UNL     1      -5.032  12.990  21.887  0.00  0.00    +0.000 A 
ATOM     28  C   UNL     1      -5.248  12.931  23.255  0.00  0.00    +0.000 A 
ATOM     29  C   UNL     1      -4.170  12.738  24.114  0.00  0.00    +0.000 A 
ATOM     30  C   UNL     1      -2.880  12.562  23.601  0.00  0.00    +0.000 A 
ENDBRANCH   6  25
BRANCH   7  31
ATOM     31  C   UNL     1      -0.703  14.696  21.381  0.00  0.00    +0.000 C 
ATOM     32  N   UNL     1      -0.963  15.827  21.466  0.00  0.00    +0.000 NA
ENDBRANCH   7  31
TORSDOF 6
ENDMDL
