MODEL 1
REMARK VINA RESULT:      -7.5      0.000      0.000
REMARK  Name = 
REMARK  11 active torsions:
REMARK  status: ('A' for Active; 'I' for Inactive)
REMARK    1  A    between atoms: C_1  and  C_2
REMARK    2  A    between atoms: C_2  and  C_3
REMARK    3  A    between atoms: C_6  and  C_7
REMARK    4  A    between atoms: C_8  and  C_9
REMARK    5  A    between atoms: C_10  and  S_11
REMARK    6  A    between atoms: S_11  and  N_14
REMARK    7  A    between atoms: N_14  and  C_15
REMARK    8  A    between atoms: C_15  and  C_16
REMARK    9  A    between atoms: C_24  and  C_25
REMARK   10  A    between atoms: N_26  and  C_27
REMARK   11  A    between atoms: C_27  and  C_28
REMARK                            x       y       z     vdW  Elec       q    Type
REMARK                         _______ _______ _______ _____ _____    ______ ____
ROOT
ATOM      1  C   UNL     1       5.564   4.423  16.362  0.00  0.00    +0.000 A 
ATOM      2  C   UNL     1       4.413   3.952  16.998  0.00  0.00    +0.000 A 
ATOM      3  C   UNL     1       3.262   3.263  16.346  0.00  0.00    +0.000 C 
ATOM      4  C   UNL     1       4.542   4.254  18.404  0.00  0.00    +0.000 A 
ATOM      5  C   UNL     1       5.771   4.886  18.580  0.00  0.00    +0.000 A 
ATOM      6  C   UNL     1       6.468   5.375  19.812  0.00  0.00    +0.000 C 
ATOM      7  N   UNL     1       6.349   5.038  17.325  0.00  0.00    +0.000 N 
ENDROOT
BRANCH   1  11
ATOM      8  C   UNL     1       5.996   3.656  12.927  0.00  0.00    +0.000 A 
ATOM      9  N   UNL     1       6.926   4.574  13.047  0.00  0.00    +0.000 NA
ATOM     10  N   UNL     1       6.880   4.989  14.361  0.00  0.00    +0.000 NA
ATOM     11  C   UNL     1       5.920   4.312  14.965  0.00  0.00    +0.000 A 
ATOM     12  O   UNL     1       5.307   3.446  14.085  0.00  0.00    +0.000 OA
BRANCH   8  14
ATOM     13  C   UNL     1       4.249   3.153  11.253  0.00  0.00    +0.000 C 
ATOM     14  C   UNL     1       5.640   2.813  11.765  0.00  0.00    +0.000 C 
ENDBRANCH   8  14
ENDBRANCH   1  11
BRANCH   4  15
ATOM     15  S   UNL     1       3.357   3.840  19.637  0.00  0.00    +0.000 S 
ATOM     16  O   UNL     1       2.136   3.585  18.900  0.00  0.00    +0.000 OA
ATOM     17  O   UNL     1       3.981   2.830  20.455  0.00  0.00    +0.000 OA
BRANCH  15  18
ATOM     18  N   UNL     1       3.124   5.166  20.647  0.00  0.00    +0.000 NA
ATOM     19  H   UNL     1       3.939   5.780  20.662  0.00  0.00    +0.000 HD
BRANCH  18  20
ATOM     20  C   UNL     1       1.827   5.842  20.600  0.00  0.00    +0.000 C 
BRANCH  20  21
ATOM     21  C   UNL     1       1.848   7.129  19.800  0.00  0.00    +0.000 A 
ATOM     22  C   UNL     1       2.481   7.126  18.541  0.00  0.00    +0.000 A 
ATOM     23  C   UNL     1       2.565   8.292  17.781  0.00  0.00    +0.000 A 
ATOM     24  C   UNL     1       2.019   9.471  18.272  0.00  0.00    +0.000 A 
ATOM     25  F   UNL     1       2.099  10.589  17.540  0.00  0.00    +0.000 F 
ATOM     26  C   UNL     1       1.404   9.510  19.515  0.00  0.00    +0.000 A 
ATOM     27  C   UNL     1       1.330   8.346  20.282  0.00  0.00    +0.000 A 
ATOM     28 CL   UNL     1       0.603   8.474  21.847  0.00  0.00    +0.000 Cl
ENDBRANCH  20  21
ENDBRANCH  18  20
ENDBRANCH  15  18
ENDBRANCH   4  15
BRANCH   7  29
ATOM     29  C   UNL     1       7.571   5.805  17.084  0.00  0.00    +0.000 C 
ATOM     30  C   UNL     1       7.410   7.302  17.293  0.00  0.00    +0.000 C 
ENDBRANCH   7  29
TORSDOF 7
ENDMDL
MODEL 2
REMARK VINA RESULT:      -7.3      5.855     10.254
REMARK  Name = 
REMARK  11 active torsions:
REMARK  status: ('A' for Active; 'I' for Inactive)
REMARK    1  A    between atoms: C_1  and  C_2
REMARK    2  A    between atoms: C_2  and  C_3
REMARK    3  A    between atoms: C_6  and  C_7
REMARK    4  A    between atoms: C_8  and  C_9
REMARK    5  A    between atoms: C_10  and  S_11
REMARK    6  A    between atoms: S_11  and  N_14
REMARK    7  A    between atoms: N_14  and  C_15
REMARK    8  A    between atoms: C_15  and  C_16
REMARK    9  A    between atoms: C_24  and  C_25
REMARK   10  A    between atoms: N_26  and  C_27
REMARK   11  A    between atoms: C_27  and  C_28
REMARK                            x       y       z     vdW  Elec       q    Type
REMARK                         _______ _______ _______ _____ _____    ______ ____
ROOT
ATOM      1  C   UNL     1      -1.526  11.937  20.578  0.00  0.00    +0.000 A 
ATOM      2  C   UNL     1      -1.009  11.144  21.606  0.00  0.00    +0.000 A 
ATOM      3  C   UNL     1      -1.323  11.266  23.059  0.00  0.00    +0.000 C 
ATOM      4  C   UNL     1      -0.116  10.183  21.004  0.00  0.00    +0.000 A 
ATOM      5  C   UNL     1      -0.127  10.412  19.630  0.00  0.00    +0.000 A 
ATOM      6  C   UNL     1       0.552   9.703  18.499  0.00  0.00    +0.000 C 
ATOM      7  N   UNL     1      -0.936  11.518  19.395  0.00  0.00    +0.000 N 
ENDROOT
BRANCH   1  11
ATOM      8  C   UNL     1      -3.412  14.895  21.089  0.00  0.00    +0.000 A 
ATOM      9  N   UNL     1      -4.370  14.120  20.640  0.00  0.00    +0.000 NA
ATOM     10  N   UNL     1      -3.782  12.901  20.382  0.00  0.00    +0.000 NA
ATOM     11  C   UNL     1      -2.497  13.002  20.675  0.00  0.00    +0.000 A 
ATOM     12  O   UNL     1      -2.200  14.271  21.125  0.00  0.00    +0.000 OA
BRANCH   8  14
ATOM     13  C   UNL     1      -2.078  16.825  21.864  0.00  0.00    +0.000 C 
ATOM     14  C   UNL     1      -3.473  16.285  21.591  0.00  0.00    +0.000 C 
ENDBRANCH   8  14
ENDBRANCH   1  11
BRANCH   4  15
ATOM     15  S   UNL     1       0.770   8.941  21.881  0.00  0.00    +0.000 S 
ATOM     16  O   UNL     1       1.667   9.676  22.749  0.00  0.00    +0.000 OA
ATOM     17  O   UNL     1      -0.232   8.042  22.402  0.00  0.00    +0.000 OA
BRANCH  15  18
ATOM     18  N   UNL     1       1.676   8.034  20.792  0.00  0.00    +0.000 NA
ATOM     19  H   UNL     1       2.643   8.356  20.742  0.00  0.00    +0.000 HD
BRANCH  18  20
ATOM     20  C   UNL     1       1.495   6.582  20.793  0.00  0.00    +0.000 C 
BRANCH  20  21
ATOM     21  C   UNL     1       2.207   5.886  19.651  0.00  0.00    +0.000 A 
ATOM     22  C   UNL     1       3.035   6.654  18.809  0.00  0.00    +0.000 A 
ATOM     23  C   UNL     1       3.682   6.071  17.719  0.00  0.00    +0.000 A 
ATOM     24  C   UNL     1       3.505   4.718  17.461  0.00  0.00    +0.000 A 
ATOM     25  F   UNL     1       4.128   4.160  16.415  0.00  0.00    +0.000 F 
ATOM     26  C   UNL     1       2.683   3.939  18.262  0.00  0.00    +0.000 A 
ATOM     27  C   UNL     1       2.026   4.523  19.346  0.00  0.00    +0.000 A 
ATOM     28 CL   UNL     1       0.971   3.511  20.271  0.00  0.00    +0.000 Cl
ENDBRANCH  20  21
ENDBRANCH  18  20
ENDBRANCH  15  18
ENDBRANCH   4  15
BRANCH   7  29
ATOM     29  C   UNL     1      -1.065  12.164  18.089  0.00  0.00    +0.000 C 
ATOM     30  C   UNL     1      -2.190  11.604  17.233  0.00  0.00    +0.000 C 
ENDBRANCH   7  29
TORSDOF 7
ENDMDL
MODEL 3
REMARK VINA RESULT:      -7.2      1.437      1.839
REMARK  Name = 
REMARK  11 active torsions:
REMARK  status: ('A' for Active; 'I' for Inactive)
REMARK    1  A    between atoms: C_1  and  C_2
REMARK    2  A    between atoms: C_2  and  C_3
REMARK    3  A    between atoms: C_6  and  C_7
REMARK    4  A    between atoms: C_8  and  C_9
REMARK    5  A    between atoms: C_10  and  S_11
REMARK    6  A    between atoms: S_11  and  N_14
REMARK    7  A    between atoms: N_14  and  C_15
REMARK    8  A    between atoms: C_15  and  C_16
REMARK    9  A    between atoms: C_24  and  C_25
REMARK   10  A    between atoms: N_26  and  C_27
REMARK   11  A    between atoms: C_27  and  C_28
REMARK                            x       y       z     vdW  Elec       q    Type
REMARK                         _______ _______ _______ _____ _____    ______ ____
ROOT
ATOM      1  C   UNL     1       5.382   4.515  16.369  0.00  0.00    +0.000 A 
ATOM      2  C   UNL     1       4.155   4.185  16.950  0.00  0.00    +0.000 A 
ATOM      3  C   UNL     1       2.967   3.623  16.246  0.00  0.00    +0.000 C 
ATOM      4  C   UNL     1       4.249   4.486  18.359  0.00  0.00    +0.000 A 
ATOM      5  C   UNL     1       5.531   4.977  18.593  0.00  0.00    +0.000 A 
ATOM      6  C   UNL     1       6.218   5.398  19.855  0.00  0.00    +0.000 C 
ATOM      7  N   UNL     1       6.183   5.048  17.367  0.00  0.00    +0.000 N 
ENDROOT
BRANCH   1  11
ATOM      8  C   UNL     1       5.894   3.662  12.966  0.00  0.00    +0.000 A 
ATOM      9  N   UNL     1       6.910   4.478  13.125  0.00  0.00    +0.000 NA
ATOM     10  N   UNL     1       6.846   4.912  14.431  0.00  0.00    +0.000 NA
ATOM     11  C   UNL     1       5.791   4.349  14.993  0.00  0.00    +0.000 A 
ATOM     12  O   UNL     1       5.132   3.541  14.090  0.00  0.00    +0.000 OA
BRANCH   8  14
ATOM     13  C   UNL     1       4.141   3.262  11.272  0.00  0.00    +0.000 C 
ATOM     14  C   UNL     1       5.508   2.846  11.795  0.00  0.00    +0.000 C 
ENDBRANCH   8  14
ENDBRANCH   1  11
BRANCH   4  15
ATOM     15  S   UNL     1       2.965   4.223  19.534  0.00  0.00    +0.000 S 
ATOM     16  O   UNL     1       1.824   3.809  18.742  0.00  0.00    +0.000 OA
ATOM     17  O   UNL     1       3.536   3.378  20.553  0.00  0.00    +0.000 OA
BRANCH  15  18
ATOM     18  N   UNL     1       2.607   5.680  20.297  0.00  0.00    +0.000 NA
ATOM     19  H   UNL     1       3.047   5.746  21.215  0.00  0.00    +0.000 HD
BRANCH  18  20
ATOM     20  C   UNL     1       2.643   6.901  19.491  0.00  0.00    +0.000 C 
BRANCH  20  21
ATOM     21  C   UNL     1       1.725   7.990  20.009  0.00  0.00    +0.000 A 
ATOM     22  C   UNL     1       1.194   7.859  21.307  0.00  0.00    +0.000 A 
ATOM     23  C   UNL     1       0.311   8.812  21.818  0.00  0.00    +0.000 A 
ATOM     24  C   UNL     1      -0.048   9.900  21.034  0.00  0.00    +0.000 A 
ATOM     25  F   UNL     1      -0.895  10.815  21.526  0.00  0.00    +0.000 F 
ATOM     26  C   UNL     1       0.444  10.048  19.746  0.00  0.00    +0.000 A 
ATOM     27  C   UNL     1       1.318   9.089  19.230  0.00  0.00    +0.000 A 
ATOM     28 CL   UNL     1       1.851   9.301  17.597  0.00  0.00    +0.000 Cl
ENDBRANCH  20  21
ENDBRANCH  18  20
ENDBRANCH  15  18
ENDBRANCH   4  15
BRANCH   7  29
ATOM     29  C   UNL     1       7.494   5.669  17.183  0.00  0.00    +0.000 C 
ATOM     30  C   UNL     1       7.478   7.186  17.285  0.00  0.00    +0.000 C 
ENDBRANCH   7  29
TORSDOF 7
ENDMDL
MODEL 4
REMARK VINA RESULT:      -7.2      4.396      6.217
REMARK  Name = 
REMARK  11 active torsions:
REMARK  status: ('A' for Active; 'I' for Inactive)
REMARK    1  A    between atoms: C_1  and  C_2
REMARK    2  A    between atoms: C_2  and  C_3
REMARK    3  A    between atoms: C_6  and  C_7
REMARK    4  A    between atoms: C_8  and  C_9
REMARK    5  A    between atoms: C_10  and  S_11
REMARK    6  A    between atoms: S_11  and  N_14
REMARK    7  A    between atoms: N_14  and  C_15
REMARK    8  A    between atoms: C_15  and  C_16
REMARK    9  A    between atoms: C_24  and  C_25
REMARK   10  A    between atoms: N_26  and  C_27
REMARK   11  A    between atoms: C_27  and  C_28
REMARK                            x       y       z     vdW  Elec       q    Type
REMARK                         _______ _______ _______ _____ _____    ______ ____
ROOT
ATOM      1  C   UNL     1       2.410   6.914  19.020  0.00  0.00    +0.000 A 
ATOM      2  C   UNL     1       2.155   8.251  18.703  0.00  0.00    +0.000 A 
ATOM      3  C   UNL     1       2.595   8.966  17.470  0.00  0.00    +0.000 C 
ATOM      4  C   UNL     1       1.386   8.813  19.787  0.00  0.00    +0.000 A 
ATOM      5  C   UNL     1       1.186   7.800  20.722  0.00  0.00    +0.000 A 
ATOM      6  C   UNL     1       0.424   7.774  22.011  0.00  0.00    +0.000 C 
ATOM      7  N   UNL     1       1.867   6.675  20.273  0.00  0.00    +0.000 N 
ENDROOT
BRANCH   1  11
ATOM      8  C   UNL     1       4.619   4.902  17.111  0.00  0.00    +0.000 A 
ATOM      9  N   UNL     1       3.529   4.182  16.985  0.00  0.00    +0.000 NA
ATOM     10  N   UNL     1       2.553   4.845  17.695  0.00  0.00    +0.000 NA
ATOM     11  C   UNL     1       3.100   5.925  18.225  0.00  0.00    +0.000 A 
ATOM     12  O   UNL     1       4.436   6.006  17.891  0.00  0.00    +0.000 OA
BRANCH   8  14
ATOM     13  C   UNL     1       6.045   5.427  15.163  0.00  0.00    +0.000 C 
ATOM     14  C   UNL     1       5.955   4.716  16.505  0.00  0.00    +0.000 C 
ENDBRANCH   8  14
ENDBRANCH   1  11
BRANCH   4  15
ATOM     15  S   UNL     1       0.796  10.470  19.852  0.00  0.00    +0.000 S 
ATOM     16  O   UNL     1       1.274  10.980  21.121  0.00  0.00    +0.000 OA
ATOM     17  O   UNL     1       1.175  11.068  18.595  0.00  0.00    +0.000 OA
BRANCH  15  18
ATOM     18  N   UNL     1      -0.887  10.458  19.862  0.00  0.00    +0.000 NA
ATOM     19  H   UNL     1      -1.259  10.164  20.766  0.00  0.00    +0.000 HD
BRANCH  18  20
ATOM     20  C   UNL     1      -1.583  11.577  19.227  0.00  0.00    +0.000 C 
BRANCH  20  21
ATOM     21  C   UNL     1      -2.407  11.168  18.023  0.00  0.00    +0.000 A 
ATOM     22  C   UNL     1      -1.767  10.473  16.977  0.00  0.00    +0.000 A 
ATOM     23  C   UNL     1      -2.468  10.109  15.827  0.00  0.00    +0.000 A 
ATOM     24  C   UNL     1      -3.813  10.436  15.714  0.00  0.00    +0.000 A 
ATOM     25  F   UNL     1      -4.485  10.084  14.610  0.00  0.00    +0.000 F 
ATOM     26  C   UNL     1      -4.467  11.134  16.719  0.00  0.00    +0.000 A 
ATOM     27  C   UNL     1      -3.763  11.510  17.864  0.00  0.00    +0.000 A 
ATOM     28 CL   UNL     1      -4.621  12.427  19.055  0.00  0.00    +0.000 Cl
ENDBRANCH  20  21
ENDBRANCH  18  20
ENDBRANCH  15  18
ENDBRANCH   4  15
BRANCH   7  29
ATOM     29  C   UNL     1       2.027   5.456  21.066  0.00  0.00    +0.000 C 
ATOM     30  C   UNL     1       1.097   4.326  20.655  0.00  0.00    +0.000 C 
ENDBRANCH   7  29
TORSDOF 7
ENDMDL
MODEL 5
REMARK VINA RESULT:      -7.2      5.952     10.389
REMARK  Name = 
REMARK  11 active torsions:
REMARK  status: ('A' for Active; 'I' for Inactive)
REMARK    1  A    between atoms: C_1  and  C_2
REMARK    2  A    between atoms: C_2  and  C_3
REMARK    3  A    between atoms: C_6  and  C_7
REMARK    4  A    between atoms: C_8  and  C_9
REMARK    5  A    between atoms: C_10  and  S_11
REMARK    6  A    between atoms: S_11  and  N_14
REMARK    7  A    between atoms: N_14  and  C_15
REMARK    8  A    between atoms: C_15  and  C_16
REMARK    9  A    between atoms: C_24  and  C_25
REMARK   10  A    between atoms: N_26  and  C_27
REMARK   11  A    between atoms: C_27  and  C_28
REMARK                            x       y       z     vdW  Elec       q    Type
REMARK                         _______ _______ _______ _____ _____    ______ ____
ROOT
ATOM      1  C   UNL     1      -1.467  11.784  20.485  0.00  0.00    +0.000 A 
ATOM      2  C   UNL     1      -0.880  10.917  21.410  0.00  0.00    +0.000 A 
ATOM      3  C   UNL     1      -1.043  10.964  22.892  0.00  0.00    +0.000 C 
ATOM      4  C   UNL     1      -0.088   9.966  20.669  0.00  0.00    +0.000 A 
ATOM      5  C   UNL     1      -0.227  10.274  19.318  0.00  0.00    +0.000 A 
ATOM      6  C   UNL     1       0.310   9.612  18.087  0.00  0.00    +0.000 C 
ATOM      7  N   UNL     1      -1.014  11.417  19.227  0.00  0.00    +0.000 N 
ENDROOT
BRANCH   1  11
ATOM      8  C   UNL     1      -3.186  14.761  21.353  0.00  0.00    +0.000 A 
ATOM      9  N   UNL     1      -4.210  14.049  20.946  0.00  0.00    +0.000 NA
ATOM     10  N   UNL     1      -3.693  12.831  20.558  0.00  0.00    +0.000 NA
ATOM     11  C   UNL     1      -2.385  12.871  20.739  0.00  0.00    +0.000 A 
ATOM     12  O   UNL     1      -2.000  14.097  21.238  0.00  0.00    +0.000 OA
BRANCH   8  14
ATOM     13  C   UNL     1      -4.555  16.638  22.194  0.00  0.00    +0.000 C 
ATOM     14  C   UNL     1      -3.149  16.116  21.946  0.00  0.00    +0.000 C 
ENDBRANCH   8  14
ENDBRANCH   1  11
BRANCH   4  15
ATOM     15  S   UNL     1       0.835   8.648  21.383  0.00  0.00    +0.000 S 
ATOM     16  O   UNL     1       1.737   9.296  22.314  0.00  0.00    +0.000 OA
ATOM     17  O   UNL     1      -0.141   7.677  21.813  0.00  0.00    +0.000 OA
BRANCH  15  18
ATOM     18  N   UNL     1       1.736   7.889  20.181  0.00  0.00    +0.000 NA
ATOM     19  H   UNL     1       2.229   8.563  19.594  0.00  0.00    +0.000 HD
BRANCH  18  20
ATOM     20  C   UNL     1       2.500   6.696  20.549  0.00  0.00    +0.000 C 
BRANCH  20  21
ATOM     21  C   UNL     1       1.970   5.425  19.917  0.00  0.00    +0.000 A 
ATOM     22  C   UNL     1       1.241   4.528  20.723  0.00  0.00    +0.000 A 
ATOM     23  C   UNL     1       0.766   3.324  20.203  0.00  0.00    +0.000 A 
ATOM     24  C   UNL     1       1.016   3.007  18.874  0.00  0.00    +0.000 A 
ATOM     25  F   UNL     1       0.558   1.851  18.376  0.00  0.00    +0.000 F 
ATOM     26  C   UNL     1       1.745   3.862  18.060  0.00  0.00    +0.000 A 
ATOM     27  C   UNL     1       2.232   5.061  18.583  0.00  0.00    +0.000 A 
ATOM     28 CL   UNL     1       3.182   6.055  17.532  0.00  0.00    +0.000 Cl
ENDBRANCH  20  21
ENDBRANCH  18  20
ENDBRANCH  15  18
ENDBRANCH   4  15
BRANCH   7  29
ATOM     29  C   UNL     1      -1.249  12.141  17.979  0.00  0.00    +0.000 C 
ATOM     30  C   UNL     1      -2.321  11.519  17.097  0.00  0.00    +0.000 C 
ENDBRANCH   7  29
TORSDOF 7
ENDMDL
MODEL 6
REMARK VINA RESULT:      -7.2      6.105     10.527
REMARK  Name = 
REMARK  11 active torsions:
REMARK  status: ('A' for Active; 'I' for Inactive)
REMARK    1  A    between atoms: C_1  and  C_2
REMARK    2  A    between atoms: C_2  and  C_3
REMARK    3  A    between atoms: C_6  and  C_7
REMARK    4  A    between atoms: C_8  and  C_9
REMARK    5  A    between atoms: C_10  and  S_11
REMARK    6  A    between atoms: S_11  and  N_14
REMARK    7  A    between atoms: N_14  and  C_15
REMARK    8  A    between atoms: C_15  and  C_16
REMARK    9  A    between atoms: C_24  and  C_25
REMARK   10  A    between atoms: N_26  and  C_27
REMARK   11  A    between atoms: C_27  and  C_28
REMARK                            x       y       z     vdW  Elec       q    Type
REMARK                         _______ _______ _______ _____ _____    ______ ____
ROOT
ATOM      1  C   UNL     1      -1.010  12.577  20.846  0.00  0.00    +0.000 A 
ATOM      2  C   UNL     1      -0.804  11.482  21.688  0.00  0.00    +0.000 A 
ATOM      3  C   UNL     1      -1.346  11.314  23.068  0.00  0.00    +0.000 C 
ATOM      4  C   UNL     1       0.030  10.542  20.979  0.00  0.00    +0.000 A 
ATOM      5  C   UNL     1       0.294  11.088  19.724  0.00  0.00    +0.000 A 
ATOM      6  C   UNL     1       1.049  10.552  18.548  0.00  0.00    +0.000 C 
ATOM      7  N   UNL     1      -0.290  12.348  19.684  0.00  0.00    +0.000 N 
ENDROOT
BRANCH   1  11
ATOM      8  C   UNL     1      -2.441  15.699  21.731  0.00  0.00    +0.000 A 
ATOM      9  N   UNL     1      -3.512  15.117  21.243  0.00  0.00    +0.000 NA
ATOM     10  N   UNL     1      -3.109  13.863  20.839  0.00  0.00    +0.000 NA
ATOM     11  C   UNL     1      -1.817  13.751  21.091  0.00  0.00    +0.000 A 
ATOM     12  O   UNL     1      -1.330  14.911  21.656  0.00  0.00    +0.000 OA
BRANCH   8  14
ATOM     13  C   UNL     1      -1.215  16.982  23.450  0.00  0.00    +0.000 C 
ATOM     14  C   UNL     1      -2.291  17.021  22.376  0.00  0.00    +0.000 C 
ENDBRANCH   8  14
ENDBRANCH   1  11
BRANCH   4  15
ATOM     15  S   UNL     1       0.557   8.985  21.609  0.00  0.00    +0.000 S 
ATOM     16  O   UNL     1       1.486   9.315  22.670  0.00  0.00    +0.000 OA
ATOM     17  O   UNL     1      -0.651   8.236  21.855  0.00  0.00    +0.000 OA
BRANCH  15  18
ATOM     18  N   UNL     1       1.375   8.148  20.400  0.00  0.00    +0.000 NA
ATOM     19  H   UNL     1       1.784   8.780  19.710  0.00  0.00    +0.000 HD
BRANCH  18  20
ATOM     20  C   UNL     1       2.218   7.020  20.799  0.00  0.00    +0.000 C 
BRANCH  20  21
ATOM     21  C   UNL     1       1.939   5.754  20.015  0.00  0.00    +0.000 A 
ATOM     22  C   UNL     1       1.274   4.696  20.664  0.00  0.00    +0.000 A 
ATOM     23  C   UNL     1       1.029   3.492  20.002  0.00  0.00    +0.000 A 
ATOM     24  C   UNL     1       1.446   3.338  18.686  0.00  0.00    +0.000 A 
ATOM     25  F   UNL     1       1.209   2.183  18.051  0.00  0.00    +0.000 F 
ATOM     26  C   UNL     1       2.118   4.356  18.025  0.00  0.00    +0.000 A 
ATOM     27  C   UNL     1       2.376   5.556  18.692  0.00  0.00    +0.000 A 
ATOM     28 CL   UNL     1       3.267   6.763  17.831  0.00  0.00    +0.000 Cl
ENDBRANCH  20  21
ENDBRANCH  18  20
ENDBRANCH  15  18
ENDBRANCH   4  15
BRANCH   7  29
ATOM     29  C   UNL     1      -0.092  13.297  18.588  0.00  0.00    +0.000 C 
ATOM     30  C   UNL     1       1.047  14.277  18.820  0.00  0.00    +0.000 C 
ENDBRANCH   7  29
TORSDOF 7
ENDMDL
MODEL 7
REMARK VINA RESULT:      -7.2      4.657      6.453
REMARK  Name = 
REMARK  11 active torsions:
REMARK  status: ('A' for Active; 'I' for Inactive)
REMARK    1  A    between atoms: C_1  and  C_2
REMARK    2  A    between atoms: C_2  and  C_3
REMARK    3  A    between atoms: C_6  and  C_7
REMARK    4  A    between atoms: C_8  and  C_9
REMARK    5  A    between atoms: C_10  and  S_11
REMARK    6  A    between atoms: S_11  and  N_14
REMARK    7  A    between atoms: N_14  and  C_15
REMARK    8  A    between atoms: C_15  and  C_16
REMARK    9  A    between atoms: C_24  and  C_25
REMARK   10  A    between atoms: N_26  and  C_27
REMARK   11  A    between atoms: C_27  and  C_28
REMARK                            x       y       z     vdW  Elec       q    Type
REMARK                         _______ _______ _______ _____ _____    ______ ____
ROOT
ATOM      1  C   UNL     1       2.465   6.935  18.957  0.00  0.00    +0.000 A 
ATOM      2  C   UNL     1       2.237   8.271  18.619  0.00  0.00    +0.000 A 
ATOM      3  C   UNL     1       2.717   8.967  17.391  0.00  0.00    +0.000 C 
ATOM      4  C   UNL     1       1.448   8.855  19.678  0.00  0.00    +0.000 A 
ATOM      5  C   UNL     1       1.211   7.854  20.618  0.00  0.00    +0.000 A 
ATOM      6  C   UNL     1       0.416   7.852  21.886  0.00  0.00    +0.000 C 
ATOM      7  N   UNL     1       1.888   6.715  20.197  0.00  0.00    +0.000 N 
ENDROOT
BRANCH   1  11
ATOM      8  C   UNL     1       4.698   4.870  17.133  0.00  0.00    +0.000 A 
ATOM      9  N   UNL     1       3.600   4.170  16.973  0.00  0.00    +0.000 NA
ATOM     10  N   UNL     1       2.613   4.856  17.647  0.00  0.00    +0.000 NA
ATOM     11  C   UNL     1       3.163   5.928  18.190  0.00  0.00    +0.000 A 
ATOM     12  O   UNL     1       4.510   5.982  17.900  0.00  0.00    +0.000 OA
BRANCH   8  14
ATOM     13  C   UNL     1       6.009   4.629  15.052  0.00  0.00    +0.000 C 
ATOM     14  C   UNL     1       6.050   4.656  16.572  0.00  0.00    +0.000 C 
ENDBRANCH   8  14
ENDBRANCH   1  11
BRANCH   4  15
ATOM     15  S   UNL     1       0.878  10.519  19.710  0.00  0.00    +0.000 S 
ATOM     16  O   UNL     1       1.143  10.971  21.061  0.00  0.00    +0.000 OA
ATOM     17  O   UNL     1       1.472  11.157  18.560  0.00  0.00    +0.000 OA
BRANCH  15  18
ATOM     18  N   UNL     1      -0.782  10.541  19.437  0.00  0.00    +0.000 NA
ATOM     19  H   UNL     1      -1.240  11.301  19.941  0.00  0.00    +0.000 HD
BRANCH  18  20
ATOM     20  C   UNL     1      -1.254  10.319  18.069  0.00  0.00    +0.000 C 
BRANCH  20  21
ATOM     21  C   UNL     1      -2.630  10.897  17.806  0.00  0.00    +0.000 A 
ATOM     22  C   UNL     1      -3.291  11.561  18.858  0.00  0.00    +0.000 A 
ATOM     23  C   UNL     1      -4.575  12.076  18.682  0.00  0.00    +0.000 A 
ATOM     24  C   UNL     1      -5.209  11.930  17.455  0.00  0.00    +0.000 A 
ATOM     25  F   UNL     1      -6.442  12.426  17.288  0.00  0.00    +0.000 F 
ATOM     26  C   UNL     1      -4.591  11.266  16.405  0.00  0.00    +0.000 A 
ATOM     27  C   UNL     1      -3.310  10.740  16.584  0.00  0.00    +0.000 A 
ATOM     28 CL   UNL     1      -2.618   9.874  15.256  0.00  0.00    +0.000 Cl
ENDBRANCH  20  21
ENDBRANCH  18  20
ENDBRANCH  15  18
ENDBRANCH   4  15
BRANCH   7  29
ATOM     29  C   UNL     1       2.012   5.503  21.007  0.00  0.00    +0.000 C 
ATOM     30  C   UNL     1       1.067   4.386  20.593  0.00  0.00    +0.000 C 
ENDBRANCH   7  29
TORSDOF 7
ENDMDL
MODEL 8
REMARK VINA RESULT:      -7.2      5.732     10.087
REMARK  Name = 
REMARK  11 active torsions:
REMARK  status: ('A' for Active; 'I' for Inactive)
REMARK    1  A    between atoms: C_1  and  C_2
REMARK    2  A    between atoms: C_2  and  C_3
REMARK    3  A    between atoms: C_6  and  C_7
REMARK    4  A    between atoms: C_8  and  C_9
REMARK    5  A    between atoms: C_10  and  S_11
REMARK    6  A    between atoms: S_11  and  N_14
REMARK    7  A    between atoms: N_14  and  C_15
REMARK    8  A    between atoms: C_15  and  C_16
REMARK    9  A    between atoms: C_24  and  C_25
REMARK   10  A    between atoms: N_26  and  C_27
REMARK   11  A    between atoms: C_27  and  C_28
REMARK                            x       y       z     vdW  Elec       q    Type
REMARK                         _______ _______ _______ _____ _____    ______ ____
ROOT
ATOM      1  C   UNL     1       0.724  12.493  20.819  0.00  0.00    +0.000 A 
ATOM      2  C   UNL     1       1.219  12.025  19.600  0.00  0.00    +0.000 A 
ATOM      3  C   UNL     1       1.904  12.838  18.554  0.00  0.00    +0.000 C 
ATOM      4  C   UNL     1       0.947  10.609  19.538  0.00  0.00    +0.000 A 
ATOM      5  C   UNL     1       0.308  10.258  20.724  0.00  0.00    +0.000 A 
ATOM      6  C   UNL     1      -0.161   8.935  21.246  0.00  0.00    +0.000 C 
ATOM      7  N   UNL     1       0.123  11.422  21.462  0.00  0.00    +0.000 N 
ENDROOT
BRANCH   1  11
ATOM      8  C   UNL     1       0.401  15.902  21.740  0.00  0.00    +0.000 A 
ATOM      9  N   UNL     1       1.477  15.607  22.432  0.00  0.00    +0.000 NA
ATOM     10  N   UNL     1       1.736  14.278  22.179  0.00  0.00    +0.000 NA
ATOM     11  C   UNL     1       0.801  13.832  21.359  0.00  0.00    +0.000 A 
ATOM     12  O   UNL     1      -0.094  14.835  21.051  0.00  0.00    +0.000 OA
BRANCH   8  14
ATOM     13  C   UNL     1      -1.261  17.145  20.400  0.00  0.00    +0.000 C 
ATOM     14  C   UNL     1      -0.291  17.198  21.570  0.00  0.00    +0.000 C 
ENDBRANCH   8  14
ENDBRANCH   1  11
BRANCH   4  15
ATOM     15  S   UNL     1       1.398   9.553  18.204  0.00  0.00    +0.000 S 
ATOM     16  O   UNL     1       0.144   9.222  17.559  0.00  0.00    +0.000 OA
ATOM     17  O   UNL     1       2.459  10.238  17.506  0.00  0.00    +0.000 OA
BRANCH  15  18
ATOM     18  N   UNL     1       2.089   8.148  18.820  0.00  0.00    +0.000 NA
ATOM     19  H   UNL     1       1.382   7.493  19.157  0.00  0.00    +0.000 HD
BRANCH  18  20
ATOM     20  C   UNL     1       3.200   7.550  18.079  0.00  0.00    +0.000 C 
BRANCH  20  21
ATOM     21  C   UNL     1       3.021   6.067  17.821  0.00  0.00    +0.000 A 
ATOM     22  C   UNL     1       1.790   5.471  18.158  0.00  0.00    +0.000 A 
ATOM     23  C   UNL     1       1.586   4.102  17.980  0.00  0.00    +0.000 A 
ATOM     24  C   UNL     1       2.611   3.320  17.464  0.00  0.00    +0.000 A 
ATOM     25  F   UNL     1       2.413   2.006  17.292  0.00  0.00    +0.000 F 
ATOM     26  C   UNL     1       3.840   3.874  17.137  0.00  0.00    +0.000 A 
ATOM     27  C   UNL     1       4.049   5.242  17.327  0.00  0.00    +0.000 A 
ATOM     28 CL   UNL     1       5.621   5.861  16.954  0.00  0.00    +0.000 Cl
ENDBRANCH  20  21
ENDBRANCH  18  20
ENDBRANCH  15  18
ENDBRANCH   4  15
BRANCH   7  29
ATOM     29  C   UNL     1      -0.660  11.482  22.696  0.00  0.00    +0.000 C 
ATOM     30  C   UNL     1      -2.091  11.956  22.495  0.00  0.00    +0.000 C 
ENDBRANCH   7  29
TORSDOF 7
ENDMDL
MODEL 9
REMARK VINA RESULT:      -7.1      6.611     11.090
REMARK  Name = 
REMARK  11 active torsions:
REMARK  status: ('A' for Active; 'I' for Inactive)
REMARK    1  A    between atoms: C_1  and  C_2
REMARK    2  A    between atoms: C_2  and  C_3
REMARK    3  A    between atoms: C_6  and  C_7
REMARK    4  A    between atoms: C_8  and  C_9
REMARK    5  A    between atoms: C_10  and  S_11
REMARK    6  A    between atoms: S_11  and  N_14
REMARK    7  A    between atoms: N_14  and  C_15
REMARK    8  A    between atoms: C_15  and  C_16
REMARK    9  A    between atoms: C_24  and  C_25
REMARK   10  A    between atoms: N_26  and  C_27
REMARK   11  A    between atoms: C_27  and  C_28
REMARK                            x       y       z     vdW  Elec       q    Type
REMARK                         _______ _______ _______ _____ _____    ______ ____
ROOT
ATOM      1  C   UNL     1      -2.852  12.236  20.304  0.00  0.00    +0.000 A 
ATOM      2  C   UNL     1      -1.561  11.997  20.782  0.00  0.00    +0.000 A 
ATOM      3  C   UNL     1      -1.001  12.462  22.084  0.00  0.00    +0.000 C 
ATOM      4  C   UNL     1      -0.869  11.216  19.785  0.00  0.00    +0.000 A 
ATOM      5  C   UNL     1      -1.762  10.994  18.740  0.00  0.00    +0.000 A 
ATOM      6  C   UNL     1      -1.630  10.211  17.470  0.00  0.00    +0.000 C 
ATOM      7  N   UNL     1      -2.937  11.672  19.041  0.00  0.00    +0.000 N 
ENDROOT
BRANCH   1  11
ATOM      8  C   UNL     1      -5.567  13.382  22.275  0.00  0.00    +0.000 A 
ATOM      9  N   UNL     1      -5.450  14.415  21.473  0.00  0.00    +0.000 NA
ATOM     10  N   UNL     1      -4.404  14.119  20.627  0.00  0.00    +0.000 NA
ATOM     11  C   UNL     1      -3.933  12.931  20.965  0.00  0.00    +0.000 A 
ATOM     12  O   UNL     1      -4.639  12.414  22.031  0.00  0.00    +0.000 OA
BRANCH   8  14
ATOM     13  C   UNL     1      -7.902  12.715  22.730  0.00  0.00    +0.000 C 
ATOM     14  C   UNL     1      -6.564  13.112  23.334  0.00  0.00    +0.000 C 
ENDBRANCH   8  14
ENDBRANCH   1  11
BRANCH   4  15
ATOM     15  S   UNL     1       0.787  10.638  19.928  0.00  0.00    +0.000 S 
ATOM     16  O   UNL     1       1.537  11.438  18.981  0.00  0.00    +0.000 OA
ATOM     17  O   UNL     1       1.083  10.647  21.340  0.00  0.00    +0.000 OA
BRANCH  15  18
ATOM     18  N   UNL     1       0.852   9.023  19.458  0.00  0.00    +0.000 NA
ATOM     19  H   UNL     1       0.837   8.922  18.443  0.00  0.00    +0.000 HD
BRANCH  18  20
ATOM     20  C   UNL     1       1.782   8.142  20.165  0.00  0.00    +0.000 C 
BRANCH  20  21
ATOM     21  C   UNL     1       2.491   7.161  19.254  0.00  0.00    +0.000 A 
ATOM     22  C   UNL     1       3.223   7.668  18.162  0.00  0.00    +0.000 A 
ATOM     23  C   UNL     1       3.860   6.807  17.268  0.00  0.00    +0.000 A 
ATOM     24  C   UNL     1       3.771   5.434  17.458  0.00  0.00    +0.000 A 
ATOM     25  F   UNL     1       4.385   4.609  16.599  0.00  0.00    +0.000 F 
ATOM     26  C   UNL     1       3.045   4.904  18.514  0.00  0.00    +0.000 A 
ATOM     27  C   UNL     1       2.396   5.764  19.402  0.00  0.00    +0.000 A 
ATOM     28 CL   UNL     1       1.460   5.039  20.664  0.00  0.00    +0.000 Cl
ENDBRANCH  20  21
ENDBRANCH  18  20
ENDBRANCH  15  18
ENDBRANCH   4  15
BRANCH   7  29
ATOM     29  C   UNL     1      -4.054  11.810  18.106  0.00  0.00    +0.000 C 
ATOM     30  C   UNL     1      -5.173  10.806  18.330  0.00  0.00    +0.000 C 
ENDBRANCH   7  29
TORSDOF 7
ENDMDL
