MODEL 1
REMARK VINA RESULT:      -7.5      0.000      0.000
REMARK  Name = 
REMARK  11 active torsions:
REMARK  status: ('A' for Active; 'I' for Inactive)
REMARK    1  A    between atoms: C_1  and  O_2
REMARK    2  A    between atoms: O_2  and  C_3
REMARK    3  A    between atoms: C_10  and  C_11
REMARK    4  A    between atoms: C_11  and  C_13
REMARK    5  A    between atoms: C_15  and  C_16
REMARK    6  A    between atoms: C_16  and  C_17
REMARK    7  A    between atoms: C_17  and  O_19
REMARK    8  A    between atoms: O_19  and  C_20
REMARK    9  A    between atoms: C_20  and  C_21
REMARK   10  A    between atoms: C_20  and  C_22
REMARK   11  A    between atoms: C_20  and  C_23
REMARK                            x       y       z     vdW  Elec       q    Type
REMARK                         _______ _______ _______ _____ _____    ______ ____
ROOT
ATOM      1  C   UNL     1       1.955  12.720  18.777  0.00  0.00    +0.000 C 
ATOM      2  O   UNL     1       2.039  12.779  19.996  0.00  0.00    +0.000 OA
ATOM      3  N   UNL     1       1.564  11.642  18.035  0.00  0.00    +0.000 N 
ATOM      4  C   UNL     1       1.535  10.392  18.593  0.00  0.00    +0.000 A 
ATOM      5  N   UNL     1       2.005   9.320  18.003  0.00  0.00    +0.000 NA
ATOM      6  C   UNL     1       1.921   8.325  18.944  0.00  0.00    +0.000 A 
ATOM      7  C   UNL     1       2.431   7.019  18.910  0.00  0.00    +0.000 A 
ATOM      8  C   UNL     1       2.182   6.170  20.000  0.00  0.00    +0.000 A 
ATOM      9  C   UNL     1       1.417   6.623  21.090  0.00  0.00    +0.000 A 
ATOM     10  C   UNL     1       0.914   7.932  21.143  0.00  0.00    +0.000 A 
ATOM     11  C   UNL     1       1.227   8.762  20.068  0.00  0.00    +0.000 A 
ATOM     12  N   UNL     1       1.024  10.102  19.832  0.00  0.00    +0.000 N 
ATOM     13  H   UNL     1       1.829  11.683  17.063  0.00  0.00    +0.000 HD
ATOM     14  H   UNL     1       0.599  10.771  20.459  0.00  0.00    +0.000 HD
ENDROOT
BRANCH   1  16
ATOM     15  C   UNL     1       3.411  14.524  18.363  0.00  0.00    +0.000 C 
ATOM     16  O   UNL     1       2.327  13.706  17.920  0.00  0.00    +0.000 OA
ENDBRANCH   1  16
BRANCH   8  17
ATOM     17  C   UNL     1       2.808   4.810  19.989  0.00  0.00    +0.000 C 
ATOM     18  O   UNL     1       2.795   4.180  21.045  0.00  0.00    +0.000 OA
BRANCH  17  19
ATOM     19  C   UNL     1       3.386   4.307  18.750  0.00  0.00    +0.000 A 
ATOM     20  C   UNL     1       4.680   4.417  18.283  0.00  0.00    +0.000 A 
ATOM     21  C   UNL     1       4.848   3.935  16.940  0.00  0.00    +0.000 A 
ATOM     22  C   UNL     1       3.682   3.342  16.495  0.00  0.00    +0.000 A 
ATOM     23  S   UNL     1       2.416   3.432  17.646  0.00  0.00    +0.000 S 
BRANCH  21  24
ATOM     24  C   UNL     1       6.113   4.123  16.135  0.00  0.00    +0.000 C 
BRANCH  24  25
ATOM     25  C   UNL     1       6.299   5.592  15.767  0.00  0.00    +0.000 C 
ATOM     26  O   UNL     1       5.551   6.218  15.029  0.00  0.00    +0.000 OA
BRANCH  25  27
ATOM     27  O   UNL     1       7.413   6.113  16.367  0.00  0.00    +0.000 OA
BRANCH  27  28
ATOM     28  C   UNL     1       7.239   6.887  17.588  0.00  0.00    +0.000 C 
ATOM     29  C   UNL     1       7.838   6.164  18.804  0.00  0.00    +0.000 C 
ATOM     30  C   UNL     1       8.017   8.201  17.396  0.00  0.00    +0.000 C 
ATOM     31  C   UNL     1       5.760   7.250  17.793  0.00  0.00    +0.000 C 
ENDBRANCH  27  28
ENDBRANCH  25  27
ENDBRANCH  24  25
ENDBRANCH  21  24
ENDBRANCH  17  19
ENDBRANCH   8  17
TORSDOF 7
ENDMDL
MODEL 2
REMARK VINA RESULT:      -7.2      1.877      2.572
REMARK  Name = 
REMARK  11 active torsions:
REMARK  status: ('A' for Active; 'I' for Inactive)
REMARK    1  A    between atoms: C_1  and  O_2
REMARK    2  A    between atoms: O_2  and  C_3
REMARK    3  A    between atoms: C_10  and  C_11
REMARK    4  A    between atoms: C_11  and  C_13
REMARK    5  A    between atoms: C_15  and  C_16
REMARK    6  A    between atoms: C_16  and  C_17
REMARK    7  A    between atoms: C_17  and  O_19
REMARK    8  A    between atoms: O_19  and  C_20
REMARK    9  A    between atoms: C_20  and  C_21
REMARK   10  A    between atoms: C_20  and  C_22
REMARK   11  A    between atoms: C_20  and  C_23
REMARK                            x       y       z     vdW  Elec       q    Type
REMARK                         _______ _______ _______ _____ _____    ______ ____
ROOT
ATOM      1  C   UNL     1      -1.567  12.281  20.466  0.00  0.00    +0.000 C 
ATOM      2  O   UNL     1      -1.737  12.122  19.265  0.00  0.00    +0.000 OA
ATOM      3  N   UNL     1      -0.565  11.752  21.229  0.00  0.00    +0.000 N 
ATOM      4  C   UNL     1       0.180  10.703  20.760  0.00  0.00    +0.000 A 
ATOM      5  N   UNL     1       0.484   9.648  21.477  0.00  0.00    +0.000 NA
ATOM      6  C   UNL     1       1.099   8.786  20.605  0.00  0.00    +0.000 A 
ATOM      7  C   UNL     1       1.481   7.449  20.792  0.00  0.00    +0.000 A 
ATOM      8  C   UNL     1       2.131   6.782  19.742  0.00  0.00    +0.000 A 
ATOM      9  C   UNL     1       2.407   7.453  18.539  0.00  0.00    +0.000 A 
ATOM     10  C   UNL     1       2.016   8.786  18.333  0.00  0.00    +0.000 A 
ATOM     11  C   UNL     1       1.326   9.399  19.377  0.00  0.00    +0.000 A 
ATOM     12  N   UNL     1       0.693  10.615  19.492  0.00  0.00    +0.000 N 
ATOM     13  H   UNL     1      -0.748  11.753  22.221  0.00  0.00    +0.000 HD
ATOM     14  H   UNL     1       0.595  11.318  18.773  0.00  0.00    +0.000 HD
ENDROOT
BRANCH   1  16
ATOM     15  C   UNL     1      -2.600  14.336  20.976  0.00  0.00    +0.000 C 
ATOM     16  O   UNL     1      -2.411  12.956  21.291  0.00  0.00    +0.000 OA
ENDBRANCH   1  16
BRANCH   8  17
ATOM     17  C   UNL     1       2.453   5.330  19.925  0.00  0.00    +0.000 C 
ATOM     18  O   UNL     1       2.113   4.812  20.988  0.00  0.00    +0.000 OA
BRANCH  17  19
ATOM     19  C   UNL     1       3.135   4.616  18.854  0.00  0.00    +0.000 A 
ATOM     20  C   UNL     1       4.431   4.756  18.398  0.00  0.00    +0.000 A 
ATOM     21  C   UNL     1       4.707   3.991  17.213  0.00  0.00    +0.000 A 
ATOM     22  C   UNL     1       3.630   3.183  16.903  0.00  0.00    +0.000 A 
ATOM     23  S   UNL     1       2.311   3.401  17.975  0.00  0.00    +0.000 S 
BRANCH  21  24
ATOM     24  C   UNL     1       5.980   4.123  16.411  0.00  0.00    +0.000 C 
BRANCH  24  25
ATOM     25  C   UNL     1       6.183   5.568  15.963  0.00  0.00    +0.000 C 
ATOM     26  O   UNL     1       5.402   6.186  15.254  0.00  0.00    +0.000 OA
BRANCH  25  27
ATOM     27  O   UNL     1       7.354   6.076  16.456  0.00  0.00    +0.000 OA
BRANCH  27  28
ATOM     28  C   UNL     1       7.292   6.929  17.636  0.00  0.00    +0.000 C 
ATOM     29  C   UNL     1       8.167   8.181  17.473  0.00  0.00    +0.000 C 
ATOM     30  C   UNL     1       5.831   7.394  17.770  0.00  0.00    +0.000 C 
ATOM     31  C   UNL     1       7.642   6.131  18.900  0.00  0.00    +0.000 C 
ENDBRANCH  27  28
ENDBRANCH  25  27
ENDBRANCH  24  25
ENDBRANCH  21  24
ENDBRANCH  17  19
ENDBRANCH   8  17
TORSDOF 7
ENDMDL
MODEL 3
REMARK VINA RESULT:      -7.2      2.800      4.602
REMARK  Name = 
REMARK  11 active torsions:
REMARK  status: ('A' for Active; 'I' for Inactive)
REMARK    1  A    between atoms: C_1  and  O_2
REMARK    2  A    between atoms: O_2  and  C_3
REMARK    3  A    between atoms: C_10  and  C_11
REMARK    4  A    between atoms: C_11  and  C_13
REMARK    5  A    between atoms: C_15  and  C_16
REMARK    6  A    between atoms: C_16  and  C_17
REMARK    7  A    between atoms: C_17  and  O_19
REMARK    8  A    between atoms: O_19  and  C_20
REMARK    9  A    between atoms: C_20  and  C_21
REMARK   10  A    between atoms: C_20  and  C_22
REMARK   11  A    between atoms: C_20  and  C_23
REMARK                            x       y       z     vdW  Elec       q    Type
REMARK                         _______ _______ _______ _____ _____    ______ ____
ROOT
ATOM      1  C   UNL     1      -1.102  12.085  22.233  0.00  0.00    +0.000 C 
ATOM      2  O   UNL     1      -0.367  11.662  23.115  0.00  0.00    +0.000 OA
ATOM      3  N   UNL     1      -1.360  11.492  21.029  0.00  0.00    +0.000 N 
ATOM      4  C   UNL     1      -0.545  10.499  20.559  0.00  0.00    +0.000 A 
ATOM      5  N   UNL     1      -0.109  10.438  19.323  0.00  0.00    +0.000 NA
ATOM      6  C   UNL     1       0.782   9.395  19.307  0.00  0.00    +0.000 A 
ATOM      7  C   UNL     1       1.662   8.989  18.293  0.00  0.00    +0.000 A 
ATOM      8  C   UNL     1       2.462   7.856  18.510  0.00  0.00    +0.000 A 
ATOM      9  C   UNL     1       2.360   7.137  19.713  0.00  0.00    +0.000 A 
ATOM     10  C   UNL     1       1.495   7.542  20.742  0.00  0.00    +0.000 A 
ATOM     11  C   UNL     1       0.756   8.701  20.512  0.00  0.00    +0.000 A 
ATOM     12  N   UNL     1      -0.075   9.453  21.310  0.00  0.00    +0.000 N 
ATOM     13  H   UNL     1      -1.749  12.110  20.333  0.00  0.00    +0.000 HD
ATOM     14  H   UNL     1      -0.292   9.290  22.284  0.00  0.00    +0.000 HD
ENDROOT
BRANCH   1  16
ATOM     15  C   UNL     1      -0.931  14.397  22.645  0.00  0.00    +0.000 C 
ATOM     16  O   UNL     1      -1.738  13.285  22.255  0.00  0.00    +0.000 OA
ENDBRANCH   1  16
BRANCH   8  17
ATOM     17  C   UNL     1       3.458   7.487  17.455  0.00  0.00    +0.000 C 
ATOM     18  O   UNL     1       3.697   8.331  16.592  0.00  0.00    +0.000 OA
BRANCH  17  19
ATOM     19  C   UNL     1       4.089   6.175  17.503  0.00  0.00    +0.000 A 
ATOM     20  C   UNL     1       3.502   4.925  17.519  0.00  0.00    +0.000 A 
ATOM     21  C   UNL     1       4.438   3.855  17.733  0.00  0.00    +0.000 A 
ATOM     22  C   UNL     1       5.732   4.343  17.729  0.00  0.00    +0.000 A 
ATOM     23  S   UNL     1       5.794   6.045  17.539  0.00  0.00    +0.000 S 
BRANCH  21  24
ATOM     24  C   UNL     1       4.029   2.424  17.987  0.00  0.00    +0.000 C 
BRANCH  24  25
ATOM     25  C   UNL     1       3.801   2.188  19.477  0.00  0.00    +0.000 C 
ATOM     26  O   UNL     1       4.697   2.069  20.301  0.00  0.00    +0.000 OA
BRANCH  25  27
ATOM     27  O   UNL     1       2.465   2.123  19.767  0.00  0.00    +0.000 OA
BRANCH  27  28
ATOM     28  C   UNL     1       1.908   3.118  20.673  0.00  0.00    +0.000 C 
ATOM     29  C   UNL     1       2.917   4.239  20.968  0.00  0.00    +0.000 C 
ATOM     30  C   UNL     1       0.705   3.750  19.950  0.00  0.00    +0.000 C 
ATOM     31  C   UNL     1       1.381   2.452  21.953  0.00  0.00    +0.000 C 
ENDBRANCH  27  28
ENDBRANCH  25  27
ENDBRANCH  24  25
ENDBRANCH  21  24
ENDBRANCH  17  19
ENDBRANCH   8  17
TORSDOF 7
ENDMDL
MODEL 4
REMARK VINA RESULT:      -7.1      1.885      2.721
REMARK  Name = 
REMARK  11 active torsions:
REMARK  status: ('A' for Active; 'I' for Inactive)
REMARK    1  A    between atoms: C_1  and  O_2
REMARK    2  A    between atoms: O_2  and  C_3
REMARK    3  A    between atoms: C_10  and  C_11
REMARK    4  A    between atoms: C_11  and  C_13
REMARK    5  A    between atoms: C_15  and  C_16
REMARK    6  A    between atoms: C_16  and  C_17
REMARK    7  A    between atoms: C_17  and  O_19
REMARK    8  A    between atoms: O_19  and  C_20
REMARK    9  A    between atoms: C_20  and  C_21
REMARK   10  A    between atoms: C_20  and  C_22
REMARK   11  A    between atoms: C_20  and  C_23
REMARK                            x       y       z     vdW  Elec       q    Type
REMARK                         _______ _______ _______ _____ _____    ______ ____
ROOT
ATOM      1  C   UNL     1      -0.892  11.931  21.451  0.00  0.00    +0.000 C 
ATOM      2  O   UNL     1      -1.353  11.881  20.319  0.00  0.00    +0.000 OA
ATOM      3  N   UNL     1       0.226  11.292  21.908  0.00  0.00    +0.000 N 
ATOM      4  C   UNL     1       0.767  10.254  21.199  0.00  0.00    +0.000 A 
ATOM      5  N   UNL     1       1.164   9.129  21.744  0.00  0.00    +0.000 NA
ATOM      6  C   UNL     1       1.495   8.315  20.690  0.00  0.00    +0.000 A 
ATOM      7  C   UNL     1       1.822   6.952  20.684  0.00  0.00    +0.000 A 
ATOM      8  C   UNL     1       2.157   6.345  19.463  0.00  0.00    +0.000 A 
ATOM      9  C   UNL     1       2.182   7.103  18.279  0.00  0.00    +0.000 A 
ATOM     10  C   UNL     1       1.841   8.464  18.270  0.00  0.00    +0.000 A 
ATOM     11  C   UNL     1       1.462   9.019  19.491  0.00  0.00    +0.000 A 
ATOM     12  N   UNL     1       0.956  10.249  19.841  0.00  0.00    +0.000 N 
ATOM     13  H   UNL     1       0.286  11.219  22.912  0.00  0.00    +0.000 HD
ATOM     14  H   UNL     1       0.735  11.014  19.219  0.00  0.00    +0.000 HD
ENDROOT
BRANCH   1  16
ATOM     15  C   UNL     1      -2.851  12.281  22.711  0.00  0.00    +0.000 C 
ATOM     16  O   UNL     1      -1.468  12.572  22.501  0.00  0.00    +0.000 OA
ENDBRANCH   1  16
BRANCH   8  17
ATOM     17  C   UNL     1       2.418   4.871  19.459  0.00  0.00    +0.000 C 
ATOM     18  O   UNL     1       1.883   4.206  20.346  0.00  0.00    +0.000 OA
BRANCH  17  19
ATOM     19  C   UNL     1       3.271   4.305  18.423  0.00  0.00    +0.000 A 
ATOM     20  C   UNL     1       4.602   4.558  18.153  0.00  0.00    +0.000 A 
ATOM     21  C   UNL     1       5.071   3.932  16.947  0.00  0.00    +0.000 A 
ATOM     22  C   UNL     1       4.094   3.105  16.426  0.00  0.00    +0.000 A 
ATOM     23  S   UNL     1       2.642   3.145  17.334  0.00  0.00    +0.000 S 
BRANCH  21  24
ATOM     24  C   UNL     1       6.422   4.211  16.331  0.00  0.00    +0.000 C 
BRANCH  24  25
ATOM     25  C   UNL     1       6.521   5.670  15.897  0.00  0.00    +0.000 C 
ATOM     26  O   UNL     1       5.750   6.211  15.117  0.00  0.00    +0.000 OA
BRANCH  25  27
ATOM     27  O   UNL     1       7.587   6.290  16.491  0.00  0.00    +0.000 OA
BRANCH  27  28
ATOM     28  C   UNL     1       7.341   7.093  17.681  0.00  0.00    +0.000 C 
ATOM     29  C   UNL     1       5.838   7.316  17.910  0.00  0.00    +0.000 C 
ATOM     30  C   UNL     1       7.883   6.291  18.877  0.00  0.00    +0.000 C 
ATOM     31  C   UNL     1       8.125   8.412  17.616  0.00  0.00    +0.000 C 
ENDBRANCH  27  28
ENDBRANCH  25  27
ENDBRANCH  24  25
ENDBRANCH  21  24
ENDBRANCH  17  19
ENDBRANCH   8  17
TORSDOF 7
ENDMDL
MODEL 5
REMARK VINA RESULT:      -6.9      4.670      6.484
REMARK  Name = 
REMARK  11 active torsions:
REMARK  status: ('A' for Active; 'I' for Inactive)
REMARK    1  A    between atoms: C_1  and  O_2
REMARK    2  A    between atoms: O_2  and  C_3
REMARK    3  A    between atoms: C_10  and  C_11
REMARK    4  A    between atoms: C_11  and  C_13
REMARK    5  A    between atoms: C_15  and  C_16
REMARK    6  A    between atoms: C_16  and  C_17
REMARK    7  A    between atoms: C_17  and  O_19
REMARK    8  A    between atoms: O_19  and  C_20
REMARK    9  A    between atoms: C_20  and  C_21
REMARK   10  A    between atoms: C_20  and  C_22
REMARK   11  A    between atoms: C_20  and  C_23
REMARK                            x       y       z     vdW  Elec       q    Type
REMARK                         _______ _______ _______ _____ _____    ______ ____
ROOT
ATOM      1  C   UNL     1      -6.251  12.746  21.313  0.00  0.00    +0.000 C 
ATOM      2  O   UNL     1      -6.489  11.562  21.114  0.00  0.00    +0.000 OA
ATOM      3  N   UNL     1      -5.272  13.493  20.722  0.00  0.00    +0.000 N 
ATOM      4  C   UNL     1      -4.235  12.884  20.069  0.00  0.00    +0.000 A 
ATOM      5  N   UNL     1      -2.980  13.236  20.207  0.00  0.00    +0.000 NA
ATOM      6  C   UNL     1      -2.264  12.295  19.511  0.00  0.00    +0.000 A 
ATOM      7  C   UNL     1      -0.878  12.089  19.458  0.00  0.00    +0.000 A 
ATOM      8  C   UNL     1      -0.381  11.063  18.637  0.00  0.00    +0.000 A 
ATOM      9  C   UNL     1      -1.261  10.279  17.872  0.00  0.00    +0.000 A 
ATOM     10  C   UNL     1      -2.651  10.465  17.929  0.00  0.00    +0.000 A 
ATOM     11  C   UNL     1      -3.111  11.456  18.795  0.00  0.00    +0.000 A 
ATOM     12  N   UNL     1      -4.371  11.832  19.200  0.00  0.00    +0.000 N 
ATOM     13  H   UNL     1      -5.044  14.347  21.210  0.00  0.00    +0.000 HD
ATOM     14  H   UNL     1      -5.247  11.404  18.934  0.00  0.00    +0.000 HD
ENDROOT
BRANCH   1  16
ATOM     15  C   UNL     1      -6.076  14.577  22.784  0.00  0.00    +0.000 C 
ATOM     16  O   UNL     1      -6.871  13.522  22.240  0.00  0.00    +0.000 OA
ENDBRANCH   1  16
BRANCH   8  17
ATOM     17  C   UNL     1       1.093  10.798  18.658  0.00  0.00    +0.000 C 
ATOM     18  O   UNL     1       1.836  11.756  18.451  0.00  0.00    +0.000 OA
BRANCH  17  19
ATOM     19  C   UNL     1       1.566   9.446  18.924  0.00  0.00    +0.000 A 
ATOM     20  C   UNL     1       2.316   8.611  18.121  0.00  0.00    +0.000 A 
ATOM     21  C   UNL     1       2.458   7.282  18.650  0.00  0.00    +0.000 A 
ATOM     22  C   UNL     1       1.916   7.212  19.920  0.00  0.00    +0.000 A 
ATOM     23  S   UNL     1       1.204   8.690  20.415  0.00  0.00    +0.000 S 
BRANCH  21  24
ATOM     24  C   UNL     1       3.061   6.133  17.876  0.00  0.00    +0.000 C 
BRANCH  24  25
ATOM     25  C   UNL     1       2.215   4.874  18.041  0.00  0.00    +0.000 C 
ATOM     26  O   UNL     1       1.229   4.613  17.366  0.00  0.00    +0.000 OA
BRANCH  25  27
ATOM     27  O   UNL     1       2.703   4.080  19.043  0.00  0.00    +0.000 OA
BRANCH  27  28
ATOM     28  C   UNL     1       3.462   2.893  18.673  0.00  0.00    +0.000 C 
ATOM     29  C   UNL     1       2.543   1.778  18.150  0.00  0.00    +0.000 C 
ATOM     30  C   UNL     1       4.398   3.305  17.524  0.00  0.00    +0.000 C 
ATOM     31  C   UNL     1       4.341   2.426  19.843  0.00  0.00    +0.000 C 
ENDBRANCH  27  28
ENDBRANCH  25  27
ENDBRANCH  24  25
ENDBRANCH  21  24
ENDBRANCH  17  19
ENDBRANCH   8  17
TORSDOF 7
ENDMDL
MODEL 6
REMARK VINA RESULT:      -6.9      4.977      6.776
REMARK  Name = 
REMARK  11 active torsions:
REMARK  status: ('A' for Active; 'I' for Inactive)
REMARK    1  A    between atoms: C_1  and  O_2
REMARK    2  A    between atoms: O_2  and  C_3
REMARK    3  A    between atoms: C_10  and  C_11
REMARK    4  A    between atoms: C_11  and  C_13
REMARK    5  A    between atoms: C_15  and  C_16
REMARK    6  A    between atoms: C_16  and  C_17
REMARK    7  A    between atoms: C_17  and  O_19
REMARK    8  A    between atoms: O_19  and  C_20
REMARK    9  A    between atoms: C_20  and  C_21
REMARK   10  A    between atoms: C_20  and  C_22
REMARK   11  A    between atoms: C_20  and  C_23
REMARK                            x       y       z     vdW  Elec       q    Type
REMARK                         _______ _______ _______ _____ _____    ______ ____
ROOT
ATOM      1  C   UNL     1      -7.093  11.756  20.197  0.00  0.00    +0.000 C 
ATOM      2  O   UNL     1      -7.203  10.585  19.860  0.00  0.00    +0.000 OA
ATOM      3  N   UNL     1      -6.092  12.618  19.847  0.00  0.00    +0.000 N 
ATOM      4  C   UNL     1      -4.919  12.141  19.329  0.00  0.00    +0.000 A 
ATOM      5  N   UNL     1      -3.734  12.555  19.707  0.00  0.00    +0.000 NA
ATOM      6  C   UNL     1      -2.843  11.734  19.064  0.00  0.00    +0.000 A 
ATOM      7  C   UNL     1      -1.455  11.621  19.230  0.00  0.00    +0.000 A 
ATOM      8  C   UNL     1      -0.752  10.714  18.420  0.00  0.00    +0.000 A 
ATOM      9  C   UNL     1      -1.433   9.954  17.452  0.00  0.00    +0.000 A 
ATOM     10  C   UNL     1      -2.824  10.046  17.289  0.00  0.00    +0.000 A 
ATOM     11  C   UNL     1      -3.494  10.917  18.146  0.00  0.00    +0.000 A 
ATOM     12  N   UNL     1      -4.828  11.172  18.362  0.00  0.00    +0.000 N 
ATOM     13  H   UNL     1      -6.014  13.432  20.438  0.00  0.00    +0.000 HD
ATOM     14  H   UNL     1      -5.613  10.719  17.916  0.00  0.00    +0.000 HD
ENDROOT
BRANCH   1  16
ATOM     15  C   UNL     1      -7.674  13.798  21.217  0.00  0.00    +0.000 C 
ATOM     16  O   UNL     1      -7.914  12.398  21.069  0.00  0.00    +0.000 OA
ENDBRANCH   1  16
BRANCH   8  17
ATOM     17  C   UNL     1       0.714  10.540  18.668  0.00  0.00    +0.000 C 
ATOM     18  O   UNL     1       1.459  11.432  18.265  0.00  0.00    +0.000 OA
BRANCH  17  19
ATOM     19  C   UNL     1       1.179   9.348  19.365  0.00  0.00    +0.000 A 
ATOM     20  C   UNL     1       2.135   8.429  18.981  0.00  0.00    +0.000 A 
ATOM     21  C   UNL     1       2.216   7.288  19.851  0.00  0.00    +0.000 A 
ATOM     22  C   UNL     1       1.398   7.467  20.951  0.00  0.00    +0.000 A 
ATOM     23  S   UNL     1       0.520   8.936  20.889  0.00  0.00    +0.000 S 
BRANCH  21  24
ATOM     24  C   UNL     1       3.037   6.058  19.543  0.00  0.00    +0.000 C 
BRANCH  24  25
ATOM     25  C   UNL     1       2.248   5.093  18.664  0.00  0.00    +0.000 C 
ATOM     26  O   UNL     1       1.597   5.428  17.685  0.00  0.00    +0.000 OA
BRANCH  25  27
ATOM     27  O   UNL     1       2.362   3.807  19.118  0.00  0.00    +0.000 OA
BRANCH  27  28
ATOM     28  C   UNL     1       3.502   3.018  18.670  0.00  0.00    +0.000 C 
ATOM     29  C   UNL     1       4.380   2.577  19.851  0.00  0.00    +0.000 C 
ATOM     30  C   UNL     1       2.932   1.749  18.012  0.00  0.00    +0.000 C 
ATOM     31  C   UNL     1       4.300   3.776  17.599  0.00  0.00    +0.000 C 
ENDBRANCH  27  28
ENDBRANCH  25  27
ENDBRANCH  24  25
ENDBRANCH  21  24
ENDBRANCH  17  19
ENDBRANCH   8  17
TORSDOF 7
ENDMDL
MODEL 7
REMARK VINA RESULT:      -6.9      4.761      9.859
REMARK  Name = 
REMARK  11 active torsions:
REMARK  status: ('A' for Active; 'I' for Inactive)
REMARK    1  A    between atoms: C_1  and  O_2
REMARK    2  A    between atoms: O_2  and  C_3
REMARK    3  A    between atoms: C_10  and  C_11
REMARK    4  A    between atoms: C_11  and  C_13
REMARK    5  A    between atoms: C_15  and  C_16
REMARK    6  A    between atoms: C_16  and  C_17
REMARK    7  A    between atoms: C_17  and  O_19
REMARK    8  A    between atoms: O_19  and  C_20
REMARK    9  A    between atoms: C_20  and  C_21
REMARK   10  A    between atoms: C_20  and  C_22
REMARK   11  A    between atoms: C_20  and  C_23
REMARK                            x       y       z     vdW  Elec       q    Type
REMARK                         _______ _______ _______ _____ _____    ______ ____
ROOT
ATOM      1  C   UNL     1       2.662   3.837  18.889  0.00  0.00    +0.000 C 
ATOM      2  O   UNL     1       1.784   3.685  19.728  0.00  0.00    +0.000 OA
ATOM      3  N   UNL     1       3.296   5.003  18.570  0.00  0.00    +0.000 N 
ATOM      4  C   UNL     1       2.766   6.206  18.952  0.00  0.00    +0.000 A 
ATOM      5  N   UNL     1       2.676   7.247  18.159  0.00  0.00    +0.000 NA
ATOM      6  C   UNL     1       1.963   8.179  18.870  0.00  0.00    +0.000 A 
ATOM      7  C   UNL     1       1.435   9.408  18.449  0.00  0.00    +0.000 A 
ATOM      8  C   UNL     1       0.761  10.207  19.386  0.00  0.00    +0.000 A 
ATOM      9  C   UNL     1       0.639   9.784  20.721  0.00  0.00    +0.000 A 
ATOM     10  C   UNL     1       1.149   8.548  21.150  0.00  0.00    +0.000 A 
ATOM     11  C   UNL     1       1.765   7.759  20.181  0.00  0.00    +0.000 A 
ATOM     12  N   UNL     1       2.258   6.475  20.196  0.00  0.00    +0.000 N 
ATOM     13  H   UNL     1       3.768   4.993  17.678  0.00  0.00    +0.000 HD
ATOM     14  H   UNL     1       2.234   5.825  20.970  0.00  0.00    +0.000 HD
ENDROOT
BRANCH   1  16
ATOM     15  C   UNL     1       3.548   1.665  18.673  0.00  0.00    +0.000 C 
ATOM     16  O   UNL     1       3.109   2.870  18.045  0.00  0.00    +0.000 OA
ENDBRANCH   1  16
BRANCH   8  17
ATOM     17  C   UNL     1       0.127  11.475  18.902  0.00  0.00    +0.000 C 
ATOM     18  O   UNL     1       0.879  12.413  18.644  0.00  0.00    +0.000 OA
BRANCH  17  19
ATOM     19  C   UNL     1      -1.322  11.532  18.758  0.00  0.00    +0.000 A 
ATOM     20  C   UNL     1      -2.215  12.446  19.280  0.00  0.00    +0.000 A 
ATOM     21  C   UNL     1      -3.591  12.093  19.060  0.00  0.00    +0.000 A 
ATOM     22  C   UNL     1      -3.674  10.980  18.244  0.00  0.00    +0.000 A 
ATOM     23  S   UNL     1      -2.137  10.354  17.822  0.00  0.00    +0.000 S 
BRANCH  21  24
ATOM     24  C   UNL     1      -4.753  12.818  19.697  0.00  0.00    +0.000 C 
BRANCH  24  25
ATOM     25  C   UNL     1      -5.060  12.234  21.072  0.00  0.00    +0.000 C 
ATOM     26  O   UNL     1      -6.138  11.754  21.392  0.00  0.00    +0.000 OA
BRANCH  25  27
ATOM     27  O   UNL     1      -3.973  12.321  21.899  0.00  0.00    +0.000 OA
BRANCH  27  28
ATOM     28  C   UNL     1      -4.014  13.283  22.992  0.00  0.00    +0.000 C 
ATOM     29  C   UNL     1      -5.012  12.858  24.079  0.00  0.00    +0.000 C 
ATOM     30  C   UNL     1      -2.611  13.297  23.624  0.00  0.00    +0.000 C 
ATOM     31  C   UNL     1      -4.296  14.696  22.459  0.00  0.00    +0.000 C 
ENDBRANCH  27  28
ENDBRANCH  25  27
ENDBRANCH  24  25
ENDBRANCH  21  24
ENDBRANCH  17  19
ENDBRANCH   8  17
TORSDOF 7
ENDMDL
MODEL 8
REMARK VINA RESULT:      -6.9      4.406      5.855
REMARK  Name = 
REMARK  11 active torsions:
REMARK  status: ('A' for Active; 'I' for Inactive)
REMARK    1  A    between atoms: C_1  and  O_2
REMARK    2  A    between atoms: O_2  and  C_3
REMARK    3  A    between atoms: C_10  and  C_11
REMARK    4  A    between atoms: C_11  and  C_13
REMARK    5  A    between atoms: C_15  and  C_16
REMARK    6  A    between atoms: C_16  and  C_17
REMARK    7  A    between atoms: C_17  and  O_19
REMARK    8  A    between atoms: O_19  and  C_20
REMARK    9  A    between atoms: C_20  and  C_21
REMARK   10  A    between atoms: C_20  and  C_22
REMARK   11  A    between atoms: C_20  and  C_23
REMARK                            x       y       z     vdW  Elec       q    Type
REMARK                         _______ _______ _______ _____ _____    ______ ____
ROOT
ATOM      1  C   UNL     1      -5.309  12.995  22.195  0.00  0.00    +0.000 C 
ATOM      2  O   UNL     1      -5.791  11.944  21.794  0.00  0.00    +0.000 OA
ATOM      3  N   UNL     1      -4.227  13.648  21.677  0.00  0.00    +0.000 N 
ATOM      4  C   UNL     1      -3.366  12.999  20.834  0.00  0.00    +0.000 A 
ATOM      5  N   UNL     1      -2.060  13.070  20.929  0.00  0.00    +0.000 NA
ATOM      6  C   UNL     1      -1.582  12.173  20.008  0.00  0.00    +0.000 A 
ATOM      7  C   UNL     1      -0.270  11.722  19.799  0.00  0.00    +0.000 A 
ATOM      8  C   UNL     1      -0.030  10.811  18.758  0.00  0.00    +0.000 A 
ATOM      9  C   UNL     1      -1.085  10.381  17.935  0.00  0.00    +0.000 A 
ATOM     10  C   UNL     1      -2.404  10.813  18.144  0.00  0.00    +0.000 A 
ATOM     11  C   UNL     1      -2.614  11.675  19.219  0.00  0.00    +0.000 A 
ATOM     12  N   UNL     1      -3.751  12.192  19.794  0.00  0.00    +0.000 N 
ATOM     13  H   UNL     1      -3.808  14.324  22.298  0.00  0.00    +0.000 HD
ATOM     14  H   UNL     1      -4.707  12.002  19.526  0.00  0.00    +0.000 HD
ENDROOT
BRANCH   1  16
ATOM     15  C   UNL     1      -7.130  13.771  23.470  0.00  0.00    +0.000 C 
ATOM     16  O   UNL     1      -5.715  13.668  23.303  0.00  0.00    +0.000 OA
ENDBRANCH   1  16
BRANCH   8  17
ATOM     17  C   UNL     1       1.359  10.272  18.603  0.00  0.00    +0.000 C 
ATOM     18  O   UNL     1       2.190  11.010  18.077  0.00  0.00    +0.000 OA
BRANCH  17  19
ATOM     19  C   UNL     1       1.653   8.927  19.079  0.00  0.00    +0.000 A 
ATOM     20  C   UNL     1       2.240   7.873  18.407  0.00  0.00    +0.000 A 
ATOM     21  C   UNL     1       2.224   6.641  19.148  0.00  0.00    +0.000 A 
ATOM     22  C   UNL     1       1.743   6.857  20.426  0.00  0.00    +0.000 A 
ATOM     23  S   UNL     1       1.267   8.483  20.685  0.00  0.00    +0.000 S 
BRANCH  21  24
ATOM     24  C   UNL     1       2.623   5.307  18.562  0.00  0.00    +0.000 C 
BRANCH  24  25
ATOM     25  C   UNL     1       4.142   5.195  18.471  0.00  0.00    +0.000 C 
ATOM     26  O   UNL     1       4.904   5.377  19.410  0.00  0.00    +0.000 OA
BRANCH  25  27
ATOM     27  O   UNL     1       4.537   4.869  17.202  0.00  0.00    +0.000 OA
BRANCH  27  28
ATOM     28  C   UNL     1       5.767   5.460  16.691  0.00  0.00    +0.000 C 
ATOM     29  C   UNL     1       7.007   4.720  17.214  0.00  0.00    +0.000 C 
ATOM     30  C   UNL     1       5.734   5.296  15.161  0.00  0.00    +0.000 C 
ATOM     31  C   UNL     1       5.812   6.965  16.995  0.00  0.00    +0.000 C 
ENDBRANCH  27  28
ENDBRANCH  25  27
ENDBRANCH  24  25
ENDBRANCH  21  24
ENDBRANCH  17  19
ENDBRANCH   8  17
TORSDOF 7
ENDMDL
MODEL 9
REMARK VINA RESULT:      -6.8      4.134      5.575
REMARK  Name = 
REMARK  11 active torsions:
REMARK  status: ('A' for Active; 'I' for Inactive)
REMARK    1  A    between atoms: C_1  and  O_2
REMARK    2  A    between atoms: O_2  and  C_3
REMARK    3  A    between atoms: C_10  and  C_11
REMARK    4  A    between atoms: C_11  and  C_13
REMARK    5  A    between atoms: C_15  and  C_16
REMARK    6  A    between atoms: C_16  and  C_17
REMARK    7  A    between atoms: C_17  and  O_19
REMARK    8  A    between atoms: O_19  and  C_20
REMARK    9  A    between atoms: C_20  and  C_21
REMARK   10  A    between atoms: C_20  and  C_22
REMARK   11  A    between atoms: C_20  and  C_23
REMARK                            x       y       z     vdW  Elec       q    Type
REMARK                         _______ _______ _______ _____ _____    ______ ____
ROOT
ATOM      1  C   UNL     1      -5.103  13.583  21.191  0.00  0.00    +0.000 C 
ATOM      2  O   UNL     1      -5.536  12.439  21.178  0.00  0.00    +0.000 OA
ATOM      3  N   UNL     1      -4.079  14.079  20.435  0.00  0.00    +0.000 N 
ATOM      4  C   UNL     1      -3.211  13.230  19.804  0.00  0.00    +0.000 A 
ATOM      5  N   UNL     1      -1.909  13.387  19.804  0.00  0.00    +0.000 NA
ATOM      6  C   UNL     1      -1.410  12.261  19.201  0.00  0.00    +0.000 A 
ATOM      7  C   UNL     1      -0.082  11.826  19.082  0.00  0.00    +0.000 A 
ATOM      8  C   UNL     1       0.177  10.636  18.382  0.00  0.00    +0.000 A 
ATOM      9  C   UNL     1      -0.878   9.914  17.798  0.00  0.00    +0.000 A 
ATOM     10  C   UNL     1      -2.213  10.330  17.924  0.00  0.00    +0.000 A 
ATOM     11  C   UNL     1      -2.437  11.486  18.670  0.00  0.00    +0.000 A 
ATOM     12  N   UNL     1      -3.582  12.111  19.104  0.00  0.00    +0.000 N 
ATOM     13  H   UNL     1      -3.681  14.939  20.780  0.00  0.00    +0.000 HD
ATOM     14  H   UNL     1      -4.534  11.801  18.962  0.00  0.00    +0.000 HD
ENDROOT
BRANCH   1  16
ATOM     15  C   UNL     1      -5.956  15.767  21.414  0.00  0.00    +0.000 C 
ATOM     16  O   UNL     1      -5.511  14.562  22.040  0.00  0.00    +0.000 OA
ENDBRANCH   1  16
BRANCH   8  17
ATOM     17  C   UNL     1       1.589  10.140  18.340  0.00  0.00    +0.000 C 
ATOM     18  O   UNL     1       2.449  10.932  17.959  0.00  0.00    +0.000 OA
BRANCH  17  19
ATOM     19  C   UNL     1       1.870   8.770  18.747  0.00  0.00    +0.000 A 
ATOM     20  C   UNL     1       2.415   7.735  18.012  0.00  0.00    +0.000 A 
ATOM     21  C   UNL     1       2.396   6.472  18.699  0.00  0.00    +0.000 A 
ATOM     22  C   UNL     1       1.958   6.642  19.999  0.00  0.00    +0.000 A 
ATOM     23  S   UNL     1       1.524   8.263  20.344  0.00  0.00    +0.000 S 
BRANCH  21  24
ATOM     24  C   UNL     1       2.749   5.158  18.044  0.00  0.00    +0.000 C 
BRANCH  24  25
ATOM     25  C   UNL     1       3.944   4.516  18.742  0.00  0.00    +0.000 C 
ATOM     26  O   UNL     1       3.881   3.500  19.420  0.00  0.00    +0.000 OA
BRANCH  25  27
ATOM     27  O   UNL     1       5.090   5.227  18.513  0.00  0.00    +0.000 OA
BRANCH  27  28
ATOM     28  C   UNL     1       5.805   4.999  17.264  0.00  0.00    +0.000 C 
ATOM     29  C   UNL     1       5.162   3.868  16.446  0.00  0.00    +0.000 C 
ATOM     30  C   UNL     1       5.688   6.295  16.444  0.00  0.00    +0.000 C 
ATOM     31  C   UNL     1       7.297   4.753  17.531  0.00  0.00    +0.000 C 
ENDBRANCH  27  28
ENDBRANCH  25  27
ENDBRANCH  24  25
ENDBRANCH  21  24
ENDBRANCH  17  19
ENDBRANCH   8  17
TORSDOF 7
ENDMDL
