MODEL 1
REMARK VINA RESULT:      -7.9      0.000      0.000
REMARK  Name = 
REMARK  5 active torsions:
REMARK  status: ('A' for Active; 'I' for Inactive)
REMARK    1  A    between atoms: C_2  and  C_11
REMARK    2  A    between atoms: N_3  and  C_4
REMARK    3  A    between atoms: C_4  and  C_5
REMARK    4  A    between atoms: C_5  and  N_6
REMARK    5  A    between atoms: C_18  and  C_19
REMARK                            x       y       z     vdW  Elec       q    Type
REMARK                         _______ _______ _______ _____ _____    ______ ____
ROOT
ATOM      1  C   UNL     1       6.850   7.288  17.003  0.00  0.00    +0.000 C 
ATOM      2  C   UNL     1       7.354   5.980  16.392  0.00  0.00    +0.000 C 
ATOM      3  C   UNL     1       6.075   5.204  16.121  0.00  0.00    +0.000 C 
ATOM      4  N   UNL     1       5.248   5.570  17.253  0.00  0.00    +0.000 N 
ATOM      5  C   UNL     1       4.177   4.871  17.734  0.00  0.00    +0.000 A 
ATOM      6  C   UNL     1       3.841   3.607  17.253  0.00  0.00    +0.000 A 
ATOM      7  C   UNL     1       2.779   2.894  17.812  0.00  0.00    +0.000 A 
ATOM      8  C   UNL     1       2.041   3.460  18.847  0.00  0.00    +0.000 A 
ATOM      9  C   UNL     1       2.421   4.722  19.264  0.00  0.00    +0.000 A 
ATOM     10  N   UNL     1       3.457   5.420  18.737  0.00  0.00    +0.000 NA
ATOM     11  C   UNL     1       5.548   6.919  17.727  0.00  0.00    +0.000 C 
ENDROOT
BRANCH   1  13
ATOM     12  O   UNL     1       8.493   7.274  18.742  0.00  0.00    +0.000 OA
ATOM     13  C   UNL     1       7.872   7.935  17.914  0.00  0.00    +0.000 C 
ATOM     14  N   UNL     1       8.045   9.293  17.774  0.00  0.00    +0.000 N 
ATOM     15  H   UNL     1       7.429   9.816  17.162  0.00  0.00    +0.000 HD
BRANCH  14  16
ATOM     16  C   UNL     1       8.957  10.044  18.628  0.00  0.00    +0.000 C 
BRANCH  16  17
ATOM     17  C   UNL     1       9.205  11.473  18.144  0.00  0.00    +0.000 C 
BRANCH  17  18
ATOM     18  N   UNL     1      10.367  12.069  18.774  0.00  0.00    +0.000 N 
ATOM     19  C   UNL     1      11.511  11.428  19.157  0.00  0.00    +0.000 A 
ATOM     20  C   UNL     1      12.333  12.397  19.682  0.00  0.00    +0.000 A 
ATOM     21  C   UNL     1      11.595  13.590  19.568  0.00  0.00    +0.000 A 
ATOM     22  N   UNL     1      10.397  13.396  19.011  0.00  0.00    +0.000 NA
ENDBRANCH  17  18
ENDBRANCH  16  17
ENDBRANCH  14  16
ENDBRANCH   1  13
BRANCH   8  23
ATOM     23  C   UNL     1       0.888   2.762  19.493  0.00  0.00    +0.000 C 
ATOM     24  F   UNL     1       1.266   1.855  20.438  0.00  0.00    +0.000 F 
ATOM     25  F   UNL     1       0.041   3.621  20.124  0.00  0.00    +0.000 F 
ATOM     26  F   UNL     1       0.126   2.072  18.602  0.00  0.00    +0.000 F 
ENDBRANCH   8  23
TORSDOF 5
ENDMDL
MODEL 2
REMARK VINA RESULT:      -7.8      5.810      8.467
REMARK  Name = 
REMARK  5 active torsions:
REMARK  status: ('A' for Active; 'I' for Inactive)
REMARK    1  A    between atoms: C_2  and  C_11
REMARK    2  A    between atoms: N_3  and  C_4
REMARK    3  A    between atoms: C_4  and  C_5
REMARK    4  A    between atoms: C_5  and  N_6
REMARK    5  A    between atoms: C_18  and  C_19
REMARK                            x       y       z     vdW  Elec       q    Type
REMARK                         _______ _______ _______ _____ _____    ______ ____
ROOT
ATOM      1  C   UNL     1       4.912   5.243  18.428  0.00  0.00    +0.000 C 
ATOM      2  C   UNL     1       4.664   5.604  16.964  0.00  0.00    +0.000 C 
ATOM      3  C   UNL     1       4.238   7.061  17.028  0.00  0.00    +0.000 C 
ATOM      4  N   UNL     1       3.464   7.102  18.252  0.00  0.00    +0.000 N 
ATOM      5  C   UNL     1       2.523   8.035  18.586  0.00  0.00    +0.000 A 
ATOM      6  C   UNL     1       2.089   9.005  17.684  0.00  0.00    +0.000 A 
ATOM      7  C   UNL     1       1.080   9.902  18.038  0.00  0.00    +0.000 A 
ATOM      8  C   UNL     1       0.515   9.835  19.307  0.00  0.00    +0.000 A 
ATOM      9  C   UNL     1       1.003   8.857  20.154  0.00  0.00    +0.000 A 
ATOM     10  N   UNL     1       1.975   7.973  19.819  0.00  0.00    +0.000 NA
ATOM     11  C   UNL     1       3.950   6.132  19.230  0.00  0.00    +0.000 C 
ENDROOT
BRANCH   1  13
ATOM     12  O   UNL     1       5.390   3.190  19.559  0.00  0.00    +0.000 OA
ATOM     13  C   UNL     1       4.723   3.767  18.703  0.00  0.00    +0.000 C 
ATOM     14  N   UNL     1       3.788   3.113  17.933  0.00  0.00    +0.000 N 
ATOM     15  H   UNL     1       3.348   3.600  17.161  0.00  0.00    +0.000 HD
BRANCH  14  16
ATOM     16  C   UNL     1       3.552   1.681  18.061  0.00  0.00    +0.000 C 
BRANCH  16  17
ATOM     17  C   UNL     1       2.273   1.342  18.827  0.00  0.00    +0.000 C 
BRANCH  17  18
ATOM     18  N   UNL     1       1.904   2.385  19.764  0.00  0.00    +0.000 N 
ATOM     19  C   UNL     1       2.265   2.470  21.079  0.00  0.00    +0.000 A 
ATOM     20  C   UNL     1       1.704   3.632  21.554  0.00  0.00    +0.000 A 
ATOM     21  C   UNL     1       1.024   4.176  20.448  0.00  0.00    +0.000 A 
ATOM     22  N   UNL     1       1.147   3.422  19.353  0.00  0.00    +0.000 NA
ENDBRANCH  17  18
ENDBRANCH  16  17
ENDBRANCH  14  16
ENDBRANCH   1  13
BRANCH   8  23
ATOM     23  C   UNL     1      -0.566  10.762  19.761  0.00  0.00    +0.000 C 
ATOM     24  F   UNL     1      -0.294  12.074  19.508  0.00  0.00    +0.000 F 
ATOM     25  F   UNL     1      -1.761  10.509  19.160  0.00  0.00    +0.000 F 
ATOM     26  F   UNL     1      -0.795  10.684  21.099  0.00  0.00    +0.000 F 
ENDBRANCH   8  23
TORSDOF 5
ENDMDL
MODEL 3
REMARK VINA RESULT:      -7.8      1.202      1.833
REMARK  Name = 
REMARK  5 active torsions:
REMARK  status: ('A' for Active; 'I' for Inactive)
REMARK    1  A    between atoms: C_2  and  C_11
REMARK    2  A    between atoms: N_3  and  C_4
REMARK    3  A    between atoms: C_4  and  C_5
REMARK    4  A    between atoms: C_5  and  N_6
REMARK    5  A    between atoms: C_18  and  C_19
REMARK                            x       y       z     vdW  Elec       q    Type
REMARK                         _______ _______ _______ _____ _____    ______ ____
ROOT
ATOM      1  C   UNL     1       6.865   7.357  17.027  0.00  0.00    +0.000 C 
ATOM      2  C   UNL     1       7.374   6.069  16.379  0.00  0.00    +0.000 C 
ATOM      3  C   UNL     1       6.099   5.295  16.089  0.00  0.00    +0.000 C 
ATOM      4  N   UNL     1       5.272   5.624  17.232  0.00  0.00    +0.000 N 
ATOM      5  C   UNL     1       4.205   4.907  17.695  0.00  0.00    +0.000 A 
ATOM      6  C   UNL     1       3.875   3.654  17.180  0.00  0.00    +0.000 A 
ATOM      7  C   UNL     1       2.817   2.921  17.720  0.00  0.00    +0.000 A 
ATOM      8  C   UNL     1       2.079   3.453  18.771  0.00  0.00    +0.000 A 
ATOM      9  C   UNL     1       2.453   4.705  19.223  0.00  0.00    +0.000 A 
ATOM     10  N   UNL     1       3.485   5.423  18.715  0.00  0.00    +0.000 NA
ATOM     11  C   UNL     1       5.565   6.960  17.743  0.00  0.00    +0.000 C 
ENDROOT
BRANCH   1  13
ATOM     12  O   UNL     1       8.483   7.309  18.789  0.00  0.00    +0.000 OA
ATOM     13  C   UNL     1       7.885   7.983  17.954  0.00  0.00    +0.000 C 
ATOM     14  N   UNL     1       8.083   9.339  17.821  0.00  0.00    +0.000 N 
ATOM     15  H   UNL     1       7.485   9.874  17.203  0.00  0.00    +0.000 HD
BRANCH  14  16
ATOM     16  C   UNL     1       8.996  10.071  18.690  0.00  0.00    +0.000 C 
BRANCH  16  17
ATOM     17  C   UNL     1       9.724  11.214  17.982  0.00  0.00    +0.000 C 
BRANCH  17  18
ATOM     18  N   UNL     1       8.948  12.438  17.980  0.00  0.00    +0.000 N 
ATOM     19  C   UNL     1       9.245  13.598  18.638  0.00  0.00    +0.000 A 
ATOM     20  C   UNL     1       8.242  14.483  18.323  0.00  0.00    +0.000 A 
ATOM     21  C   UNL     1       7.388  13.762  17.468  0.00  0.00    +0.000 A 
ATOM     22  N   UNL     1       7.817  12.516  17.251  0.00  0.00    +0.000 NA
ENDBRANCH  17  18
ENDBRANCH  16  17
ENDBRANCH  14  16
ENDBRANCH   1  13
BRANCH   8  23
ATOM     23  C   UNL     1       0.930   2.732  19.400  0.00  0.00    +0.000 C 
ATOM     24  F   UNL     1       0.095   2.150  18.492  0.00  0.00    +0.000 F 
ATOM     25  F   UNL     1       1.331   1.729  20.229  0.00  0.00    +0.000 F 
ATOM     26  F   UNL     1       0.147   3.549  20.153  0.00  0.00    +0.000 F 
ENDBRANCH   8  23
TORSDOF 5
ENDMDL
MODEL 4
REMARK VINA RESULT:      -7.6      0.837      1.133
REMARK  Name = 
REMARK  5 active torsions:
REMARK  status: ('A' for Active; 'I' for Inactive)
REMARK    1  A    between atoms: C_2  and  C_11
REMARK    2  A    between atoms: N_3  and  C_4
REMARK    3  A    between atoms: C_4  and  C_5
REMARK    4  A    between atoms: C_5  and  N_6
REMARK    5  A    between atoms: C_18  and  C_19
REMARK                            x       y       z     vdW  Elec       q    Type
REMARK                         _______ _______ _______ _____ _____    ______ ____
ROOT
ATOM      1  C   UNL     1       6.836   7.261  16.991  0.00  0.00    +0.000 C 
ATOM      2  C   UNL     1       7.334   5.965  16.352  0.00  0.00    +0.000 C 
ATOM      3  C   UNL     1       6.053   5.198  16.070  0.00  0.00    +0.000 C 
ATOM      4  N   UNL     1       5.231   5.541  17.212  0.00  0.00    +0.000 N 
ATOM      5  C   UNL     1       4.160   4.836  17.683  0.00  0.00    +0.000 A 
ATOM      6  C   UNL     1       3.820   3.582  17.178  0.00  0.00    +0.000 A 
ATOM      7  C   UNL     1       2.758   2.861  17.726  0.00  0.00    +0.000 A 
ATOM      8  C   UNL     1       2.025   3.406  18.775  0.00  0.00    +0.000 A 
ATOM      9  C   UNL     1       2.410   4.659  19.216  0.00  0.00    +0.000 A 
ATOM     10  N   UNL     1       3.446   5.365  18.700  0.00  0.00    +0.000 NA
ATOM     11  C   UNL     1       5.536   6.880  17.712  0.00  0.00    +0.000 C 
ENDROOT
BRANCH   1  13
ATOM     12  O   UNL     1       8.473   7.211  18.736  0.00  0.00    +0.000 OA
ATOM     13  C   UNL     1       7.863   7.887  17.911  0.00  0.00    +0.000 C 
ATOM     14  N   UNL     1       8.054   9.244  17.784  0.00  0.00    +0.000 N 
ATOM     15  H   UNL     1       7.447   9.781  17.174  0.00  0.00    +0.000 HD
BRANCH  14  16
ATOM     16  C   UNL     1       8.973   9.976  18.647  0.00  0.00    +0.000 C 
BRANCH  16  17
ATOM     17  C   UNL     1       9.288  11.384  18.144  0.00  0.00    +0.000 C 
BRANCH  17  18
ATOM     18  N   UNL     1       9.587  12.299  19.229  0.00  0.00    +0.000 N 
ATOM     19  C   UNL     1       9.744  11.981  20.548  0.00  0.00    +0.000 A 
ATOM     20  C   UNL     1      10.037  13.160  21.192  0.00  0.00    +0.000 A 
ATOM     21  C   UNL     1      10.035  14.131  20.173  0.00  0.00    +0.000 A 
ATOM     22  N   UNL     1       9.766  13.610  18.973  0.00  0.00    +0.000 NA
ENDBRANCH  17  18
ENDBRANCH  16  17
ENDBRANCH  14  16
ENDBRANCH   1  13
BRANCH   8  23
ATOM     23  C   UNL     1       0.873   2.698  19.411  0.00  0.00    +0.000 C 
ATOM     24  F   UNL     1       0.018   3.536  20.064  0.00  0.00    +0.000 F 
ATOM     25  F   UNL     1       0.110   2.021  18.510  0.00  0.00    +0.000 F 
ATOM     26  F   UNL     1       1.268   1.779  20.333  0.00  0.00    +0.000 F 
ENDBRANCH   8  23
TORSDOF 5
ENDMDL
MODEL 5
REMARK VINA RESULT:      -7.5      5.205      7.077
REMARK  Name = 
REMARK  5 active torsions:
REMARK  status: ('A' for Active; 'I' for Inactive)
REMARK    1  A    between atoms: C_2  and  C_11
REMARK    2  A    between atoms: N_3  and  C_4
REMARK    3  A    between atoms: C_4  and  C_5
REMARK    4  A    between atoms: C_5  and  N_6
REMARK    5  A    between atoms: C_18  and  C_19
REMARK                            x       y       z     vdW  Elec       q    Type
REMARK                         _______ _______ _______ _____ _____    ______ ____
ROOT
ATOM      1  C   UNL     1       2.917   4.421  18.783  0.00  0.00    +0.000 C 
ATOM      2  C   UNL     1       2.872   4.584  20.302  0.00  0.00    +0.000 C 
ATOM      3  C   UNL     1       1.866   5.705  20.505  0.00  0.00    +0.000 C 
ATOM      4  N   UNL     1       2.139   6.571  19.376  0.00  0.00    +0.000 N 
ATOM      5  C   UNL     1       1.826   7.898  19.277  0.00  0.00    +0.000 A 
ATOM      6  C   UNL     1       1.319   8.621  20.355  0.00  0.00    +0.000 A 
ATOM      7  C   UNL     1       1.071   9.990  20.236  0.00  0.00    +0.000 A 
ATOM      8  C   UNL     1       1.319  10.631  19.027  0.00  0.00    +0.000 A 
ATOM      9  C   UNL     1       1.809   9.849  17.997  0.00  0.00    +0.000 A 
ATOM     10  N   UNL     1       2.064   8.522  18.102  0.00  0.00    +0.000 NA
ATOM     11  C   UNL     1       2.612   5.816  18.219  0.00  0.00    +0.000 C 
ENDROOT
BRANCH   1  13
ATOM     12  O   UNL     1       4.991   3.260  19.060  0.00  0.00    +0.000 OA
ATOM     13  C   UNL     1       4.237   3.860  18.298  0.00  0.00    +0.000 C 
ATOM     14  N   UNL     1       4.546   4.077  16.974  0.00  0.00    +0.000 N 
ATOM     15  H   UNL     1       3.952   4.677  16.413  0.00  0.00    +0.000 HD
BRANCH  14  16
ATOM     16  C   UNL     1       5.810   3.637  16.398  0.00  0.00    +0.000 C 
BRANCH  16  17
ATOM     17  C   UNL     1       6.727   4.791  15.992  0.00  0.00    +0.000 C 
BRANCH  17  18
ATOM     18  N   UNL     1       7.262   5.495  17.141  0.00  0.00    +0.000 N 
ATOM     19  C   UNL     1       7.414   6.846  17.276  0.00  0.00    +0.000 A 
ATOM     20  C   UNL     1       7.932   7.047  18.533  0.00  0.00    +0.000 A 
ATOM     21  C   UNL     1       8.055   5.755  19.078  0.00  0.00    +0.000 A 
ATOM     22  N   UNL     1       7.643   4.805  18.234  0.00  0.00    +0.000 NA
ENDBRANCH  17  18
ENDBRANCH  16  17
ENDBRANCH  14  16
ENDBRANCH   1  13
BRANCH   8  23
ATOM     23  C   UNL     1       1.076  12.092  18.821  0.00  0.00    +0.000 C 
ATOM     24  F   UNL     1       1.135  12.817  19.974  0.00  0.00    +0.000 F 
ATOM     25  F   UNL     1       1.981  12.661  17.979  0.00  0.00    +0.000 F 
ATOM     26  F   UNL     1      -0.148  12.349  18.285  0.00  0.00    +0.000 F 
ENDBRANCH   8  23
TORSDOF 5
ENDMDL
MODEL 6
REMARK VINA RESULT:      -7.5      6.464      8.832
REMARK  Name = 
REMARK  5 active torsions:
REMARK  status: ('A' for Active; 'I' for Inactive)
REMARK    1  A    between atoms: C_2  and  C_11
REMARK    2  A    between atoms: N_3  and  C_4
REMARK    3  A    between atoms: C_4  and  C_5
REMARK    4  A    between atoms: C_5  and  N_6
REMARK    5  A    between atoms: C_18  and  C_19
REMARK                            x       y       z     vdW  Elec       q    Type
REMARK                         _______ _______ _______ _____ _____    ______ ____
ROOT
ATOM      1  C   UNL     1       2.565   7.361  19.129  0.00  0.00    +0.000 C 
ATOM      2  C   UNL     1       1.987   8.036  17.886  0.00  0.00    +0.000 C 
ATOM      3  C   UNL     1       1.648   9.436  18.373  0.00  0.00    +0.000 C 
ATOM      4  N   UNL     1       1.192   9.189  19.726  0.00  0.00    +0.000 N 
ATOM      5  C   UNL     1       0.397  10.008  20.477  0.00  0.00    +0.000 A 
ATOM      6  C   UNL     1      -0.202  11.149  19.945  0.00  0.00    +0.000 A 
ATOM      7  C   UNL     1      -1.060  11.928  20.723  0.00  0.00    +0.000 A 
ATOM      8  C   UNL     1      -1.305  11.569  22.044  0.00  0.00    +0.000 A 
ATOM      9  C   UNL     1      -0.667  10.434  22.509  0.00  0.00    +0.000 A 
ATOM     10  N   UNL     1       0.159   9.662  21.761  0.00  0.00    +0.000 NA
ATOM     11  C   UNL     1       1.860   8.032  20.317  0.00  0.00    +0.000 C 
ENDROOT
BRANCH   1  13
ATOM     12  O   UNL     1       1.756   5.304  18.212  0.00  0.00    +0.000 OA
ATOM     13  C   UNL     1       2.389   5.857  19.108  0.00  0.00    +0.000 C 
ATOM     14  N   UNL     1       2.957   5.158  20.149  0.00  0.00    +0.000 N 
ATOM     15  H   UNL     1       3.368   5.664  20.926  0.00  0.00    +0.000 HD
BRANCH  14  16
ATOM     16  C   UNL     1       2.813   3.713  20.275  0.00  0.00    +0.000 C 
BRANCH  16  17
ATOM     17  C   UNL     1       4.074   2.941  19.888  0.00  0.00    +0.000 C 
BRANCH  17  18
ATOM     18  N   UNL     1       4.721   3.501  18.717  0.00  0.00    +0.000 N 
ATOM     19  C   UNL     1       4.367   3.305  17.413  0.00  0.00    +0.000 A 
ATOM     20  C   UNL     1       5.247   4.049  16.663  0.00  0.00    +0.000 A 
ATOM     21  C   UNL     1       6.092   4.659  17.609  0.00  0.00    +0.000 A 
ATOM     22  N   UNL     1       5.773   4.331  18.864  0.00  0.00    +0.000 NA
ENDBRANCH  17  18
ENDBRANCH  16  17
ENDBRANCH  14  16
ENDBRANCH   1  13
BRANCH   8  23
ATOM     23  C   UNL     1      -2.208  12.354  22.941  0.00  0.00    +0.000 C 
ATOM     24  F   UNL     1      -1.545  13.260  23.715  0.00  0.00    +0.000 F 
ATOM     25  F   UNL     1      -3.141  13.067  22.253  0.00  0.00    +0.000 F 
ATOM     26  F   UNL     1      -2.902  11.566  23.805  0.00  0.00    +0.000 F 
ENDBRANCH   8  23
TORSDOF 5
ENDMDL
MODEL 7
REMARK VINA RESULT:      -7.4      1.536      1.946
REMARK  Name = 
REMARK  5 active torsions:
REMARK  status: ('A' for Active; 'I' for Inactive)
REMARK    1  A    between atoms: C_2  and  C_11
REMARK    2  A    between atoms: N_3  and  C_4
REMARK    3  A    between atoms: C_4  and  C_5
REMARK    4  A    between atoms: C_5  and  N_6
REMARK    5  A    between atoms: C_18  and  C_19
REMARK                            x       y       z     vdW  Elec       q    Type
REMARK                         _______ _______ _______ _____ _____    ______ ____
ROOT
ATOM      1  C   UNL     1       7.623   7.272  17.643  0.00  0.00    +0.000 C 
ATOM      2  C   UNL     1       8.304   6.316  18.622  0.00  0.00    +0.000 C 
ATOM      3  C   UNL     1       7.431   5.073  18.563  0.00  0.00    +0.000 C 
ATOM      4  N   UNL     1       6.104   5.636  18.416  0.00  0.00    +0.000 N 
ATOM      5  C   UNL     1       4.922   5.018  18.716  0.00  0.00    +0.000 A 
ATOM      6  C   UNL     1       4.876   3.782  19.357  0.00  0.00    +0.000 A 
ATOM      7  C   UNL     1       3.651   3.210  19.706  0.00  0.00    +0.000 A 
ATOM      8  C   UNL     1       2.469   3.874  19.396  0.00  0.00    +0.000 A 
ATOM      9  C   UNL     1       2.590   5.089  18.748  0.00  0.00    +0.000 A 
ATOM     10  N   UNL     1       3.773   5.661  18.414  0.00  0.00    +0.000 NA
ATOM     11  C   UNL     1       6.134   6.903  17.690  0.00  0.00    +0.000 C 
ENDROOT
BRANCH   1  13
ATOM     12  O   UNL     1       7.255   9.626  17.423  0.00  0.00    +0.000 OA
ATOM     13  C   UNL     1       7.885   8.726  17.973  0.00  0.00    +0.000 C 
ATOM     14  N   UNL     1       8.872   8.976  18.899  0.00  0.00    +0.000 N 
ATOM     15  H   UNL     1       9.446   8.213  19.239  0.00  0.00    +0.000 HD
BRANCH  14  16
ATOM     16  C   UNL     1       9.259  10.334  19.262  0.00  0.00    +0.000 C 
BRANCH  16  17
ATOM     17  C   UNL     1      10.188  10.995  18.244  0.00  0.00    +0.000 C 
BRANCH  17  18
ATOM     18  N   UNL     1       9.961  12.423  18.143  0.00  0.00    +0.000 N 
ATOM     19  C   UNL     1       8.910  13.125  18.663  0.00  0.00    +0.000 A 
ATOM     20  C   UNL     1       9.132  14.441  18.336  0.00  0.00    +0.000 A 
ATOM     21  C   UNL     1      10.344  14.431  17.620  0.00  0.00    +0.000 A 
ATOM     22  N   UNL     1      10.856  13.203  17.504  0.00  0.00    +0.000 NA
ENDBRANCH  17  18
ENDBRANCH  16  17
ENDBRANCH  14  16
ENDBRANCH   1  13
BRANCH   8  23
ATOM     23  C   UNL     1       1.120   3.325  19.733  0.00  0.00    +0.000 C 
ATOM     24  F   UNL     1       0.258   4.266  20.211  0.00  0.00    +0.000 F 
ATOM     25  F   UNL     1       0.498   2.765  18.659  0.00  0.00    +0.000 F 
ATOM     26  F   UNL     1       1.172   2.353  20.684  0.00  0.00    +0.000 F 
ENDBRANCH   8  23
TORSDOF 5
ENDMDL
MODEL 8
REMARK VINA RESULT:      -7.4      4.901      6.907
REMARK  Name = 
REMARK  5 active torsions:
REMARK  status: ('A' for Active; 'I' for Inactive)
REMARK    1  A    between atoms: C_2  and  C_11
REMARK    2  A    between atoms: N_3  and  C_4
REMARK    3  A    between atoms: C_4  and  C_5
REMARK    4  A    between atoms: C_5  and  N_6
REMARK    5  A    between atoms: C_18  and  C_19
REMARK                            x       y       z     vdW  Elec       q    Type
REMARK                         _______ _______ _______ _____ _____    ______ ____
ROOT
ATOM      1  C   UNL     1       2.936   4.366  18.886  0.00  0.00    +0.000 C 
ATOM      2  C   UNL     1       2.875   4.295  20.412  0.00  0.00    +0.000 C 
ATOM      3  C   UNL     1       1.813   5.321  20.769  0.00  0.00    +0.000 C 
ATOM      4  N   UNL     1       2.047   6.361  19.788  0.00  0.00    +0.000 N 
ATOM      5  C   UNL     1       1.668   7.670  19.887  0.00  0.00    +0.000 A 
ATOM      6  C   UNL     1       1.119   8.196  21.055  0.00  0.00    +0.000 A 
ATOM      7  C   UNL     1       0.803   9.553  21.143  0.00  0.00    +0.000 A 
ATOM      8  C   UNL     1       1.024  10.381  20.048  0.00  0.00    +0.000 A 
ATOM      9  C   UNL     1       1.559   9.790  18.918  0.00  0.00    +0.000 A 
ATOM     10  N   UNL     1       1.881   8.476  18.824  0.00  0.00    +0.000 NA
ATOM     11  C   UNL     1       2.564   5.814  18.536  0.00  0.00    +0.000 C 
ENDROOT
BRANCH   1  13
ATOM     12  O   UNL     1       5.152   3.481  19.072  0.00  0.00    +0.000 OA
ATOM     13  C   UNL     1       4.285   3.951  18.339  0.00  0.00    +0.000 C 
ATOM     14  N   UNL     1       4.488   4.150  16.992  0.00  0.00    +0.000 N 
ATOM     15  H   UNL     1       3.792   4.648  16.449  0.00  0.00    +0.000 HD
BRANCH  14  16
ATOM     16  C   UNL     1       5.761   3.844  16.352  0.00  0.00    +0.000 C 
BRANCH  16  17
ATOM     17  C   UNL     1       6.475   5.077  15.799  0.00  0.00    +0.000 C 
BRANCH  17  18
ATOM     18  N   UNL     1       7.043   5.898  16.850  0.00  0.00    +0.000 N 
ATOM     19  C   UNL     1       7.609   5.462  18.014  0.00  0.00    +0.000 A 
ATOM     20  C   UNL     1       8.025   6.590  18.682  0.00  0.00    +0.000 A 
ATOM     21  C   UNL     1       7.665   7.656  17.836  0.00  0.00    +0.000 A 
ATOM     22  N   UNL     1       7.070   7.239  16.716  0.00  0.00    +0.000 NA
ENDBRANCH  17  18
ENDBRANCH  16  17
ENDBRANCH  14  16
ENDBRANCH   1  13
BRANCH   8  23
ATOM     23  C   UNL     1       0.708  11.842  20.063  0.00  0.00    +0.000 C 
ATOM     24  F   UNL     1      -0.162  12.197  21.050  0.00  0.00    +0.000 F 
ATOM     25  F   UNL     1       1.813  12.617  20.248  0.00  0.00    +0.000 F 
ATOM     26  F   UNL     1       0.143  12.268  18.901  0.00  0.00    +0.000 F 
ENDBRANCH   8  23
TORSDOF 5
ENDMDL
MODEL 9
REMARK VINA RESULT:      -7.4      6.059      8.541
REMARK  Name = 
REMARK  5 active torsions:
REMARK  status: ('A' for Active; 'I' for Inactive)
REMARK    1  A    between atoms: C_2  and  C_11
REMARK    2  A    between atoms: N_3  and  C_4
REMARK    3  A    between atoms: C_4  and  C_5
REMARK    4  A    between atoms: C_5  and  N_6
REMARK    5  A    between atoms: C_18  and  C_19
REMARK                            x       y       z     vdW  Elec       q    Type
REMARK                         _______ _______ _______ _____ _____    ______ ____
ROOT
ATOM      1  C   UNL     1       2.530   7.516  19.060  0.00  0.00    +0.000 C 
ATOM      2  C   UNL     1       1.910   8.182  17.832  0.00  0.00    +0.000 C 
ATOM      3  C   UNL     1       1.544   9.570  18.333  0.00  0.00    +0.000 C 
ATOM      4  N   UNL     1       1.122   9.305  19.693  0.00  0.00    +0.000 N 
ATOM      5  C   UNL     1       0.321  10.099  20.463  0.00  0.00    +0.000 A 
ATOM      6  C   UNL     1      -0.318  11.226  19.949  0.00  0.00    +0.000 A 
ATOM      7  C   UNL     1      -1.181  11.979  20.748  0.00  0.00    +0.000 A 
ATOM      8  C   UNL     1      -1.391  11.608  22.072  0.00  0.00    +0.000 A 
ATOM      9  C   UNL     1      -0.715  10.487  22.518  0.00  0.00    +0.000 A 
ATOM     10  N   UNL     1       0.117   9.741  21.750  0.00  0.00    +0.000 NA
ATOM     11  C   UNL     1       1.831   8.163  20.265  0.00  0.00    +0.000 C 
ENDROOT
BRANCH   1  13
ATOM     12  O   UNL     1       1.859   5.403  19.960  0.00  0.00    +0.000 OA
ATOM     13  C   UNL     1       2.393   6.008  19.034  0.00  0.00    +0.000 C 
ATOM     14  N   UNL     1       2.916   5.364  17.936  0.00  0.00    +0.000 N 
ATOM     15  H   UNL     1       3.452   5.890  17.255  0.00  0.00    +0.000 HD
BRANCH  14  16
ATOM     16  C   UNL     1       2.899   3.911  17.817  0.00  0.00    +0.000 C 
BRANCH  16  17
ATOM     17  C   UNL     1       4.177   3.244  18.325  0.00  0.00    +0.000 C 
BRANCH  17  18
ATOM     18  N   UNL     1       5.331   4.114  18.211  0.00  0.00    +0.000 N 
ATOM     19  C   UNL     1       6.043   4.385  17.077  0.00  0.00    +0.000 A 
ATOM     20  C   UNL     1       7.025   5.274  17.447  0.00  0.00    +0.000 A 
ATOM     21  C   UNL     1       6.819   5.477  18.825  0.00  0.00    +0.000 A 
ATOM     22  N   UNL     1       5.784   4.776  19.294  0.00  0.00    +0.000 NA
ENDBRANCH  17  18
ENDBRANCH  16  17
ENDBRANCH  14  16
ENDBRANCH   1  13
BRANCH   8  23
ATOM     23  C   UNL     1      -2.296  12.364  22.990  0.00  0.00    +0.000 C 
ATOM     24  F   UNL     1      -3.229  13.112  22.334  0.00  0.00    +0.000 F 
ATOM     25  F   UNL     1      -2.997  11.549  23.825  0.00  0.00    +0.000 F 
ATOM     26  F   UNL     1      -1.623  13.232  23.792  0.00  0.00    +0.000 F 
ENDBRANCH   8  23
TORSDOF 5
ENDMDL
