MODEL 1
REMARK VINA RESULT:      -7.5      0.000      0.000
REMARK  Name = 
REMARK  9 active torsions:
REMARK  status: ('A' for Active; 'I' for Inactive)
REMARK    1  A    between atoms: C_1  and  C_2
REMARK    2  A    between atoms: C_2  and  O_3
REMARK    3  A    between atoms: O_3  and  C_4
REMARK    4  A    between atoms: C_4  and  C_6
REMARK    5  A    between atoms: C_7  and  C_8
REMARK    6  A    between atoms: C_10  and  C_11
REMARK    7  A    between atoms: N_13  and  C_14
REMARK    8  A    between atoms: N_18  and  C_19
REMARK    9  A    between atoms: C_24  and  C_25
REMARK                            x       y       z     vdW  Elec       q    Type
REMARK                         _______ _______ _______ _____ _____    ______ ____
ROOT
ATOM      1  C   UNL     1       2.352   6.787  19.278  0.00  0.00    +0.000 C 
ATOM      2  O   UNL     1       2.327   6.521  18.087  0.00  0.00    +0.000 OA
ATOM      3  N   UNL     1       2.887   5.869  20.238  0.00  0.00    +0.000 N 
ATOM      4  H   UNL     1       2.671   6.038  21.209  0.00  0.00    +0.000 HD
ENDROOT
BRANCH   1   9
ATOM      5  C   UNL     1       0.841   9.991  20.416  0.00  0.00    +0.000 A 
ATOM      6  C   UNL     1       0.850   9.183  21.549  0.00  0.00    +0.000 A 
ATOM      7  C   UNL     1       0.446   9.402  22.970  0.00  0.00    +0.000 C 
ATOM      8  N   UNL     1       1.348   7.959  21.183  0.00  0.00    +0.000 N 
ATOM      9  C   UNL     1       1.741   7.955  19.864  0.00  0.00    +0.000 A 
ATOM     10  C   UNL     1       1.379   9.189  19.334  0.00  0.00    +0.000 A 
ATOM     11  C   UNL     1       1.483   9.655  17.916  0.00  0.00    +0.000 C 
ATOM     12  H   UNL     1       1.459   7.170  21.813  0.00  0.00    +0.000 HD
BRANCH   5  13
ATOM     13  C   UNL     1       0.429  11.398  20.297  0.00  0.00    +0.000 C 
ATOM     14  O   UNL     1       1.190  12.328  20.551  0.00  0.00    +0.000 OA
BRANCH  13  15
ATOM     15  O   UNL     1      -0.886  11.558  20.000  0.00  0.00    +0.000 OA
BRANCH  15  17
ATOM     16  C   UNL     1      -1.839  11.486  17.818  0.00  0.00    +0.000 C 
ATOM     17  C   UNL     1      -1.157  12.366  18.848  0.00  0.00    +0.000 C 
ENDBRANCH  15  17
ENDBRANCH  13  15
ENDBRANCH   5  13
ENDBRANCH   1   9
BRANCH   3  18
ATOM     18  C   UNL     1       3.613   4.734  19.897  0.00  0.00    +0.000 A 
ATOM     19  C   UNL     1       3.246   3.416  20.063  0.00  0.00    +0.000 A 
ATOM     20  C   UNL     1       4.325   2.665  19.568  0.00  0.00    +0.000 A 
ATOM     21  N   UNL     1       5.302   3.436  19.099  0.00  0.00    +0.000 NA
ATOM     22  N   UNL     1       4.857   4.694  19.300  0.00  0.00    +0.000 N 
BRANCH  22  23
ATOM     23  C   UNL     1       5.742   5.807  19.012  0.00  0.00    +0.000 C 
ATOM     24  C   UNL     1       7.188   5.533  19.422  0.00  0.00    +0.000 C 
ATOM     25  C   UNL     1       7.999   6.557  18.644  0.00  0.00    +0.000 C 
ATOM     26  C   UNL     1       7.201   6.863  17.379  0.00  0.00    +0.000 C 
ATOM     27  C   UNL     1       5.848   6.170  17.529  0.00  0.00    +0.000 C 
ENDBRANCH  22  23
ENDBRANCH   3  18
TORSDOF 6
ENDMDL
MODEL 2
REMARK VINA RESULT:      -7.5      0.830      1.260
REMARK  Name = 
REMARK  9 active torsions:
REMARK  status: ('A' for Active; 'I' for Inactive)
REMARK    1  A    between atoms: C_1  and  C_2
REMARK    2  A    between atoms: C_2  and  O_3
REMARK    3  A    between atoms: O_3  and  C_4
REMARK    4  A    between atoms: C_4  and  C_6
REMARK    5  A    between atoms: C_7  and  C_8
REMARK    6  A    between atoms: C_10  and  C_11
REMARK    7  A    between atoms: N_13  and  C_14
REMARK    8  A    between atoms: N_18  and  C_19
REMARK    9  A    between atoms: C_24  and  C_25
REMARK                            x       y       z     vdW  Elec       q    Type
REMARK                         _______ _______ _______ _____ _____    ______ ____
ROOT
ATOM      1  C   UNL     1       2.353   6.773  19.302  0.00  0.00    +0.000 C 
ATOM      2  O   UNL     1       2.315   6.495  18.114  0.00  0.00    +0.000 OA
ATOM      3  N   UNL     1       2.902   5.865  20.265  0.00  0.00    +0.000 N 
ATOM      4  H   UNL     1       2.696   6.043  21.236  0.00  0.00    +0.000 HD
ENDROOT
BRANCH   1   9
ATOM      5  C   UNL     1       0.848   9.984  20.428  0.00  0.00    +0.000 A 
ATOM      6  C   UNL     1       0.859   9.182  21.565  0.00  0.00    +0.000 A 
ATOM      7  C   UNL     1       0.459   9.408  22.986  0.00  0.00    +0.000 C 
ATOM      8  N   UNL     1       1.355   7.955  21.204  0.00  0.00    +0.000 N 
ATOM      9  C   UNL     1       1.745   7.944  19.884  0.00  0.00    +0.000 A 
ATOM     10  C   UNL     1       1.383   9.175  19.349  0.00  0.00    +0.000 A 
ATOM     11  C   UNL     1       1.484   9.634  17.928  0.00  0.00    +0.000 C 
ATOM     12  H   UNL     1       1.467   7.169  21.837  0.00  0.00    +0.000 HD
BRANCH   5  13
ATOM     13  C   UNL     1       0.437  11.391  20.302  0.00  0.00    +0.000 C 
ATOM     14  O   UNL     1      -0.734  11.719  20.133  0.00  0.00    +0.000 OA
BRANCH  13  15
ATOM     15  O   UNL     1       1.477  12.263  20.272  0.00  0.00    +0.000 OA
BRANCH  15  17
ATOM     16  C   UNL     1       2.479  13.195  18.322  0.00  0.00    +0.000 C 
ATOM     17  C   UNL     1       1.349  13.331  19.326  0.00  0.00    +0.000 C 
ENDBRANCH  15  17
ENDBRANCH  13  15
ENDBRANCH   5  13
ENDBRANCH   1   9
BRANCH   3  18
ATOM     18  C   UNL     1       3.627   4.730  19.927  0.00  0.00    +0.000 A 
ATOM     19  C   UNL     1       3.260   3.412  20.097  0.00  0.00    +0.000 A 
ATOM     20  C   UNL     1       4.339   2.659  19.603  0.00  0.00    +0.000 A 
ATOM     21  N   UNL     1       5.316   3.430  19.131  0.00  0.00    +0.000 NA
ATOM     22  N   UNL     1       4.871   4.688  19.329  0.00  0.00    +0.000 N 
BRANCH  22  23
ATOM     23  C   UNL     1       5.755   5.801  19.037  0.00  0.00    +0.000 C 
ATOM     24  C   UNL     1       7.206   5.519  19.424  0.00  0.00    +0.000 C 
ATOM     25  C   UNL     1       8.010   6.546  18.642  0.00  0.00    +0.000 C 
ATOM     26  C   UNL     1       7.194   6.864  17.391  0.00  0.00    +0.000 C 
ATOM     27  C   UNL     1       5.841   6.175  17.555  0.00  0.00    +0.000 C 
ENDBRANCH  22  23
ENDBRANCH   3  18
TORSDOF 6
ENDMDL
MODEL 3
REMARK VINA RESULT:      -7.4      0.825      1.048
REMARK  Name = 
REMARK  9 active torsions:
REMARK  status: ('A' for Active; 'I' for Inactive)
REMARK    1  A    between atoms: C_1  and  C_2
REMARK    2  A    between atoms: C_2  and  O_3
REMARK    3  A    between atoms: O_3  and  C_4
REMARK    4  A    between atoms: C_4  and  C_6
REMARK    5  A    between atoms: C_7  and  C_8
REMARK    6  A    between atoms: C_10  and  C_11
REMARK    7  A    between atoms: N_13  and  C_14
REMARK    8  A    between atoms: N_18  and  C_19
REMARK    9  A    between atoms: C_24  and  C_25
REMARK                            x       y       z     vdW  Elec       q    Type
REMARK                         _______ _______ _______ _____ _____    ______ ____
ROOT
ATOM      1  C   UNL     1       2.358   6.774  19.306  0.00  0.00    +0.000 C 
ATOM      2  O   UNL     1       2.325   6.512  18.114  0.00  0.00    +0.000 OA
ATOM      3  N   UNL     1       2.906   5.854  20.258  0.00  0.00    +0.000 N 
ATOM      4  H   UNL     1       2.697   6.018  21.231  0.00  0.00    +0.000 HD
ENDROOT
BRANCH   1   9
ATOM      5  C   UNL     1       0.830   9.961  20.467  0.00  0.00    +0.000 A 
ATOM      6  C   UNL     1       0.880   9.159  21.604  0.00  0.00    +0.000 A 
ATOM      7  C   UNL     1       0.511   9.380  23.033  0.00  0.00    +0.000 C 
ATOM      8  N   UNL     1       1.387   7.940  21.231  0.00  0.00    +0.000 N 
ATOM      9  C   UNL     1       1.745   7.935  19.902  0.00  0.00    +0.000 A 
ATOM     10  C   UNL     1       1.351   9.160  19.376  0.00  0.00    +0.000 A 
ATOM     11  C   UNL     1       1.411   9.620  17.953  0.00  0.00    +0.000 C 
ATOM     12  H   UNL     1       1.526   7.157  21.861  0.00  0.00    +0.000 HD
BRANCH   5  13
ATOM     13  C   UNL     1       0.393  11.361  20.351  0.00  0.00    +0.000 C 
ATOM     14  O   UNL     1       1.187  12.298  20.360  0.00  0.00    +0.000 OA
BRANCH  13  15
ATOM     15  O   UNL     1      -0.956  11.514  20.355  0.00  0.00    +0.000 OA
BRANCH  15  17
ATOM     16  C   UNL     1      -1.930  12.057  22.461  0.00  0.00    +0.000 C 
ATOM     17  C   UNL     1      -1.441  12.613  21.136  0.00  0.00    +0.000 C 
ENDBRANCH  15  17
ENDBRANCH  13  15
ENDBRANCH   5  13
ENDBRANCH   1   9
BRANCH   3  18
ATOM     18  C   UNL     1       3.635   4.725  19.906  0.00  0.00    +0.000 A 
ATOM     19  C   UNL     1       3.278   3.404  20.072  0.00  0.00    +0.000 A 
ATOM     20  C   UNL     1       4.357   2.661  19.564  0.00  0.00    +0.000 A 
ATOM     21  N   UNL     1       5.325   3.440  19.087  0.00  0.00    +0.000 NA
ATOM     22  N   UNL     1       4.873   4.695  19.296  0.00  0.00    +0.000 N 
BRANCH  22  23
ATOM     23  C   UNL     1       5.748   5.814  19.003  0.00  0.00    +0.000 C 
ATOM     24  C   UNL     1       7.199   5.551  19.404  0.00  0.00    +0.000 C 
ATOM     25  C   UNL     1       7.998   6.581  18.621  0.00  0.00    +0.000 C 
ATOM     26  C   UNL     1       7.189   6.879  17.360  0.00  0.00    +0.000 C 
ATOM     27  C   UNL     1       5.843   6.177  17.519  0.00  0.00    +0.000 C 
ENDBRANCH  22  23
ENDBRANCH   3  18
TORSDOF 6
ENDMDL
MODEL 4
REMARK VINA RESULT:      -7.3      1.686      1.817
REMARK  Name = 
REMARK  9 active torsions:
REMARK  status: ('A' for Active; 'I' for Inactive)
REMARK    1  A    between atoms: C_1  and  C_2
REMARK    2  A    between atoms: C_2  and  O_3
REMARK    3  A    between atoms: O_3  and  C_4
REMARK    4  A    between atoms: C_4  and  C_6
REMARK    5  A    between atoms: C_7  and  C_8
REMARK    6  A    between atoms: C_10  and  C_11
REMARK    7  A    between atoms: N_13  and  C_14
REMARK    8  A    between atoms: N_18  and  C_19
REMARK    9  A    between atoms: C_24  and  C_25
REMARK                            x       y       z     vdW  Elec       q    Type
REMARK                         _______ _______ _______ _____ _____    ______ ____
ROOT
ATOM      1  C   UNL     1       2.784   6.144  19.565  0.00  0.00    +0.000 C 
ATOM      2  O   UNL     1       3.869   5.832  20.030  0.00  0.00    +0.000 OA
ATOM      3  N   UNL     1       2.158   5.360  18.543  0.00  0.00    +0.000 N 
ATOM      4  H   UNL     1       1.392   5.784  18.040  0.00  0.00    +0.000 HD
ENDROOT
BRANCH   1   9
ATOM      5  C   UNL     1       1.088   9.431  19.961  0.00  0.00    +0.000 A 
ATOM      6  C   UNL     1       0.997   8.834  21.215  0.00  0.00    +0.000 A 
ATOM      7  C   UNL     1       0.443   9.280  22.528  0.00  0.00    +0.000 C 
ATOM      8  N   UNL     1       1.560   7.586  21.123  0.00  0.00    +0.000 N 
ATOM      9  C   UNL     1       2.088   7.369  19.871  0.00  0.00    +0.000 A 
ATOM     10  C   UNL     1       1.755   8.476  19.097  0.00  0.00    +0.000 A 
ATOM     11  C   UNL     1       1.995   8.692  17.636  0.00  0.00    +0.000 C 
ATOM     12  H   UNL     1       1.623   6.925  21.891  0.00  0.00    +0.000 HD
BRANCH   5  13
ATOM     13  C   UNL     1       0.657  10.777  19.554  0.00  0.00    +0.000 C 
ATOM     14  O   UNL     1       1.450  11.703  19.407  0.00  0.00    +0.000 OA
BRANCH  13  15
ATOM     15  O   UNL     1      -0.691  10.919  19.477  0.00  0.00    +0.000 OA
BRANCH  15  17
ATOM     16  C   UNL     1      -1.668  10.069  17.477  0.00  0.00    +0.000 C 
ATOM     17  C   UNL     1      -1.189  11.318  18.193  0.00  0.00    +0.000 C 
ENDBRANCH  15  17
ENDBRANCH  13  15
ENDBRANCH   5  13
ENDBRANCH   1   9
BRANCH   3  18
ATOM     18  C   UNL     1       2.593   4.096  18.165  0.00  0.00    +0.000 A 
ATOM     19  C   UNL     1       2.022   2.880  18.470  0.00  0.00    +0.000 A 
ATOM     20  C   UNL     1       2.845   1.919  17.860  0.00  0.00    +0.000 A 
ATOM     21  N   UNL     1       3.856   2.472  17.194  0.00  0.00    +0.000 NA
ATOM     22  N   UNL     1       3.691   3.797  17.383  0.00  0.00    +0.000 N 
BRANCH  22  23
ATOM     23  C   UNL     1       4.706   4.709  16.888  0.00  0.00    +0.000 C 
ATOM     24  C   UNL     1       6.008   4.632  17.685  0.00  0.00    +0.000 C 
ATOM     25  C   UNL     1       7.045   5.265  16.771  0.00  0.00    +0.000 C 
ATOM     26  C   UNL     1       6.555   5.034  15.344  0.00  0.00    +0.000 C 
ATOM     27  C   UNL     1       5.147   4.450  15.446  0.00  0.00    +0.000 C 
ENDBRANCH  22  23
ENDBRANCH   3  18
TORSDOF 6
ENDMDL
MODEL 5
REMARK VINA RESULT:      -7.1      1.036      2.993
REMARK  Name = 
REMARK  9 active torsions:
REMARK  status: ('A' for Active; 'I' for Inactive)
REMARK    1  A    between atoms: C_1  and  C_2
REMARK    2  A    between atoms: C_2  and  O_3
REMARK    3  A    between atoms: O_3  and  C_4
REMARK    4  A    between atoms: C_4  and  C_6
REMARK    5  A    between atoms: C_7  and  C_8
REMARK    6  A    between atoms: C_10  and  C_11
REMARK    7  A    between atoms: N_13  and  C_14
REMARK    8  A    between atoms: N_18  and  C_19
REMARK    9  A    between atoms: C_24  and  C_25
REMARK                            x       y       z     vdW  Elec       q    Type
REMARK                         _______ _______ _______ _____ _____    ______ ____
ROOT
ATOM      1  C   UNL     1       2.570   7.026  19.010  0.00  0.00    +0.000 C 
ATOM      2  O   UNL     1       2.440   6.729  17.833  0.00  0.00    +0.000 OA
ATOM      3  N   UNL     1       3.439   6.287  19.875  0.00  0.00    +0.000 N 
ATOM      4  H   UNL     1       3.329   6.427  20.868  0.00  0.00    +0.000 HD
ENDROOT
BRANCH   1   9
ATOM      5  C   UNL     1       0.615   9.864  20.412  0.00  0.00    +0.000 A 
ATOM      6  C   UNL     1       0.667   8.929  21.441  0.00  0.00    +0.000 A 
ATOM      7  C   UNL     1       0.168   8.922  22.849  0.00  0.00    +0.000 C 
ATOM      8  N   UNL     1       1.333   7.827  20.968  0.00  0.00    +0.000 N 
ATOM      9  C   UNL     1       1.789   8.032  19.686  0.00  0.00    +0.000 A 
ATOM     10  C   UNL     1       1.303   9.271  19.281  0.00  0.00    +0.000 A 
ATOM     11  C   UNL     1       1.419   9.917  17.937  0.00  0.00    +0.000 C 
ATOM     12  H   UNL     1       1.509   6.985  21.508  0.00  0.00    +0.000 HD
BRANCH   5  13
ATOM     13  C   UNL     1       0.036  11.217  20.430  0.00  0.00    +0.000 C 
ATOM     14  O   UNL     1       0.686  12.203  20.764  0.00  0.00    +0.000 OA
BRANCH  13  15
ATOM     15  O   UNL     1      -1.295  11.244  20.163  0.00  0.00    +0.000 OA
BRANCH  15  17
ATOM     16  C   UNL     1      -2.250  10.701  18.049  0.00  0.00    +0.000 C 
ATOM     17  C   UNL     1      -1.649  11.809  18.894  0.00  0.00    +0.000 C 
ENDBRANCH  15  17
ENDBRANCH  13  15
ENDBRANCH   5  13
ENDBRANCH   1   9
BRANCH   3  18
ATOM     18  C   UNL     1       4.357   5.346  19.425  0.00  0.00    +0.000 A 
ATOM     19  C   UNL     1       5.591   5.577  18.856  0.00  0.00    +0.000 A 
ATOM     20  C   UNL     1       6.113   4.303  18.573  0.00  0.00    +0.000 A 
ATOM     21  N   UNL     1       5.292   3.327  18.952  0.00  0.00    +0.000 NA
ATOM     22  N   UNL     1       4.228   3.973  19.473  0.00  0.00    +0.000 N 
BRANCH  22  23
ATOM     23  C   UNL     1       3.067   3.202  19.876  0.00  0.00    +0.000 C 
ATOM     24  C   UNL     1       2.621   3.510  21.305  0.00  0.00    +0.000 C 
ATOM     25  C   UNL     1       1.191   2.999  21.371  0.00  0.00    +0.000 C 
ATOM     26  C   UNL     1       0.639   3.088  19.950  0.00  0.00    +0.000 C 
ATOM     27  C   UNL     1       1.810   3.458  19.041  0.00  0.00    +0.000 C 
ENDBRANCH  22  23
ENDBRANCH   3  18
TORSDOF 6
ENDMDL
MODEL 6
REMARK VINA RESULT:      -7.1      2.686      7.933
REMARK  Name = 
REMARK  9 active torsions:
REMARK  status: ('A' for Active; 'I' for Inactive)
REMARK    1  A    between atoms: C_1  and  C_2
REMARK    2  A    between atoms: C_2  and  O_3
REMARK    3  A    between atoms: O_3  and  C_4
REMARK    4  A    between atoms: C_4  and  C_6
REMARK    5  A    between atoms: C_7  and  C_8
REMARK    6  A    between atoms: C_10  and  C_11
REMARK    7  A    between atoms: N_13  and  C_14
REMARK    8  A    between atoms: N_18  and  C_19
REMARK    9  A    between atoms: C_24  and  C_25
REMARK                            x       y       z     vdW  Elec       q    Type
REMARK                         _______ _______ _______ _____ _____    ______ ____
ROOT
ATOM      1  C   UNL     1       1.431   8.902  20.074  0.00  0.00    +0.000 C 
ATOM      2  O   UNL     1       1.091   9.373  21.148  0.00  0.00    +0.000 OA
ATOM      3  N   UNL     1       1.227   9.615  18.849  0.00  0.00    +0.000 N 
ATOM      4  H   UNL     1       1.309   9.089  17.991  0.00  0.00    +0.000 HD
ENDROOT
BRANCH   1   9
ATOM      5  C   UNL     1       2.843   5.567  19.224  0.00  0.00    +0.000 A 
ATOM      6  C   UNL     1       2.257   5.393  20.474  0.00  0.00    +0.000 A 
ATOM      7  C   UNL     1       2.089   4.215  21.375  0.00  0.00    +0.000 C 
ATOM      8  N   UNL     1       1.761   6.609  20.873  0.00  0.00    +0.000 N 
ATOM      9  C   UNL     1       1.932   7.562  19.895  0.00  0.00    +0.000 A 
ATOM     10  C   UNL     1       2.663   6.963  18.875  0.00  0.00    +0.000 A 
ATOM     11  C   UNL     1       3.208   7.594  17.632  0.00  0.00    +0.000 C 
ATOM     12  H   UNL     1       1.286   6.776  21.755  0.00  0.00    +0.000 HD
BRANCH   5  13
ATOM     13  C   UNL     1       3.484   4.560  18.364  0.00  0.00    +0.000 C 
ATOM     14  O   UNL     1       4.694   4.354  18.386  0.00  0.00    +0.000 OA
BRANCH  13  15
ATOM     15  O   UNL     1       2.635   3.980  17.477  0.00  0.00    +0.000 OA
BRANCH  15  17
ATOM     16  C   UNL     1       1.284   2.323  18.529  0.00  0.00    +0.000 C 
ATOM     17  C   UNL     1       2.478   2.563  17.623  0.00  0.00    +0.000 C 
ENDBRANCH  15  17
ENDBRANCH  13  15
ENDBRANCH   5  13
ENDBRANCH   1   9
BRANCH   3  18
ATOM     18  C   UNL     1       0.854  10.952  18.787  0.00  0.00    +0.000 A 
ATOM     19  C   UNL     1       1.659  12.060  18.935  0.00  0.00    +0.000 A 
ATOM     20  C   UNL     1       0.802  13.164  18.794  0.00  0.00    +0.000 A 
ATOM     21  N   UNL     1      -0.454  12.797  18.550  0.00  0.00    +0.000 NA
ATOM     22  N   UNL     1      -0.410  11.449  18.544  0.00  0.00    +0.000 N 
BRANCH  22  23
ATOM     23  C   UNL     1      -1.651  10.706  18.428  0.00  0.00    +0.000 C 
ATOM     24  C   UNL     1      -2.885  11.606  18.477  0.00  0.00    +0.000 C 
ATOM     25  C   UNL     1      -3.997  10.752  17.887  0.00  0.00    +0.000 C 
ATOM     26  C   UNL     1      -3.321   9.778  16.924  0.00  0.00    +0.000 C 
ATOM     27  C   UNL     1      -1.815   9.939  17.113  0.00  0.00    +0.000 C 
ENDBRANCH  22  23
ENDBRANCH   3  18
TORSDOF 6
ENDMDL
MODEL 7
REMARK VINA RESULT:      -7.0      2.693      7.477
REMARK  Name = 
REMARK  9 active torsions:
REMARK  status: ('A' for Active; 'I' for Inactive)
REMARK    1  A    between atoms: C_1  and  C_2
REMARK    2  A    between atoms: C_2  and  O_3
REMARK    3  A    between atoms: O_3  and  C_4
REMARK    4  A    between atoms: C_4  and  C_6
REMARK    5  A    between atoms: C_7  and  C_8
REMARK    6  A    between atoms: C_10  and  C_11
REMARK    7  A    between atoms: N_13  and  C_14
REMARK    8  A    between atoms: N_18  and  C_19
REMARK    9  A    between atoms: C_24  and  C_25
REMARK                            x       y       z     vdW  Elec       q    Type
REMARK                         _______ _______ _______ _____ _____    ______ ____
ROOT
ATOM      1  C   UNL     1       1.887   8.693  18.142  0.00  0.00    +0.000 C 
ATOM      2  O   UNL     1       2.253   9.318  17.159  0.00  0.00    +0.000 OA
ATOM      3  N   UNL     1       0.886   9.212  19.026  0.00  0.00    +0.000 N 
ATOM      4  H   UNL     1       0.796   8.772  19.929  0.00  0.00    +0.000 HD
ENDROOT
BRANCH   1   9
ATOM      5  C   UNL     1       3.697   5.553  18.978  0.00  0.00    +0.000 A 
ATOM      6  C   UNL     1       2.695   5.649  19.940  0.00  0.00    +0.000 A 
ATOM      7  C   UNL     1       2.266   4.771  21.068  0.00  0.00    +0.000 C 
ATOM      8  N   UNL     1       2.019   6.823  19.720  0.00  0.00    +0.000 N 
ATOM      9  C   UNL     1       2.491   7.467  18.599  0.00  0.00    +0.000 A 
ATOM     10  C   UNL     1       3.584   6.735  18.146  0.00  0.00    +0.000 A 
ATOM     11  C   UNL     1       4.519   7.064  17.025  0.00  0.00    +0.000 C 
ATOM     12  H   UNL     1       1.240   7.153  20.281  0.00  0.00    +0.000 HD
BRANCH   5  13
ATOM     13  C   UNL     1       4.667   4.467  18.772  0.00  0.00    +0.000 C 
ATOM     14  O   UNL     1       5.769   4.460  19.316  0.00  0.00    +0.000 OA
BRANCH  13  15
ATOM     15  O   UNL     1       4.277   3.555  17.845  0.00  0.00    +0.000 OA
BRANCH  15  17
ATOM     16  C   UNL     1       2.248   2.307  17.881  0.00  0.00    +0.000 C 
ATOM     17  C   UNL     1       3.682   2.365  18.376  0.00  0.00    +0.000 C 
ENDBRANCH  15  17
ENDBRANCH  13  15
ENDBRANCH   5  13
ENDBRANCH   1   9
BRANCH   3  18
ATOM     18  C   UNL     1       0.101  10.321  18.735  0.00  0.00    +0.000 A 
ATOM     19  C   UNL     1      -1.198  10.338  18.275  0.00  0.00    +0.000 A 
ATOM     20  C   UNL     1      -1.525  11.697  18.135  0.00  0.00    +0.000 A 
ATOM     21  N   UNL     1      -0.524  12.495  18.499  0.00  0.00    +0.000 NA
ATOM     22  N   UNL     1       0.459  11.648  18.866  0.00  0.00    +0.000 N 
BRANCH  22  23
ATOM     23  C   UNL     1       1.761  12.188  19.208  0.00  0.00    +0.000 C 
ATOM     24  C   UNL     1       2.314  13.122  18.132  0.00  0.00    +0.000 C 
ATOM     25  C   UNL     1       3.394  13.919  18.846  0.00  0.00    +0.000 C 
ATOM     26  C   UNL     1       2.985  13.973  20.315  0.00  0.00    +0.000 C 
ATOM     27  C   UNL     1       1.784  13.043  20.477  0.00  0.00    +0.000 C 
ENDBRANCH  22  23
ENDBRANCH   3  18
TORSDOF 6
ENDMDL
MODEL 8
REMARK VINA RESULT:      -7.0      2.651      8.111
REMARK  Name = 
REMARK  9 active torsions:
REMARK  status: ('A' for Active; 'I' for Inactive)
REMARK    1  A    between atoms: C_1  and  C_2
REMARK    2  A    between atoms: C_2  and  O_3
REMARK    3  A    between atoms: O_3  and  C_4
REMARK    4  A    between atoms: C_4  and  C_6
REMARK    5  A    between atoms: C_7  and  C_8
REMARK    6  A    between atoms: C_10  and  C_11
REMARK    7  A    between atoms: N_13  and  C_14
REMARK    8  A    between atoms: N_18  and  C_19
REMARK    9  A    between atoms: C_24  and  C_25
REMARK                            x       y       z     vdW  Elec       q    Type
REMARK                         _______ _______ _______ _____ _____    ______ ____
ROOT
ATOM      1  C   UNL     1       1.491   8.413  20.085  0.00  0.00    +0.000 C 
ATOM      2  O   UNL     1       1.063   8.326  21.225  0.00  0.00    +0.000 OA
ATOM      3  N   UNL     1       1.154   9.522  19.243  0.00  0.00    +0.000 N 
ATOM      4  H   UNL     1       1.339   9.425  18.257  0.00  0.00    +0.000 HD
ENDROOT
BRANCH   1   9
ATOM      5  C   UNL     1       3.313   5.492  18.675  0.00  0.00    +0.000 A 
ATOM      6  C   UNL     1       3.673   6.560  17.858  0.00  0.00    +0.000 A 
ATOM      7  C   UNL     1       4.596   6.696  16.692  0.00  0.00    +0.000 C 
ATOM      8  N   UNL     1       2.987   7.665  18.293  0.00  0.00    +0.000 N 
ATOM      9  C   UNL     1       2.247   7.381  19.418  0.00  0.00    +0.000 A 
ATOM     10  C   UNL     1       2.375   6.016  19.648  0.00  0.00    +0.000 A 
ATOM     11  C   UNL     1       1.684   5.182  20.680  0.00  0.00    +0.000 C 
ATOM     12  H   UNL     1       3.053   8.587  17.872  0.00  0.00    +0.000 HD
BRANCH   5  13
ATOM     13  C   UNL     1       3.798   4.103  18.635  0.00  0.00    +0.000 C 
ATOM     14  O   UNL     1       4.681   3.695  19.384  0.00  0.00    +0.000 OA
BRANCH  13  15
ATOM     15  O   UNL     1       3.265   3.369  17.625  0.00  0.00    +0.000 OA
BRANCH  15  17
ATOM     16  C   UNL     1       1.380   2.271  18.583  0.00  0.00    +0.000 C 
ATOM     17  C   UNL     1       2.771   2.079  18.006  0.00  0.00    +0.000 C 
ENDBRANCH  15  17
ENDBRANCH  13  15
ENDBRANCH   5  13
ENDBRANCH   1   9
BRANCH   3  18
ATOM     18  C   UNL     1       0.525  10.673  19.701  0.00  0.00    +0.000 A 
ATOM     19  C   UNL     1       1.038  11.638  20.540  0.00  0.00    +0.000 A 
ATOM     20  C   UNL     1       0.007  12.580  20.698  0.00  0.00    +0.000 A 
ATOM     21  N   UNL     1      -1.078  12.259  19.997  0.00  0.00    +0.000 NA
ATOM     22  N   UNL     1      -0.751  11.099  19.391  0.00  0.00    +0.000 N 
BRANCH  22  23
ATOM     23  C   UNL     1      -1.765  10.392  18.632  0.00  0.00    +0.000 C 
ATOM     24  C   UNL     1      -3.039  11.214  18.440  0.00  0.00    +0.000 C 
ATOM     25  C   UNL     1      -3.751  10.537  17.279  0.00  0.00    +0.000 C 
ATOM     26  C   UNL     1      -2.661   9.889  16.429  0.00  0.00    +0.000 C 
ATOM     27  C   UNL     1      -1.353  10.023  17.205  0.00  0.00    +0.000 C 
ENDBRANCH  22  23
ENDBRANCH   3  18
TORSDOF 6
ENDMDL
MODEL 9
REMARK VINA RESULT:      -7.0      1.855      2.190
REMARK  Name = 
REMARK  9 active torsions:
REMARK  status: ('A' for Active; 'I' for Inactive)
REMARK    1  A    between atoms: C_1  and  C_2
REMARK    2  A    between atoms: C_2  and  O_3
REMARK    3  A    between atoms: O_3  and  C_4
REMARK    4  A    between atoms: C_4  and  C_6
REMARK    5  A    between atoms: C_7  and  C_8
REMARK    6  A    between atoms: C_10  and  C_11
REMARK    7  A    between atoms: N_13  and  C_14
REMARK    8  A    between atoms: N_18  and  C_19
REMARK    9  A    between atoms: C_24  and  C_25
REMARK                            x       y       z     vdW  Elec       q    Type
REMARK                         _______ _______ _______ _____ _____    ______ ____
ROOT
ATOM      1  C   UNL     1       2.787   6.136  19.534  0.00  0.00    +0.000 C 
ATOM      2  O   UNL     1       3.875   5.851  20.008  0.00  0.00    +0.000 OA
ATOM      3  N   UNL     1       2.179   5.326  18.521  0.00  0.00    +0.000 N 
ATOM      4  H   UNL     1       1.408   5.729  18.009  0.00  0.00    +0.000 HD
ENDROOT
BRANCH   1   9
ATOM      5  C   UNL     1       1.056   9.410  19.887  0.00  0.00    +0.000 A 
ATOM      6  C   UNL     1       0.887   8.787  21.120  0.00  0.00    +0.000 A 
ATOM      7  C   UNL     1       0.247   9.204  22.403  0.00  0.00    +0.000 C 
ATOM      8  N   UNL     1       1.459   7.543  21.038  0.00  0.00    +0.000 N 
ATOM      9  C   UNL     1       2.068   7.353  19.819  0.00  0.00    +0.000 A 
ATOM     10  C   UNL     1       1.781   8.474  19.049  0.00  0.00    +0.000 A 
ATOM     11  C   UNL     1       2.114   8.721  17.611  0.00  0.00    +0.000 C 
ATOM     12  H   UNL     1       1.475   6.865  21.795  0.00  0.00    +0.000 HD
BRANCH   5  13
ATOM     13  C   UNL     1       0.647  10.763  19.480  0.00  0.00    +0.000 C 
ATOM     14  O   UNL     1      -0.381  10.974  18.842  0.00  0.00    +0.000 OA
BRANCH  13  15
ATOM     15  O   UNL     1       1.564  11.721  19.771  0.00  0.00    +0.000 OA
BRANCH  15  17
ATOM     16  C   UNL     1       2.714  13.064  18.175  0.00  0.00    +0.000 C 
ATOM     17  C   UNL     1       1.451  12.926  19.004  0.00  0.00    +0.000 C 
ENDBRANCH  15  17
ENDBRANCH  13  15
ENDBRANCH   5  13
ENDBRANCH   1   9
BRANCH   3  18
ATOM     18  C   UNL     1       2.639   4.065  18.163  0.00  0.00    +0.000 A 
ATOM     19  C   UNL     1       2.090   2.843  18.488  0.00  0.00    +0.000 A 
ATOM     20  C   UNL     1       2.932   1.888  17.893  0.00  0.00    +0.000 A 
ATOM     21  N   UNL     1       3.932   2.450  17.218  0.00  0.00    +0.000 NA
ATOM     22  N   UNL     1       3.742   3.775  17.386  0.00  0.00    +0.000 N 
BRANCH  22  23
ATOM     23  C   UNL     1       4.739   4.698  16.877  0.00  0.00    +0.000 C 
ATOM     24  C   UNL     1       6.044   4.655  17.672  0.00  0.00    +0.000 C 
ATOM     25  C   UNL     1       7.068   5.294  16.748  0.00  0.00    +0.000 C 
ATOM     26  C   UNL     1       6.579   5.035  15.325  0.00  0.00    +0.000 C 
ATOM     27  C   UNL     1       5.183   4.427  15.437  0.00  0.00    +0.000 C 
ENDBRANCH  22  23
ENDBRANCH   3  18
TORSDOF 6
ENDMDL
