MODEL 1
REMARK VINA RESULT:      -6.5      0.000      0.000
REMARK  Name = 
REMARK  5 active torsions:
REMARK  status: ('A' for Active; 'I' for Inactive)
REMARK    1  A    between atoms: C_1  and  O_2
REMARK    2  A    between atoms: O_2  and  C_3
REMARK    3  A    between atoms: N_12  and  C_13
REMARK    4  A    between atoms: C_13  and  C_14
REMARK    5  A    between atoms: C_14  and  O_15
REMARK                            x       y       z     vdW  Elec       q    Type
REMARK                         _______ _______ _______ _____ _____    ______ ____
ROOT
ATOM      1  C   UNL     1       2.152   6.399  19.978  0.00  0.00    +0.000 C 
ATOM      2  C   UNL     1       1.544   5.449  20.701  0.00  0.00    +0.000 C 
ATOM      3  C   UNL     1       1.656   4.011  20.389  0.00  0.00    +0.000 C 
ATOM      4  O   UNL     1       1.020   3.207  21.057  0.00  0.00    +0.000 OA
ATOM      5  C   UNL     1       2.553   3.615  19.278  0.00  0.00    +0.000 A 
ATOM      6  N   UNL     1       2.672   2.288  19.059  0.00  0.00    +0.000 NA
ATOM      7  C   UNL     1       3.491   1.943  18.066  0.00  0.00    +0.000 A 
ATOM      8  N   UNL     1       4.186   2.796  17.301  0.00  0.00    +0.000 NA
ATOM      9  C   UNL     1       4.054   4.117  17.544  0.00  0.00    +0.000 A 
ATOM     10  N   UNL     1       4.892   5.011  16.854  0.00  0.00    +0.000 N 
ATOM     11  C   UNL     1       3.212   4.576  18.550  0.00  0.00    +0.000 A 
ATOM     12  C   UNL     1       2.970   6.003  18.794  0.00  0.00    +0.000 C 
ATOM     13  O   UNL     1       3.411   6.848  18.016  0.00  0.00    +0.000 OA
ATOM     14  H   UNL     1       4.441   5.933  16.807  0.00  0.00    +0.000 HD
ENDROOT
BRANCH   1  16
ATOM     15  C   UNL     1       1.142   8.212  21.179  0.00  0.00    +0.000 C 
ATOM     16  O   UNL     1       2.079   7.757  20.212  0.00  0.00    +0.000 OA
ENDBRANCH   1  16
BRANCH  10  17
ATOM     17  C   UNL     1       5.369   4.558  15.544  0.00  0.00    +0.000 C 
BRANCH  17  18
ATOM     18  C   UNL     1       6.898   4.434  15.594  0.00  0.00    +0.000 C 
BRANCH  18  19
ATOM     19  O   UNL     1       7.510   5.500  14.869  0.00  0.00    +0.000 OA
ATOM     20  H   UNL     1       7.375   6.297  15.418  0.00  0.00    +0.000 HD
ENDBRANCH  18  19
ENDBRANCH  17  18
ENDBRANCH  10  17
TORSDOF 4
ENDMDL
MODEL 2
REMARK VINA RESULT:      -6.2      1.817      3.381
REMARK  Name = 
REMARK  5 active torsions:
REMARK  status: ('A' for Active; 'I' for Inactive)
REMARK    1  A    between atoms: C_1  and  O_2
REMARK    2  A    between atoms: O_2  and  C_3
REMARK    3  A    between atoms: N_12  and  C_13
REMARK    4  A    between atoms: C_13  and  C_14
REMARK    5  A    between atoms: C_14  and  O_15
REMARK                            x       y       z     vdW  Elec       q    Type
REMARK                         _______ _______ _______ _____ _____    ______ ____
ROOT
ATOM      1  C   UNL     1       2.944   3.996  20.452  0.00  0.00    +0.000 C 
ATOM      2  C   UNL     1       2.147   5.068  20.561  0.00  0.00    +0.000 C 
ATOM      3  C   UNL     1       2.334   6.289  19.753  0.00  0.00    +0.000 C 
ATOM      4  O   UNL     1       1.605   7.252  19.954  0.00  0.00    +0.000 OA
ATOM      5  C   UNL     1       3.399   6.277  18.722  0.00  0.00    +0.000 A 
ATOM      6  N   UNL     1       3.503   7.392  17.967  0.00  0.00    +0.000 NA
ATOM      7  C   UNL     1       4.456   7.364  17.036  0.00  0.00    +0.000 A 
ATOM      8  N   UNL     1       5.285   6.338  16.802  0.00  0.00    +0.000 NA
ATOM      9  C   UNL     1       5.157   5.234  17.567  0.00  0.00    +0.000 A 
ATOM     10  N   UNL     1       5.913   4.097  17.232  0.00  0.00    +0.000 N 
ATOM     11  C   UNL     1       4.201   5.172  18.575  0.00  0.00    +0.000 A 
ATOM     12  C   UNL     1       4.083   4.028  19.487  0.00  0.00    +0.000 C 
ATOM     13  O   UNL     1       4.926   3.133  19.472  0.00  0.00    +0.000 OA
ATOM     14  H   UNL     1       6.043   3.515  18.070  0.00  0.00    +0.000 HD
ENDROOT
BRANCH   1  16
ATOM     15  C   UNL     1       1.552   2.515  21.723  0.00  0.00    +0.000 C 
ATOM     16  O   UNL     1       2.827   2.832  21.183  0.00  0.00    +0.000 OA
ENDBRANCH   1  16
BRANCH  10  17
ATOM     17  C   UNL     1       7.175   4.352  16.532  0.00  0.00    +0.000 C 
BRANCH  17  18
ATOM     18  C   UNL     1       6.902   4.382  15.022  0.00  0.00    +0.000 C 
BRANCH  18  19
ATOM     19  O   UNL     1       7.549   5.502  14.419  0.00  0.00    +0.000 OA
ATOM     20  H   UNL     1       8.493   5.415  14.657  0.00  0.00    +0.000 HD
ENDBRANCH  18  19
ENDBRANCH  17  18
ENDBRANCH  10  17
TORSDOF 4
ENDMDL
MODEL 3
REMARK VINA RESULT:      -6.2      1.886      3.431
REMARK  Name = 
REMARK  5 active torsions:
REMARK  status: ('A' for Active; 'I' for Inactive)
REMARK    1  A    between atoms: C_1  and  O_2
REMARK    2  A    between atoms: O_2  and  C_3
REMARK    3  A    between atoms: N_12  and  C_13
REMARK    4  A    between atoms: C_13  and  C_14
REMARK    5  A    between atoms: C_14  and  O_15
REMARK                            x       y       z     vdW  Elec       q    Type
REMARK                         _______ _______ _______ _____ _____    ______ ____
ROOT
ATOM      1  C   UNL     1       2.768   3.986  20.560  0.00  0.00    +0.000 C 
ATOM      2  C   UNL     1       2.073   5.102  20.816  0.00  0.00    +0.000 C 
ATOM      3  C   UNL     1       2.220   6.337  20.021  0.00  0.00    +0.000 C 
ATOM      4  O   UNL     1       1.599   7.337  20.355  0.00  0.00    +0.000 OA
ATOM      5  C   UNL     1       3.114   6.293  18.840  0.00  0.00    +0.000 A 
ATOM      6  N   UNL     1       3.180   7.425  18.106  0.00  0.00    +0.000 NA
ATOM      7  C   UNL     1       3.978   7.369  17.040  0.00  0.00    +0.000 A 
ATOM      8  N   UNL     1       4.689   6.300  16.657  0.00  0.00    +0.000 NA
ATOM      9  C   UNL     1       4.602   5.180  17.404  0.00  0.00    +0.000 A 
ATOM     10  N   UNL     1       5.218   4.009  16.929  0.00  0.00    +0.000 N 
ATOM     11  C   UNL     1       3.806   5.143  18.544  0.00  0.00    +0.000 A 
ATOM     12  C   UNL     1       3.747   3.978  19.434  0.00  0.00    +0.000 C 
ATOM     13  O   UNL     1       4.514   3.031  19.267  0.00  0.00    +0.000 OA
ATOM     14  H   UNL     1       5.432   3.390  17.721  0.00  0.00    +0.000 HD
ENDROOT
BRANCH   1  16
ATOM     15  C   UNL     1       1.422   2.462  21.832  0.00  0.00    +0.000 C 
ATOM     16  O   UNL     1       2.682   2.806  21.270  0.00  0.00    +0.000 OA
ENDBRANCH   1  16
BRANCH  10  17
ATOM     17  C   UNL     1       6.375   4.206  16.051  0.00  0.00    +0.000 C 
BRANCH  17  18
ATOM     18  C   UNL     1       7.586   4.591  16.912  0.00  0.00    +0.000 C 
BRANCH  18  19
ATOM     19  O   UNL     1       7.445   4.071  18.233  0.00  0.00    +0.000 OA
ATOM     20  H   UNL     1       6.522   4.265  18.491  0.00  0.00    +0.000 HD
ENDBRANCH  18  19
ENDBRANCH  17  18
ENDBRANCH  10  17
TORSDOF 4
ENDMDL
MODEL 4
REMARK VINA RESULT:      -6.0      1.753      3.436
REMARK  Name = 
REMARK  5 active torsions:
REMARK  status: ('A' for Active; 'I' for Inactive)
REMARK    1  A    between atoms: C_1  and  O_2
REMARK    2  A    between atoms: O_2  and  C_3
REMARK    3  A    between atoms: N_12  and  C_13
REMARK    4  A    between atoms: C_13  and  C_14
REMARK    5  A    between atoms: C_14  and  O_15
REMARK                            x       y       z     vdW  Elec       q    Type
REMARK                         _______ _______ _______ _____ _____    ______ ____
ROOT
ATOM      1  C   UNL     1       2.128   4.002  19.839  0.00  0.00    +0.000 C 
ATOM      2  C   UNL     1       1.743   5.217  20.250  0.00  0.00    +0.000 C 
ATOM      3  C   UNL     1       2.283   6.465  19.675  0.00  0.00    +0.000 C 
ATOM      4  O   UNL     1       1.930   7.538  20.146  0.00  0.00    +0.000 OA
ATOM      5  C   UNL     1       3.225   6.348  18.537  0.00  0.00    +0.000 A 
ATOM      6  N   UNL     1       3.654   7.511  18.002  0.00  0.00    +0.000 NA
ATOM      7  C   UNL     1       4.490   7.392  16.972  0.00  0.00    +0.000 A 
ATOM      8  N   UNL     1       4.915   6.236  16.444  0.00  0.00    +0.000 NA
ATOM      9  C   UNL     1       4.467   5.088  16.993  0.00  0.00    +0.000 A 
ATOM     10  N   UNL     1       4.780   3.874  16.355  0.00  0.00    +0.000 N 
ATOM     11  C   UNL     1       3.601   5.107  18.081  0.00  0.00    +0.000 A 
ATOM     12  C   UNL     1       3.158   3.887  18.764  0.00  0.00    +0.000 C 
ATOM     13  O   UNL     1       3.651   2.798  18.473  0.00  0.00    +0.000 OA
ATOM     14  H   UNL     1       4.753   3.110  17.042  0.00  0.00    +0.000 HD
ENDROOT
BRANCH   1  16
ATOM     15  C   UNL     1       1.795   2.578  21.741  0.00  0.00    +0.000 C 
ATOM     16  O   UNL     1       1.669   2.802  20.343  0.00  0.00    +0.000 OA
ENDBRANCH   1  16
BRANCH  10  17
ATOM     17  C   UNL     1       6.015   3.868  15.565  0.00  0.00    +0.000 C 
BRANCH  17  18
ATOM     18  C   UNL     1       5.654   4.074  14.087  0.00  0.00    +0.000 C 
BRANCH  18  19
ATOM     19  O   UNL     1       6.357   3.142  13.266  0.00  0.00    +0.000 OA
ATOM     20  H   UNL     1       5.833   3.076  12.443  0.00  0.00    +0.000 HD
ENDBRANCH  18  19
ENDBRANCH  17  18
ENDBRANCH  10  17
TORSDOF 4
ENDMDL
MODEL 5
REMARK VINA RESULT:      -5.9      2.318      4.987
REMARK  Name = 
REMARK  5 active torsions:
REMARK  status: ('A' for Active; 'I' for Inactive)
REMARK    1  A    between atoms: C_1  and  O_2
REMARK    2  A    between atoms: O_2  and  C_3
REMARK    3  A    between atoms: N_12  and  C_13
REMARK    4  A    between atoms: C_13  and  C_14
REMARK    5  A    between atoms: C_14  and  O_15
REMARK                            x       y       z     vdW  Elec       q    Type
REMARK                         _______ _______ _______ _____ _____    ______ ____
ROOT
ATOM      1  C   UNL     1       4.727   4.550  16.764  0.00  0.00    +0.000 C 
ATOM      2  C   UNL     1       4.723   3.355  17.369  0.00  0.00    +0.000 C 
ATOM      3  C   UNL     1       4.040   3.112  18.655  0.00  0.00    +0.000 C 
ATOM      4  O   UNL     1       4.134   2.010  19.179  0.00  0.00    +0.000 OA
ATOM      5  C   UNL     1       3.258   4.226  19.242  0.00  0.00    +0.000 A 
ATOM      6  N   UNL     1       2.603   3.948  20.389  0.00  0.00    +0.000 NA
ATOM      7  C   UNL     1       1.894   4.954  20.900  0.00  0.00    +0.000 A 
ATOM      8  N   UNL     1       1.785   6.179  20.366  0.00  0.00    +0.000 NA
ATOM      9  C   UNL     1       2.445   6.428  19.217  0.00  0.00    +0.000 A 
ATOM     10  N   UNL     1       2.216   7.654  18.567  0.00  0.00    +0.000 N 
ATOM     11  C   UNL     1       3.224   5.447  18.613  0.00  0.00    +0.000 A 
ATOM     12  C   UNL     1       4.027   5.699  17.411  0.00  0.00    +0.000 C 
ATOM     13  O   UNL     1       4.142   6.841  16.970  0.00  0.00    +0.000 OA
ATOM     14  H   UNL     1       3.030   7.888  17.983  0.00  0.00    +0.000 HD
ENDROOT
BRANCH   1  16
ATOM     15  C   UNL     1       6.769   4.728  15.519  0.00  0.00    +0.000 C 
ATOM     16  O   UNL     1       5.353   4.842  15.570  0.00  0.00    +0.000 OA
ENDBRANCH   1  16
BRANCH  10  17
ATOM     17  C   UNL     1       1.813   8.769  19.429  0.00  0.00    +0.000 C 
BRANCH  17  18
ATOM     18  C   UNL     1       1.128   9.837  18.564  0.00  0.00    +0.000 C 
BRANCH  18  19
ATOM     19  O   UNL     1       1.910  10.116  17.403  0.00  0.00    +0.000 OA
ATOM     20  H   UNL     1       2.070  11.080  17.425  0.00  0.00    +0.000 HD
ENDBRANCH  18  19
ENDBRANCH  17  18
ENDBRANCH  10  17
TORSDOF 4
ENDMDL
MODEL 6
REMARK VINA RESULT:      -5.9      1.790      4.544
REMARK  Name = 
REMARK  5 active torsions:
REMARK  status: ('A' for Active; 'I' for Inactive)
REMARK    1  A    between atoms: C_1  and  O_2
REMARK    2  A    between atoms: O_2  and  C_3
REMARK    3  A    between atoms: N_12  and  C_13
REMARK    4  A    between atoms: C_13  and  C_14
REMARK    5  A    between atoms: C_14  and  O_15
REMARK                            x       y       z     vdW  Elec       q    Type
REMARK                         _______ _______ _______ _____ _____    ______ ____
ROOT
ATOM      1  C   UNL     1       3.121   7.563  18.059  0.00  0.00    +0.000 C 
ATOM      2  C   UNL     1       4.058   7.356  17.124  0.00  0.00    +0.000 C 
ATOM      3  C   UNL     1       4.573   6.014  16.790  0.00  0.00    +0.000 C 
ATOM      4  O   UNL     1       5.475   5.910  15.970  0.00  0.00    +0.000 OA
ATOM      5  C   UNL     1       3.952   4.850  17.466  0.00  0.00    +0.000 A 
ATOM      6  N   UNL     1       4.412   3.636  17.094  0.00  0.00    +0.000 NA
ATOM      7  C   UNL     1       3.837   2.598  17.700  0.00  0.00    +0.000 A 
ATOM      8  N   UNL     1       2.863   2.674  18.618  0.00  0.00    +0.000 NA
ATOM      9  C   UNL     1       2.418   3.899  18.968  0.00  0.00    +0.000 A 
ATOM     10  N   UNL     1       1.296   3.987  19.810  0.00  0.00    +0.000 N 
ATOM     11  C   UNL     1       2.965   5.045  18.401  0.00  0.00    +0.000 A 
ATOM     12  C   UNL     1       2.574   6.398  18.814  0.00  0.00    +0.000 C 
ATOM     13  O   UNL     1       1.834   6.561  19.783  0.00  0.00    +0.000 OA
ATOM     14  H   UNL     1       1.314   4.885  20.310  0.00  0.00    +0.000 HD
ENDROOT
BRANCH   1  16
ATOM     15  C   UNL     1       1.442   9.247  17.748  0.00  0.00    +0.000 C 
ATOM     16  O   UNL     1       2.607   8.791  18.422  0.00  0.00    +0.000 OA
ENDBRANCH   1  16
BRANCH  10  17
ATOM     17  C   UNL     1       1.083   2.852  20.713  0.00  0.00    +0.000 C 
BRANCH  17  18
ATOM     18  C   UNL     1       1.951   3.050  21.964  0.00  0.00    +0.000 C 
BRANCH  18  19
ATOM     19  O   UNL     1       3.143   2.270  21.875  0.00  0.00    +0.000 OA
ATOM     20  H   UNL     1       3.841   2.896  21.598  0.00  0.00    +0.000 HD
ENDBRANCH  18  19
ENDBRANCH  17  18
ENDBRANCH  10  17
TORSDOF 4
ENDMDL
MODEL 7
REMARK VINA RESULT:      -5.9      1.882      2.159
REMARK  Name = 
REMARK  5 active torsions:
REMARK  status: ('A' for Active; 'I' for Inactive)
REMARK    1  A    between atoms: C_1  and  O_2
REMARK    2  A    between atoms: O_2  and  C_3
REMARK    3  A    between atoms: N_12  and  C_13
REMARK    4  A    between atoms: C_13  and  C_14
REMARK    5  A    between atoms: C_14  and  O_15
REMARK                            x       y       z     vdW  Elec       q    Type
REMARK                         _______ _______ _______ _____ _____    ______ ____
ROOT
ATOM      1  C   UNL     1       2.697   7.762  18.209  0.00  0.00    +0.000 C 
ATOM      2  C   UNL     1       1.992   7.260  19.231  0.00  0.00    +0.000 C 
ATOM      3  C   UNL     1       2.284   5.944  19.834  0.00  0.00    +0.000 C 
ATOM      4  O   UNL     1       1.555   5.523  20.723  0.00  0.00    +0.000 OA
ATOM      5  C   UNL     1       3.464   5.202  19.331  0.00  0.00    +0.000 A 
ATOM      6  N   UNL     1       3.730   4.029  19.945  0.00  0.00    +0.000 NA
ATOM      7  C   UNL     1       4.801   3.378  19.493  0.00  0.00    +0.000 A 
ATOM      8  N   UNL     1       5.608   3.797  18.508  0.00  0.00    +0.000 NA
ATOM      9  C   UNL     1       5.323   4.975  17.916  0.00  0.00    +0.000 A 
ATOM     10  N   UNL     1       6.245   5.499  16.992  0.00  0.00    +0.000 N 
ATOM     11  C   UNL     1       4.219   5.723  18.308  0.00  0.00    +0.000 A 
ATOM     12  C   UNL     1       3.821   6.965  17.635  0.00  0.00    +0.000 C 
ATOM     13  O   UNL     1       4.386   7.319  16.601  0.00  0.00    +0.000 OA
ATOM     14  H   UNL     1       5.757   6.130  16.343  0.00  0.00    +0.000 HD
ENDROOT
BRANCH   1  16
ATOM     15  C   UNL     1       1.322   9.715  17.998  0.00  0.00    +0.000 C 
ATOM     16  O   UNL     1       2.469   8.978  17.598  0.00  0.00    +0.000 OA
ENDBRANCH   1  16
BRANCH  10  17
ATOM     17  C   UNL     1       7.077   4.517  16.291  0.00  0.00    +0.000 C 
BRANCH  17  18
ATOM     18  C   UNL     1       6.853   4.670  14.781  0.00  0.00    +0.000 C 
BRANCH  18  19
ATOM     19  O   UNL     1       6.329   3.463  14.228  0.00  0.00    +0.000 OA
ATOM     20  H   UNL     1       6.718   2.744  14.763  0.00  0.00    +0.000 HD
ENDBRANCH  18  19
ENDBRANCH  17  18
ENDBRANCH  10  17
TORSDOF 4
ENDMDL
MODEL 8
REMARK VINA RESULT:      -5.9      2.910      6.423
REMARK  Name = 
REMARK  5 active torsions:
REMARK  status: ('A' for Active; 'I' for Inactive)
REMARK    1  A    between atoms: C_1  and  O_2
REMARK    2  A    between atoms: O_2  and  C_3
REMARK    3  A    between atoms: N_12  and  C_13
REMARK    4  A    between atoms: C_13  and  C_14
REMARK    5  A    between atoms: C_14  and  O_15
REMARK                            x       y       z     vdW  Elec       q    Type
REMARK                         _______ _______ _______ _____ _____    ______ ____
ROOT
ATOM      1  C   UNL     1       3.840   4.570  19.271  0.00  0.00    +0.000 C 
ATOM      2  C   UNL     1       4.405   4.879  18.096  0.00  0.00    +0.000 C 
ATOM      3  C   UNL     1       4.107   6.128  17.369  0.00  0.00    +0.000 C 
ATOM      4  O   UNL     1       4.614   6.311  16.270  0.00  0.00    +0.000 OA
ATOM      5  C   UNL     1       3.209   7.109  18.023  0.00  0.00    +0.000 A 
ATOM      6  N   UNL     1       3.005   8.262  17.351  0.00  0.00    +0.000 NA
ATOM      7  C   UNL     1       2.205   9.141  17.955  0.00  0.00    +0.000 A 
ATOM      8  N   UNL     1       1.617   8.966  19.146  0.00  0.00    +0.000 NA
ATOM      9  C   UNL     1       1.842   7.807  19.799  0.00  0.00    +0.000 A 
ATOM     10  N   UNL     1       1.358   7.674  21.112  0.00  0.00    +0.000 N 
ATOM     11  C   UNL     1       2.650   6.821  19.244  0.00  0.00    +0.000 A 
ATOM     12  C   UNL     1       2.853   5.512  19.877  0.00  0.00    +0.000 C 
ATOM     13  O   UNL     1       2.198   5.194  20.867  0.00  0.00    +0.000 OA
ATOM     14  H   UNL     1       1.226   6.678  21.329  0.00  0.00    +0.000 HD
ENDROOT
BRANCH   1  16
ATOM     15  C   UNL     1       3.900   2.173  19.327  0.00  0.00    +0.000 C 
ATOM     16  O   UNL     1       4.069   3.417  19.994  0.00  0.00    +0.000 OA
ENDBRANCH   1  16
BRANCH  10  17
ATOM     17  C   UNL     1       0.175   8.475  21.442  0.00  0.00    +0.000 C 
BRANCH  17  18
ATOM     18  C   UNL     1       0.486   9.325  22.681  0.00  0.00    +0.000 C 
BRANCH  18  19
ATOM     19  O   UNL     1      -0.691   9.512  23.467  0.00  0.00    +0.000 OA
ATOM     20  H   UNL     1      -1.203   8.685  23.367  0.00  0.00    +0.000 HD
ENDBRANCH  18  19
ENDBRANCH  17  18
ENDBRANCH  10  17
TORSDOF 4
ENDMDL
MODEL 9
REMARK VINA RESULT:      -5.9      1.159      1.214
REMARK  Name = 
REMARK  5 active torsions:
REMARK  status: ('A' for Active; 'I' for Inactive)
REMARK    1  A    between atoms: C_1  and  O_2
REMARK    2  A    between atoms: O_2  and  C_3
REMARK    3  A    between atoms: N_12  and  C_13
REMARK    4  A    between atoms: C_13  and  C_14
REMARK    5  A    between atoms: C_14  and  O_15
REMARK                            x       y       z     vdW  Elec       q    Type
REMARK                         _______ _______ _______ _____ _____    ______ ____
ROOT
ATOM      1  C   UNL     1       2.586   6.980  18.893  0.00  0.00    +0.000 C 
ATOM      2  C   UNL     1       1.821   6.325  19.777  0.00  0.00    +0.000 C 
ATOM      3  C   UNL     1       1.795   4.853  19.877  0.00  0.00    +0.000 C 
ATOM      4  O   UNL     1       1.022   4.324  20.665  0.00  0.00    +0.000 OA
ATOM      5  C   UNL     1       2.726   4.088  19.015  0.00  0.00    +0.000 A 
ATOM      6  N   UNL     1       2.713   2.747  19.174  0.00  0.00    +0.000 NA
ATOM      7  C   UNL     1       3.563   2.071  18.402  0.00  0.00    +0.000 A 
ATOM      8  N   UNL     1       4.407   2.614  17.514  0.00  0.00    +0.000 NA
ATOM      9  C   UNL     1       4.404   3.956  17.378  0.00  0.00    +0.000 A 
ATOM     10  N   UNL     1       5.389   4.548  16.566  0.00  0.00    +0.000 N 
ATOM     11  C   UNL     1       3.543   4.748  18.129  0.00  0.00    +0.000 A 
ATOM     12  C   UNL     1       3.445   6.202  17.953  0.00  0.00    +0.000 C 
ATOM     13  O   UNL     1       4.036   6.756  17.028  0.00  0.00    +0.000 OA
ATOM     14  H   UNL     1       5.049   5.456  16.225  0.00  0.00    +0.000 HD
ENDROOT
BRANCH   1  16
ATOM     15  C   UNL     1       1.640   8.977  17.962  0.00  0.00    +0.000 C 
ATOM     16  O   UNL     1       2.647   8.351  18.745  0.00  0.00    +0.000 OA
ENDBRANCH   1  16
BRANCH  10  17
ATOM     17  C   UNL     1       5.913   3.710  15.484  0.00  0.00    +0.000 C 
BRANCH  17  18
ATOM     18  C   UNL     1       6.589   4.615  14.445  0.00  0.00    +0.000 C 
BRANCH  18  19
ATOM     19  O   UNL     1       7.582   5.432  15.064  0.00  0.00    +0.000 OA
ATOM     20  H   UNL     1       8.317   4.826  15.282  0.00  0.00    +0.000 HD
ENDBRANCH  18  19
ENDBRANCH  17  18
ENDBRANCH  10  17
TORSDOF 4
ENDMDL
