MODEL 1
REMARK VINA RESULT:      -8.4      0.000      0.000
REMARK  Name = 
REMARK  11 active torsions:
REMARK  status: ('A' for Active; 'I' for Inactive)
REMARK    1  A    between atoms: C_1  and  O_2
REMARK    2  A    between atoms: O_2  and  C_3
REMARK    3  A    between atoms: C_3  and  C_4
REMARK    4  A    between atoms: C_5  and  C_6
REMARK    5  A    between atoms: C_8  and  O_9
REMARK    6  A    between atoms: C_13  and  C_14
REMARK    7  A    between atoms: C_14  and  O_15
REMARK    8  A    between atoms: C_16  and  C_17
REMARK    9  A    between atoms: C_20  and  O_21
REMARK   10  A    between atoms: C_22  and  O_23
REMARK   11  A    between atoms: O_23  and  C_24
REMARK                            x       y       z     vdW  Elec       q    Type
REMARK                         _______ _______ _______ _____ _____    ______ ____
ROOT
ATOM      1  C   UNL     1       7.821   7.962  17.977  0.00  0.00    +0.000 A 
ATOM      2  C   UNL     1       8.405   7.173  18.987  0.00  0.00    +0.000 A 
ATOM      3  C   UNL     1       7.891   5.904  19.281  0.00  0.00    +0.000 A 
ATOM      4  C   UNL     1       6.808   5.431  18.560  0.00  0.00    +0.000 A 
ATOM      5  C   UNL     1       6.267   6.180  17.534  0.00  0.00    +0.000 A 
ATOM      6  C   UNL     1       6.736   7.451  17.251  0.00  0.00    +0.000 A 
ATOM      7  C   UNL     1       5.206   5.408  16.834  0.00  0.00    +0.000 C 
ATOM      8  C   UNL     1       5.241   4.093  17.648  0.00  0.00    +0.000 C 
ATOM      9  O   UNL     1       6.171   4.234  18.761  0.00  0.00    +0.000 OA
ENDROOT
BRANCH   8  10
ATOM     10  C   UNL     1       3.842   3.716  18.116  0.00  0.00    +0.000 A 
ATOM     11  C   UNL     1       3.205   2.550  17.669  0.00  0.00    +0.000 A 
ATOM     12  C   UNL     1       1.946   2.199  18.157  0.00  0.00    +0.000 A 
ATOM     13  C   UNL     1       1.315   3.017  19.096  0.00  0.00    +0.000 A 
ATOM     14  C   UNL     1       1.925   4.187  19.563  0.00  0.00    +0.000 A 
ATOM     15  C   UNL     1       3.194   4.521  19.077  0.00  0.00    +0.000 A 
BRANCH  13  16
ATOM     16  O   UNL     1       0.076   2.672  19.571  0.00  0.00    +0.000 OA
ATOM     17  H   UNL     1       0.181   2.184  20.402  0.00  0.00    +0.000 HD
ENDBRANCH  13  16
BRANCH  14  18
ATOM     18  O   UNL     1       1.212   4.916  20.476  0.00  0.00    +0.000 OA
ATOM     19  C   UNL     1       1.643   6.241  20.749  0.00  0.00    +0.000 C 
ENDBRANCH  14  18
ENDBRANCH   8  10
BRANCH   1  21
ATOM     20  C   UNL     1       8.962  10.142  18.449  0.00  0.00    +0.000 C 
ATOM     21  C   UNL     1       8.247   9.329  17.655  0.00  0.00    +0.000 C 
BRANCH  20  22
ATOM     22  C   UNL     1       9.428  11.497  18.016  0.00  0.00    +0.000 C 
BRANCH  22  24
ATOM     23  C   UNL     1      11.548  12.470  17.699  0.00  0.00    +0.000 C 
ATOM     24  O   UNL     1      10.731  11.689  18.559  0.00  0.00    +0.000 OA
ENDBRANCH  22  24
ENDBRANCH  20  22
ENDBRANCH   1  21
BRANCH   3  25
ATOM     25  O   UNL     1       8.451   5.123  20.248  0.00  0.00    +0.000 OA
ATOM     26  H   UNL     1       8.729   4.282  19.854  0.00  0.00    +0.000 HD
ENDBRANCH   3  25
BRANCH   7  27
ATOM     27  C   UNL     1       5.524   5.198  15.351  0.00  0.00    +0.000 C 
BRANCH  27  28
ATOM     28  O   UNL     1       5.918   3.861  15.053  0.00  0.00    +0.000 OA
ATOM     29  H   UNL     1       5.202   3.438  14.541  0.00  0.00    +0.000 HD
ENDBRANCH  27  28
ENDBRANCH   7  27
TORSDOF 9
ENDMDL
MODEL 2
REMARK VINA RESULT:      -8.3      1.180      1.329
REMARK  Name = 
REMARK  11 active torsions:
REMARK  status: ('A' for Active; 'I' for Inactive)
REMARK    1  A    between atoms: C_1  and  O_2
REMARK    2  A    between atoms: O_2  and  C_3
REMARK    3  A    between atoms: C_3  and  C_4
REMARK    4  A    between atoms: C_5  and  C_6
REMARK    5  A    between atoms: C_8  and  O_9
REMARK    6  A    between atoms: C_13  and  C_14
REMARK    7  A    between atoms: C_14  and  O_15
REMARK    8  A    between atoms: C_16  and  C_17
REMARK    9  A    between atoms: C_20  and  O_21
REMARK   10  A    between atoms: C_22  and  O_23
REMARK   11  A    between atoms: O_23  and  C_24
REMARK                            x       y       z     vdW  Elec       q    Type
REMARK                         _______ _______ _______ _____ _____    ______ ____
ROOT
ATOM      1  C   UNL     1       7.855   7.994  17.973  0.00  0.00    +0.000 A 
ATOM      2  C   UNL     1       8.410   7.190  18.988  0.00  0.00    +0.000 A 
ATOM      3  C   UNL     1       7.874   5.926  19.264  0.00  0.00    +0.000 A 
ATOM      4  C   UNL     1       6.798   5.473  18.520  0.00  0.00    +0.000 A 
ATOM      5  C   UNL     1       6.286   6.236  17.490  0.00  0.00    +0.000 A 
ATOM      6  C   UNL     1       6.777   7.503  17.224  0.00  0.00    +0.000 A 
ATOM      7  C   UNL     1       5.228   5.483  16.766  0.00  0.00    +0.000 C 
ATOM      8  C   UNL     1       5.230   4.163  17.571  0.00  0.00    +0.000 C 
ATOM      9  O   UNL     1       6.142   4.283  18.701  0.00  0.00    +0.000 OA
ENDROOT
BRANCH   8  10
ATOM     10  C   UNL     1       3.817   3.801  18.011  0.00  0.00    +0.000 A 
ATOM     11  C   UNL     1       2.704   4.064  17.202  0.00  0.00    +0.000 A 
ATOM     12  C   UNL     1       1.427   3.671  17.605  0.00  0.00    +0.000 A 
ATOM     13  C   UNL     1       1.258   3.014  18.825  0.00  0.00    +0.000 A 
ATOM     14  C   UNL     1       2.351   2.735  19.655  0.00  0.00    +0.000 A 
ATOM     15  C   UNL     1       3.628   3.121  19.233  0.00  0.00    +0.000 A 
BRANCH  13  16
ATOM     16  O   UNL     1       0.002   2.632  19.221  0.00  0.00    +0.000 OA
ATOM     17  H   UNL     1       0.077   1.882  19.830  0.00  0.00    +0.000 HD
ENDBRANCH  13  16
BRANCH  14  18
ATOM     18  O   UNL     1       2.067   2.094  20.831  0.00  0.00    +0.000 OA
ATOM     19  C   UNL     1       1.934   2.885  22.002  0.00  0.00    +0.000 C 
ENDBRANCH  14  18
ENDBRANCH   8  10
BRANCH   1  21
ATOM     20  C   UNL     1       9.028  10.150  18.475  0.00  0.00    +0.000 C 
ATOM     21  C   UNL     1       8.305   9.358  17.668  0.00  0.00    +0.000 C 
BRANCH  20  22
ATOM     22  C   UNL     1       9.519  11.502  18.060  0.00  0.00    +0.000 C 
BRANCH  22  24
ATOM     23  C   UNL     1       9.537  11.498  20.415  0.00  0.00    +0.000 C 
ATOM     24  O   UNL     1       9.963  12.169  19.237  0.00  0.00    +0.000 OA
ENDBRANCH  22  24
ENDBRANCH  20  22
ENDBRANCH   1  21
BRANCH   3  25
ATOM     25  O   UNL     1       8.406   5.131  20.236  0.00  0.00    +0.000 OA
ATOM     26  H   UNL     1       8.465   5.638  21.061  0.00  0.00    +0.000 HD
ENDBRANCH   3  25
BRANCH   7  27
ATOM     27  C   UNL     1       5.569   5.279  15.287  0.00  0.00    +0.000 C 
BRANCH  27  28
ATOM     28  O   UNL     1       6.355   4.112  15.056  0.00  0.00    +0.000 OA
ATOM     29  H   UNL     1       6.274   3.530  15.835  0.00  0.00    +0.000 HD
ENDBRANCH  27  28
ENDBRANCH   7  27
TORSDOF 9
ENDMDL
MODEL 3
REMARK VINA RESULT:      -8.1      0.869      1.003
REMARK  Name = 
REMARK  11 active torsions:
REMARK  status: ('A' for Active; 'I' for Inactive)
REMARK    1  A    between atoms: C_1  and  O_2
REMARK    2  A    between atoms: O_2  and  C_3
REMARK    3  A    between atoms: C_3  and  C_4
REMARK    4  A    between atoms: C_5  and  C_6
REMARK    5  A    between atoms: C_8  and  O_9
REMARK    6  A    between atoms: C_13  and  C_14
REMARK    7  A    between atoms: C_14  and  O_15
REMARK    8  A    between atoms: C_16  and  C_17
REMARK    9  A    between atoms: C_20  and  O_21
REMARK   10  A    between atoms: C_22  and  O_23
REMARK   11  A    between atoms: O_23  and  C_24
REMARK                            x       y       z     vdW  Elec       q    Type
REMARK                         _______ _______ _______ _____ _____    ______ ____
ROOT
ATOM      1  C   UNL     1       7.828   7.974  18.035  0.00  0.00    +0.000 A 
ATOM      2  C   UNL     1       8.422   7.174  19.031  0.00  0.00    +0.000 A 
ATOM      3  C   UNL     1       7.910   5.903  19.318  0.00  0.00    +0.000 A 
ATOM      4  C   UNL     1       6.820   5.438  18.603  0.00  0.00    +0.000 A 
ATOM      5  C   UNL     1       6.269   6.197  17.590  0.00  0.00    +0.000 A 
ATOM      6  C   UNL     1       6.736   7.471  17.315  0.00  0.00    +0.000 A 
ATOM      7  C   UNL     1       5.201   5.432  16.893  0.00  0.00    +0.000 C 
ATOM      8  C   UNL     1       5.243   4.109  17.693  0.00  0.00    +0.000 C 
ATOM      9  O   UNL     1       6.185   4.239  18.798  0.00  0.00    +0.000 OA
ENDROOT
BRANCH   8  10
ATOM     10  C   UNL     1       3.849   3.727  18.171  0.00  0.00    +0.000 A 
ATOM     11  C   UNL     1       3.227   2.542  17.756  0.00  0.00    +0.000 A 
ATOM     12  C   UNL     1       1.972   2.189  18.253  0.00  0.00    +0.000 A 
ATOM     13  C   UNL     1       1.330   3.025  19.169  0.00  0.00    +0.000 A 
ATOM     14  C   UNL     1       1.927   4.214  19.605  0.00  0.00    +0.000 A 
ATOM     15  C   UNL     1       3.191   4.550  19.110  0.00  0.00    +0.000 A 
BRANCH  13  16
ATOM     16  O   UNL     1       0.095   2.678  19.654  0.00  0.00    +0.000 OA
ATOM     17  H   UNL     1      -0.220   3.379  20.244  0.00  0.00    +0.000 HD
ENDBRANCH  13  16
BRANCH  14  18
ATOM     18  O   UNL     1       1.204   4.959  20.498  0.00  0.00    +0.000 OA
ATOM     19  C   UNL     1       1.626   6.292  20.745  0.00  0.00    +0.000 C 
ENDBRANCH  14  18
ENDBRANCH   8  10
BRANCH   1  21
ATOM     20  C   UNL     1       9.014  10.132  18.497  0.00  0.00    +0.000 C 
ATOM     21  C   UNL     1       8.252   9.345  17.723  0.00  0.00    +0.000 C 
BRANCH  20  22
ATOM     22  C   UNL     1       9.472  11.492  18.072  0.00  0.00    +0.000 C 
BRANCH  22  24
ATOM     23  C   UNL     1       8.258  13.505  17.941  0.00  0.00    +0.000 C 
ATOM     24  O   UNL     1       8.349  12.156  17.502  0.00  0.00    +0.000 OA
ENDBRANCH  22  24
ENDBRANCH  20  22
ENDBRANCH   1  21
BRANCH   3  25
ATOM     25  O   UNL     1       8.480   5.112  20.272  0.00  0.00    +0.000 OA
ATOM     26  H   UNL     1       8.088   4.226  20.224  0.00  0.00    +0.000 HD
ENDBRANCH   3  25
BRANCH   7  27
ATOM     27  C   UNL     1       5.504   5.238  15.404  0.00  0.00    +0.000 C 
BRANCH  27  28
ATOM     28  O   UNL     1       5.283   6.418  14.636  0.00  0.00    +0.000 OA
ATOM     29  H   UNL     1       4.338   6.652  14.700  0.00  0.00    +0.000 HD
ENDBRANCH  27  28
ENDBRANCH   7  27
TORSDOF 9
ENDMDL
MODEL 4
REMARK VINA RESULT:      -7.9      3.634      6.194
REMARK  Name = 
REMARK  11 active torsions:
REMARK  status: ('A' for Active; 'I' for Inactive)
REMARK    1  A    between atoms: C_1  and  O_2
REMARK    2  A    between atoms: O_2  and  C_3
REMARK    3  A    between atoms: C_3  and  C_4
REMARK    4  A    between atoms: C_5  and  C_6
REMARK    5  A    between atoms: C_8  and  O_9
REMARK    6  A    between atoms: C_13  and  C_14
REMARK    7  A    between atoms: C_14  and  O_15
REMARK    8  A    between atoms: C_16  and  C_17
REMARK    9  A    between atoms: C_20  and  O_21
REMARK   10  A    between atoms: C_22  and  O_23
REMARK   11  A    between atoms: O_23  and  C_24
REMARK                            x       y       z     vdW  Elec       q    Type
REMARK                         _______ _______ _______ _____ _____    ______ ____
ROOT
ATOM      1  C   UNL     1       5.924   4.344  16.290  0.00  0.00    +0.000 A 
ATOM      2  C   UNL     1       6.722   4.501  17.440  0.00  0.00    +0.000 A 
ATOM      3  C   UNL     1       6.180   5.051  18.608  0.00  0.00    +0.000 A 
ATOM      4  C   UNL     1       4.849   5.428  18.622  0.00  0.00    +0.000 A 
ATOM      5  C   UNL     1       4.050   5.226  17.514  0.00  0.00    +0.000 A 
ATOM      6  C   UNL     1       4.574   4.718  16.337  0.00  0.00    +0.000 A 
ATOM      7  C   UNL     1       2.642   5.591  17.818  0.00  0.00    +0.000 C 
ATOM      8  C   UNL     1       2.786   6.039  19.292  0.00  0.00    +0.000 C 
ATOM      9  O   UNL     1       4.193   6.017  19.672  0.00  0.00    +0.000 OA
ENDROOT
BRANCH   8  10
ATOM     10  C   UNL     1       2.159   7.411  19.499  0.00  0.00    +0.000 A 
ATOM     11  C   UNL     1       1.909   8.276  18.425  0.00  0.00    +0.000 A 
ATOM     12  C   UNL     1       1.281   9.504  18.637  0.00  0.00    +0.000 A 
ATOM     13  C   UNL     1       0.903   9.876  19.929  0.00  0.00    +0.000 A 
ATOM     14  C   UNL     1       1.138   9.032  21.021  0.00  0.00    +0.000 A 
ATOM     15  C   UNL     1       1.755   7.797  20.795  0.00  0.00    +0.000 A 
BRANCH  13  16
ATOM     16  O   UNL     1       0.291  11.085  20.135  0.00  0.00    +0.000 OA
ATOM     17  H   UNL     1       0.426  11.644  19.355  0.00  0.00    +0.000 HD
ENDBRANCH  13  16
BRANCH  14  18
ATOM     18  O   UNL     1       0.733   9.501  22.242  0.00  0.00    +0.000 OA
ATOM     19  C   UNL     1      -0.581   9.178  22.674  0.00  0.00    +0.000 C 
ENDBRANCH  14  18
ENDBRANCH   8  10
BRANCH   1  21
ATOM     20  C   UNL     1       5.834   4.002  13.809  0.00  0.00    +0.000 C 
ATOM     21  C   UNL     1       6.427   3.847  15.003  0.00  0.00    +0.000 C 
BRANCH  20  22
ATOM     22  C   UNL     1       6.452   3.536  12.528  0.00  0.00    +0.000 C 
BRANCH  22  24
ATOM     23  C   UNL     1       4.374   3.232  11.463  0.00  0.00    +0.000 C 
ATOM     24  O   UNL     1       5.553   2.599  11.942  0.00  0.00    +0.000 OA
ENDBRANCH  22  24
ENDBRANCH  20  22
ENDBRANCH   1  21
BRANCH   3  25
ATOM     25  O   UNL     1       6.937   5.200  19.733  0.00  0.00    +0.000 OA
ATOM     26  H   UNL     1       7.284   6.105  19.763  0.00  0.00    +0.000 HD
ENDBRANCH   3  25
BRANCH   7  27
ATOM     27  C   UNL     1       1.685   4.408  17.647  0.00  0.00    +0.000 C 
BRANCH  27  28
ATOM     28  O   UNL     1       1.224   3.884  18.890  0.00  0.00    +0.000 OA
ATOM     29  H   UNL     1       1.369   2.919  18.887  0.00  0.00    +0.000 HD
ENDBRANCH  27  28
ENDBRANCH   7  27
TORSDOF 9
ENDMDL
MODEL 5
REMARK VINA RESULT:      -7.9      3.558      6.129
REMARK  Name = 
REMARK  11 active torsions:
REMARK  status: ('A' for Active; 'I' for Inactive)
REMARK    1  A    between atoms: C_1  and  O_2
REMARK    2  A    between atoms: O_2  and  C_3
REMARK    3  A    between atoms: C_3  and  C_4
REMARK    4  A    between atoms: C_5  and  C_6
REMARK    5  A    between atoms: C_8  and  O_9
REMARK    6  A    between atoms: C_13  and  C_14
REMARK    7  A    between atoms: C_14  and  O_15
REMARK    8  A    between atoms: C_16  and  C_17
REMARK    9  A    between atoms: C_20  and  O_21
REMARK   10  A    between atoms: C_22  and  O_23
REMARK   11  A    between atoms: O_23  and  C_24
REMARK                            x       y       z     vdW  Elec       q    Type
REMARK                         _______ _______ _______ _____ _____    ______ ____
ROOT
ATOM      1  C   UNL     1       6.140   4.458  16.077  0.00  0.00    +0.000 A 
ATOM      2  C   UNL     1       6.983   4.656  17.188  0.00  0.00    +0.000 A 
ATOM      3  C   UNL     1       6.452   5.080  18.413  0.00  0.00    +0.000 A 
ATOM      4  C   UNL     1       5.088   5.291  18.520  0.00  0.00    +0.000 A 
ATOM      5  C   UNL     1       4.253   5.046  17.448  0.00  0.00    +0.000 A 
ATOM      6  C   UNL     1       4.760   4.663  16.218  0.00  0.00    +0.000 A 
ATOM      7  C   UNL     1       2.832   5.222  17.849  0.00  0.00    +0.000 C 
ATOM      8  C   UNL     1       3.012   5.613  19.334  0.00  0.00    +0.000 C 
ATOM      9  O   UNL     1       4.432   5.745  19.635  0.00  0.00    +0.000 OA
ENDROOT
BRANCH   8  10
ATOM     10  C   UNL     1       2.240   6.888  19.650  0.00  0.00    +0.000 A 
ATOM     11  C   UNL     1       1.665   7.107  20.910  0.00  0.00    +0.000 A 
ATOM     12  C   UNL     1       1.012   8.308  21.190  0.00  0.00    +0.000 A 
ATOM     13  C   UNL     1       0.927   9.296  20.207  0.00  0.00    +0.000 A 
ATOM     14  C   UNL     1       1.492   9.107  18.940  0.00  0.00    +0.000 A 
ATOM     15  C   UNL     1       2.157   7.905  18.676  0.00  0.00    +0.000 A 
BRANCH  13  16
ATOM     16  O   UNL     1       0.280  10.473  20.484  0.00  0.00    +0.000 OA
ATOM     17  H   UNL     1      -0.590  10.274  20.861  0.00  0.00    +0.000 HD
ENDBRANCH  13  16
BRANCH  14  18
ATOM     18  O   UNL     1       1.342  10.139  18.053  0.00  0.00    +0.000 OA
ATOM     19  C   UNL     1       2.345  11.143  18.029  0.00  0.00    +0.000 C 
ENDBRANCH  14  18
ENDBRANCH   8  10
BRANCH   1  21
ATOM     20  C   UNL     1       5.853   3.793  13.678  0.00  0.00    +0.000 C 
ATOM     21  C   UNL     1       6.620   4.089  14.739  0.00  0.00    +0.000 C 
BRANCH  20  22
ATOM     22  C   UNL     1       6.417   3.504  12.323  0.00  0.00    +0.000 C 
BRANCH  22  24
ATOM     23  C   UNL     1       4.281   3.176  11.391  0.00  0.00    +0.000 C 
ATOM     24  O   UNL     1       5.537   2.583  11.686  0.00  0.00    +0.000 OA
ENDBRANCH  22  24
ENDBRANCH  20  22
ENDBRANCH   1  21
BRANCH   3  25
ATOM     25  O   UNL     1       7.252   5.266  19.501  0.00  0.00    +0.000 OA
ATOM     26  H   UNL     1       6.769   5.784  20.164  0.00  0.00    +0.000 HD
ENDBRANCH   3  25
BRANCH   7  27
ATOM     27  C   UNL     1       2.014   3.941  17.665  0.00  0.00    +0.000 C 
BRANCH  27  28
ATOM     28  O   UNL     1       2.545   2.836  18.394  0.00  0.00    +0.000 OA
ATOM     29  H   UNL     1       3.400   2.589  17.994  0.00  0.00    +0.000 HD
ENDBRANCH  27  28
ENDBRANCH   7  27
TORSDOF 9
ENDMDL
MODEL 6
REMARK VINA RESULT:      -7.6      3.711      7.507
REMARK  Name = 
REMARK  11 active torsions:
REMARK  status: ('A' for Active; 'I' for Inactive)
REMARK    1  A    between atoms: C_1  and  O_2
REMARK    2  A    between atoms: O_2  and  C_3
REMARK    3  A    between atoms: C_3  and  C_4
REMARK    4  A    between atoms: C_5  and  C_6
REMARK    5  A    between atoms: C_8  and  O_9
REMARK    6  A    between atoms: C_13  and  C_14
REMARK    7  A    between atoms: C_14  and  O_15
REMARK    8  A    between atoms: C_16  and  C_17
REMARK    9  A    between atoms: C_20  and  O_21
REMARK   10  A    between atoms: C_22  and  O_23
REMARK   11  A    between atoms: O_23  and  C_24
REMARK                            x       y       z     vdW  Elec       q    Type
REMARK                         _______ _______ _______ _____ _____    ______ ____
ROOT
ATOM      1  C   UNL     1       0.913   9.190  20.650  0.00  0.00    +0.000 A 
ATOM      2  C   UNL     1       1.070   9.904  19.446  0.00  0.00    +0.000 A 
ATOM      3  C   UNL     1       1.765   9.336  18.371  0.00  0.00    +0.000 A 
ATOM      4  C   UNL     1       2.286   8.060  18.503  0.00  0.00    +0.000 A 
ATOM      5  C   UNL     1       2.089   7.338  19.663  0.00  0.00    +0.000 A 
ATOM      6  C   UNL     1       1.437   7.894  20.751  0.00  0.00    +0.000 A 
ATOM      7  C   UNL     1       2.629   5.961  19.513  0.00  0.00    +0.000 C 
ATOM      8  C   UNL     1       3.171   6.035  18.066  0.00  0.00    +0.000 C 
ATOM      9  O   UNL     1       3.023   7.393  17.559  0.00  0.00    +0.000 OA
ENDROOT
BRANCH   8  10
ATOM     10  C   UNL     1       4.615   5.556  18.009  0.00  0.00    +0.000 A 
ATOM     11  C   UNL     1       5.336   5.253  19.172  0.00  0.00    +0.000 A 
ATOM     12  C   UNL     1       6.640   4.763  19.088  0.00  0.00    +0.000 A 
ATOM     13  C   UNL     1       7.232   4.577  17.837  0.00  0.00    +0.000 A 
ATOM     14  C   UNL     1       6.536   4.869  16.658  0.00  0.00    +0.000 A 
ATOM     15  C   UNL     1       5.225   5.346  16.754  0.00  0.00    +0.000 A 
BRANCH  13  16
ATOM     16  O   UNL     1       8.514   4.099  17.758  0.00  0.00    +0.000 OA
ATOM     17  H   UNL     1       8.579   3.492  17.005  0.00  0.00    +0.000 HD
ENDBRANCH  13  16
BRANCH  14  18
ATOM     18  O   UNL     1       7.216   4.656  15.489  0.00  0.00    +0.000 OA
ATOM     19  C   UNL     1       6.472   4.226  14.358  0.00  0.00    +0.000 C 
ENDBRANCH  14  18
ENDBRANCH   8  10
BRANCH   1  21
ATOM     20  C   UNL     1      -0.658  10.709  21.875  0.00  0.00    +0.000 C 
ATOM     21  C   UNL     1       0.267   9.737  21.850  0.00  0.00    +0.000 C 
BRANCH  20  22
ATOM     22  C   UNL     1      -1.331  11.158  23.134  0.00  0.00    +0.000 C 
BRANCH  22  24
ATOM     23  C   UNL     1      -1.602  13.468  22.774  0.00  0.00    +0.000 C 
ATOM     24  O   UNL     1      -0.844  12.463  23.432  0.00  0.00    +0.000 OA
ENDBRANCH  22  24
ENDBRANCH  20  22
ENDBRANCH   1  21
BRANCH   3  25
ATOM     25  O   UNL     1       1.917  10.009  17.195  0.00  0.00    +0.000 OA
ATOM     26  H   UNL     1       2.627  10.663  17.294  0.00  0.00    +0.000 HD
ENDBRANCH   3  25
BRANCH   7  27
ATOM     27  C   UNL     1       1.548   4.891  19.690  0.00  0.00    +0.000 C 
BRANCH  27  28
ATOM     28  O   UNL     1       1.357   4.099  18.520  0.00  0.00    +0.000 OA
ATOM     29  H   UNL     1       0.501   4.346  18.121  0.00  0.00    +0.000 HD
ENDBRANCH  27  28
ENDBRANCH   7  27
TORSDOF 9
ENDMDL
MODEL 7
REMARK VINA RESULT:      -7.3      3.636      5.718
REMARK  Name = 
REMARK  11 active torsions:
REMARK  status: ('A' for Active; 'I' for Inactive)
REMARK    1  A    between atoms: C_1  and  O_2
REMARK    2  A    between atoms: O_2  and  C_3
REMARK    3  A    between atoms: C_3  and  C_4
REMARK    4  A    between atoms: C_5  and  C_6
REMARK    5  A    between atoms: C_8  and  O_9
REMARK    6  A    between atoms: C_13  and  C_14
REMARK    7  A    between atoms: C_14  and  O_15
REMARK    8  A    between atoms: C_16  and  C_17
REMARK    9  A    between atoms: C_20  and  O_21
REMARK   10  A    between atoms: C_22  and  O_23
REMARK   11  A    between atoms: O_23  and  C_24
REMARK                            x       y       z     vdW  Elec       q    Type
REMARK                         _______ _______ _______ _____ _____    ______ ____
ROOT
ATOM      1  C   UNL     1       5.705   4.177  16.318  0.00  0.00    +0.000 A 
ATOM      2  C   UNL     1       6.572   4.441  17.397  0.00  0.00    +0.000 A 
ATOM      3  C   UNL     1       6.088   5.045  18.564  0.00  0.00    +0.000 A 
ATOM      4  C   UNL     1       4.745   5.369  18.649  0.00  0.00    +0.000 A 
ATOM      5  C   UNL     1       3.883   5.064  17.615  0.00  0.00    +0.000 A 
ATOM      6  C   UNL     1       4.346   4.501  16.438  0.00  0.00    +0.000 A 
ATOM      7  C   UNL     1       2.484   5.392  17.995  0.00  0.00    +0.000 C 
ATOM      8  C   UNL     1       2.708   5.941  19.424  0.00  0.00    +0.000 C 
ATOM      9  O   UNL     1       4.137   5.999  19.704  0.00  0.00    +0.000 OA
ENDROOT
BRANCH   8  10
ATOM     10  C   UNL     1       2.037   7.298  19.589  0.00  0.00    +0.000 A 
ATOM     11  C   UNL     1       2.146   8.297  18.612  0.00  0.00    +0.000 A 
ATOM     12  C   UNL     1       1.475   9.511  18.763  0.00  0.00    +0.000 A 
ATOM     13  C   UNL     1       0.691   9.733  19.896  0.00  0.00    +0.000 A 
ATOM     14  C   UNL     1       0.561   8.754  20.889  0.00  0.00    +0.000 A 
ATOM     15  C   UNL     1       1.227   7.536  20.720  0.00  0.00    +0.000 A 
BRANCH  13  16
ATOM     16  O   UNL     1       0.036  10.928  20.044  0.00  0.00    +0.000 OA
ATOM     17  H   UNL     1       0.090  11.205  20.972  0.00  0.00    +0.000 HD
ENDBRANCH  13  16
BRANCH  14  18
ATOM     18  O   UNL     1      -0.226   9.082  21.960  0.00  0.00    +0.000 OA
ATOM     19  C   UNL     1       0.420   9.461  23.166  0.00  0.00    +0.000 C 
ENDBRANCH  14  18
ENDBRANCH   8  10
BRANCH   1  21
ATOM     20  C   UNL     1       6.176   4.269  13.860  0.00  0.00    +0.000 C 
ATOM     21  C   UNL     1       6.141   3.618  15.033  0.00  0.00    +0.000 C 
BRANCH  20  22
ATOM     22  C   UNL     1       6.711   3.652  12.605  0.00  0.00    +0.000 C 
BRANCH  22  24
ATOM     23  C   UNL     1       8.116   5.535  12.752  0.00  0.00    +0.000 C 
ATOM     24  O   UNL     1       7.386   4.679  11.884  0.00  0.00    +0.000 OA
ENDBRANCH  22  24
ENDBRANCH  20  22
ENDBRANCH   1  21
BRANCH   3  25
ATOM     25  O   UNL     1       6.912   5.297  19.621  0.00  0.00    +0.000 OA
ATOM     26  H   UNL     1       7.757   5.639  19.288  0.00  0.00    +0.000 HD
ENDBRANCH   3  25
BRANCH   7  27
ATOM     27  C   UNL     1       1.570   4.164  17.966  0.00  0.00    +0.000 C 
BRANCH  27  28
ATOM     28  O   UNL     1       1.876   3.222  18.992  0.00  0.00    +0.000 OA
ATOM     29  H   UNL     1       1.054   3.024  19.480  0.00  0.00    +0.000 HD
ENDBRANCH  27  28
ENDBRANCH   7  27
TORSDOF 9
ENDMDL
MODEL 8
REMARK VINA RESULT:      -7.1      3.563      5.848
REMARK  Name = 
REMARK  11 active torsions:
REMARK  status: ('A' for Active; 'I' for Inactive)
REMARK    1  A    between atoms: C_1  and  O_2
REMARK    2  A    between atoms: O_2  and  C_3
REMARK    3  A    between atoms: C_3  and  C_4
REMARK    4  A    between atoms: C_5  and  C_6
REMARK    5  A    between atoms: C_8  and  O_9
REMARK    6  A    between atoms: C_13  and  C_14
REMARK    7  A    between atoms: C_14  and  O_15
REMARK    8  A    between atoms: C_16  and  C_17
REMARK    9  A    between atoms: C_20  and  O_21
REMARK   10  A    between atoms: C_22  and  O_23
REMARK   11  A    between atoms: O_23  and  C_24
REMARK                            x       y       z     vdW  Elec       q    Type
REMARK                         _______ _______ _______ _____ _____    ______ ____
ROOT
ATOM      1  C   UNL     1       5.782   4.090  16.228  0.00  0.00    +0.000 A 
ATOM      2  C   UNL     1       6.686   4.387  17.267  0.00  0.00    +0.000 A 
ATOM      3  C   UNL     1       6.230   4.967  18.458  0.00  0.00    +0.000 A 
ATOM      4  C   UNL     1       4.880   5.236  18.604  0.00  0.00    +0.000 A 
ATOM      5  C   UNL     1       3.985   4.897  17.609  0.00  0.00    +0.000 A 
ATOM      6  C   UNL     1       4.418   4.357  16.410  0.00  0.00    +0.000 A 
ATOM      7  C   UNL     1       2.592   5.167  18.053  0.00  0.00    +0.000 C 
ATOM      8  C   UNL     1       2.858   5.721  19.473  0.00  0.00    +0.000 C 
ATOM      9  O   UNL     1       4.295   5.838  19.688  0.00  0.00    +0.000 OA
ENDROOT
BRANCH   8  10
ATOM     10  C   UNL     1       2.140   7.049  19.673  0.00  0.00    +0.000 A 
ATOM     11  C   UNL     1       1.500   7.364  20.880  0.00  0.00    +0.000 A 
ATOM     12  C   UNL     1       0.897   8.610  21.056  0.00  0.00    +0.000 A 
ATOM     13  C   UNL     1       0.930   9.548  20.022  0.00  0.00    +0.000 A 
ATOM     14  C   UNL     1       1.563   9.263  18.807  0.00  0.00    +0.000 A 
ATOM     15  C   UNL     1       2.176   8.016  18.646  0.00  0.00    +0.000 A 
BRANCH  13  16
ATOM     16  O   UNL     1       0.334  10.770  20.197  0.00  0.00    +0.000 OA
ATOM     17  H   UNL     1      -0.163  10.763  21.029  0.00  0.00    +0.000 HD
ENDBRANCH  13  16
BRANCH  14  18
ATOM     18  O   UNL     1       1.527  10.253  17.861  0.00  0.00    +0.000 OA
ATOM     19  C   UNL     1       2.402  11.358  18.026  0.00  0.00    +0.000 C 
ENDBRANCH  14  18
ENDBRANCH   8  10
BRANCH   1  21
ATOM     20  C   UNL     1       6.096   4.191  13.745  0.00  0.00    +0.000 C 
ATOM     21  C   UNL     1       6.182   3.553  14.922  0.00  0.00    +0.000 C 
BRANCH  20  22
ATOM     22  C   UNL     1       6.601   3.605  12.463  0.00  0.00    +0.000 C 
BRANCH  22  24
ATOM     23  C   UNL     1       8.033   5.456  12.718  0.00  0.00    +0.000 C 
ATOM     24  O   UNL     1       7.345   4.621  11.798  0.00  0.00    +0.000 OA
ENDBRANCH  22  24
ENDBRANCH  20  22
ENDBRANCH   1  21
BRANCH   3  25
ATOM     25  O   UNL     1       7.090   5.251  19.477  0.00  0.00    +0.000 OA
ATOM     26  H   UNL     1       7.669   4.488  19.624  0.00  0.00    +0.000 HD
ENDBRANCH   3  25
BRANCH   7  27
ATOM     27  C   UNL     1       1.730   3.901  18.060  0.00  0.00    +0.000 C 
BRANCH  27  28
ATOM     28  O   UNL     1       1.024   3.720  19.285  0.00  0.00    +0.000 OA
ATOM     29  H   UNL     1       0.068   3.791  19.100  0.00  0.00    +0.000 HD
ENDBRANCH  27  28
ENDBRANCH   7  27
TORSDOF 9
ENDMDL
MODEL 9
REMARK VINA RESULT:      -7.1      3.818      7.809
REMARK  Name = 
REMARK  11 active torsions:
REMARK  status: ('A' for Active; 'I' for Inactive)
REMARK    1  A    between atoms: C_1  and  O_2
REMARK    2  A    between atoms: O_2  and  C_3
REMARK    3  A    between atoms: C_3  and  C_4
REMARK    4  A    between atoms: C_5  and  C_6
REMARK    5  A    between atoms: C_8  and  O_9
REMARK    6  A    between atoms: C_13  and  C_14
REMARK    7  A    between atoms: C_14  and  O_15
REMARK    8  A    between atoms: C_16  and  C_17
REMARK    9  A    between atoms: C_20  and  O_21
REMARK   10  A    between atoms: C_22  and  O_23
REMARK   11  A    between atoms: O_23  and  C_24
REMARK                            x       y       z     vdW  Elec       q    Type
REMARK                         _______ _______ _______ _____ _____    ______ ____
ROOT
ATOM      1  C   UNL     1       0.685   9.550  20.918  0.00  0.00    +0.000 A 
ATOM      2  C   UNL     1       0.763  10.160  19.650  0.00  0.00    +0.000 A 
ATOM      3  C   UNL     1       1.400   9.507  18.587  0.00  0.00    +0.000 A 
ATOM      4  C   UNL     1       1.942   8.251  18.795  0.00  0.00    +0.000 A 
ATOM      5  C   UNL     1       1.820   7.628  20.022  0.00  0.00    +0.000 A 
ATOM      6  C   UNL     1       1.228   8.270  21.095  0.00  0.00    +0.000 A 
ATOM      7  C   UNL     1       2.365   6.247  19.956  0.00  0.00    +0.000 C 
ATOM      8  C   UNL     1       2.820   6.200  18.478  0.00  0.00    +0.000 C 
ATOM      9  O   UNL     1       2.629   7.510  17.869  0.00  0.00    +0.000 OA
ENDROOT
BRANCH   8  10
ATOM     10  C   UNL     1       4.264   5.727  18.376  0.00  0.00    +0.000 A 
ATOM     11  C   UNL     1       4.667   4.479  18.870  0.00  0.00    +0.000 A 
ATOM     12  C   UNL     1       5.984   4.047  18.713  0.00  0.00    +0.000 A 
ATOM     13  C   UNL     1       6.909   4.866  18.062  0.00  0.00    +0.000 A 
ATOM     14  C   UNL     1       6.537   6.117  17.556  0.00  0.00    +0.000 A 
ATOM     15  C   UNL     1       5.210   6.533  17.707  0.00  0.00    +0.000 A 
BRANCH  13  16
ATOM     16  O   UNL     1       8.204   4.441  17.913  0.00  0.00    +0.000 OA
ATOM     17  H   UNL     1       8.639   4.446  18.778  0.00  0.00    +0.000 HD
ENDBRANCH  13  16
BRANCH  14  18
ATOM     18  O   UNL     1       7.526   6.838  16.944  0.00  0.00    +0.000 OA
ATOM     19  C   UNL     1       7.890   8.085  17.517  0.00  0.00    +0.000 C 
ENDBRANCH  14  18
ENDBRANCH   8  10
BRANCH   1  21
ATOM     20  C   UNL     1      -0.921  11.058  22.109  0.00  0.00    +0.000 C 
ATOM     21  C   UNL     1       0.104  10.193  22.103  0.00  0.00    +0.000 C 
BRANCH  20  22
ATOM     22  C   UNL     1      -1.511  11.610  23.370  0.00  0.00    +0.000 C 
BRANCH  22  24
ATOM     23  C   UNL     1      -3.167  12.650  22.060  0.00  0.00    +0.000 C 
ATOM     24  O   UNL     1      -2.908  11.773  23.147  0.00  0.00    +0.000 OA
ENDBRANCH  22  24
ENDBRANCH  20  22
ENDBRANCH   1  21
BRANCH   3  25
ATOM     25  O   UNL     1       1.475  10.080  17.352  0.00  0.00    +0.000 OA
ATOM     26  H   UNL     1       2.130   9.601  16.821  0.00  0.00    +0.000 HD
ENDBRANCH   3  25
BRANCH   7  27
ATOM     27  C   UNL     1       1.309   5.189  20.287  0.00  0.00    +0.000 C 
BRANCH  27  28
ATOM     28  O   UNL     1       1.202   4.180  19.284  0.00  0.00    +0.000 OA
ATOM     29  H   UNL     1       1.522   4.553  18.441  0.00  0.00    +0.000 HD
ENDBRANCH  27  28
ENDBRANCH   7  27
TORSDOF 9
ENDMDL
