MODEL 1
REMARK VINA RESULT:      -8.6      0.000      0.000
REMARK  Name = 
REMARK  9 active torsions:
REMARK  status: ('A' for Active; 'I' for Inactive)
REMARK    1  A    between atoms: C_1  and  N_2
REMARK    2  A    between atoms: N_2  and  C_3
REMARK    3  A    between atoms: N_2  and  C_24
REMARK    4  A    between atoms: C_3  and  C_4
REMARK    5  A    between atoms: C_4  and  C_5
REMARK    6  A    between atoms: C_5  and  N_6
REMARK    7  A    between atoms: C_7  and  C_9
REMARK    8  A    between atoms: C_14  and  C_15
REMARK    9  A    between atoms: C_24  and  C_25
REMARK                            x       y       z     vdW  Elec       q    Type
REMARK                         _______ _______ _______ _____ _____    ______ ____
ROOT
ATOM      1  N   UNL     1       7.674   7.349  17.194  0.00  0.00    +0.000 N 
ATOM      2  C   UNL     1       7.435   5.993  17.324  0.00  0.00    +0.000 C 
ATOM      3  O   UNL     1       7.730   5.352  18.325  0.00  0.00    +0.000 OA
ATOM      4  H   UNL     1       7.591   7.750  16.264  0.00  0.00    +0.000 HD
ENDROOT
BRANCH   2   5
ATOM      5  C   UNL     1       6.851   5.348  16.117  0.00  0.00    +0.000 A 
ATOM      6  N   UNL     1       7.602   5.480  14.974  0.00  0.00    +0.000 NA
ATOM      7  C   UNL     1       7.137   4.812  13.895  0.00  0.00    +0.000 A 
ATOM      8  C   UNL     1       5.977   4.062  13.933  0.00  0.00    +0.000 A 
ATOM      9  N   UNL     1       5.212   3.964  15.044  0.00  0.00    +0.000 NA
ATOM     10  C   UNL     1       5.659   4.627  16.158  0.00  0.00    +0.000 A 
BRANCH  10  11
ATOM     11  C   UNL     1       4.733   4.633  17.300  0.00  0.00    +0.000 A 
ATOM     12  N   UNL     1       4.526   3.616  18.114  0.00  0.00    +0.000 NA
ATOM     13  C   UNL     1       3.595   3.951  19.080  0.00  0.00    +0.000 A 
ATOM     14  C   UNL     1       3.085   3.092  20.074  0.00  0.00    +0.000 A 
ATOM     15  C   UNL     1       2.187   3.586  21.028  0.00  0.00    +0.000 A 
ATOM     16  C   UNL     1       1.790   4.919  20.998  0.00  0.00    +0.000 A 
ATOM     17  C   UNL     1       2.260   5.783  20.005  0.00  0.00    +0.000 A 
ATOM     18  C   UNL     1       3.155   5.274  19.049  0.00  0.00    +0.000 A 
ATOM     19  S   UNL     1       3.875   6.072  17.708  0.00  0.00    +0.000 S 
ENDBRANCH  10  11
ENDBRANCH   2   5
BRANCH   1  20
ATOM     20  C   UNL     1       8.184   8.109  18.307  0.00  0.00    +0.000 C 
BRANCH  20  21
ATOM     21  C   UNL     1       8.344   9.596  18.023  0.00  0.00    +0.000 C 
BRANCH  21  22
ATOM     22  C   UNL     1       9.378  10.279  18.930  0.00  0.00    +0.000 C 
BRANCH  22  24
ATOM     23  C   UNL     1       8.503  12.191  17.706  0.00  0.00    +0.000 C 
ATOM     24  N   UNL     1       9.534  11.719  18.637  0.00  0.00    +0.000 NA
BRANCH  24  25
ATOM     25  C   UNL     1      10.891  11.978  18.097  0.00  0.00    +0.000 C 
BRANCH  25  26
ATOM     26  C   UNL     1      11.321  13.424  18.256  0.00  0.00    +0.000 A 
ATOM     27  C   UNL     1      11.771  14.156  17.147  0.00  0.00    +0.000 A 
ATOM     28  C   UNL     1      12.279  15.445  17.309  0.00  0.00    +0.000 A 
ATOM     29  C   UNL     1      12.333  16.018  18.578  0.00  0.00    +0.000 A 
ATOM     30  C   UNL     1      11.860  15.313  19.683  0.00  0.00    +0.000 A 
ATOM     31  C   UNL     1      11.350  14.024  19.523  0.00  0.00    +0.000 A 
ENDBRANCH  25  26
ENDBRANCH  24  25
ENDBRANCH  22  24
ENDBRANCH  21  22
ENDBRANCH  20  21
ENDBRANCH   1  20
TORSDOF 8
ENDMDL
MODEL 2
REMARK VINA RESULT:      -8.4      1.816      2.379
REMARK  Name = 
REMARK  9 active torsions:
REMARK  status: ('A' for Active; 'I' for Inactive)
REMARK    1  A    between atoms: C_1  and  N_2
REMARK    2  A    between atoms: N_2  and  C_3
REMARK    3  A    between atoms: N_2  and  C_24
REMARK    4  A    between atoms: C_3  and  C_4
REMARK    5  A    between atoms: C_4  and  C_5
REMARK    6  A    between atoms: C_5  and  N_6
REMARK    7  A    between atoms: C_7  and  C_9
REMARK    8  A    between atoms: C_14  and  C_15
REMARK    9  A    between atoms: C_24  and  C_25
REMARK                            x       y       z     vdW  Elec       q    Type
REMARK                         _______ _______ _______ _____ _____    ______ ____
ROOT
ATOM      1  N   UNL     1       7.622   7.331  17.224  0.00  0.00    +0.000 N 
ATOM      2  C   UNL     1       7.438   5.964  17.320  0.00  0.00    +0.000 C 
ATOM      3  O   UNL     1       7.788   5.307  18.292  0.00  0.00    +0.000 OA
ATOM      4  H   UNL     1       7.496   7.756  16.309  0.00  0.00    +0.000 HD
ENDROOT
BRANCH   2   5
ATOM      5  C   UNL     1       6.841   5.333  16.113  0.00  0.00    +0.000 A 
ATOM      6  N   UNL     1       7.592   5.455  14.968  0.00  0.00    +0.000 NA
ATOM      7  C   UNL     1       7.115   4.798  13.889  0.00  0.00    +0.000 A 
ATOM      8  C   UNL     1       5.943   4.067  13.926  0.00  0.00    +0.000 A 
ATOM      9  N   UNL     1       5.178   3.979  15.038  0.00  0.00    +0.000 NA
ATOM     10  C   UNL     1       5.638   4.631  16.153  0.00  0.00    +0.000 A 
BRANCH  10  11
ATOM     11  C   UNL     1       4.714   4.650  17.297  0.00  0.00    +0.000 A 
ATOM     12  N   UNL     1       4.500   3.638  18.116  0.00  0.00    +0.000 NA
ATOM     13  C   UNL     1       3.573   3.984  19.082  0.00  0.00    +0.000 A 
ATOM     14  C   UNL     1       3.058   3.133  20.080  0.00  0.00    +0.000 A 
ATOM     15  C   UNL     1       2.166   3.638  21.034  0.00  0.00    +0.000 A 
ATOM     16  C   UNL     1       1.780   4.974  20.999  0.00  0.00    +0.000 A 
ATOM     17  C   UNL     1       2.255   5.831  20.001  0.00  0.00    +0.000 A 
ATOM     18  C   UNL     1       3.143   5.311  19.046  0.00  0.00    +0.000 A 
ATOM     19  S   UNL     1       3.868   6.097  17.700  0.00  0.00    +0.000 S 
ENDBRANCH  10  11
ENDBRANCH   2   5
BRANCH   1  20
ATOM     20  C   UNL     1       8.137   8.078  18.343  0.00  0.00    +0.000 C 
BRANCH  20  21
ATOM     21  C   UNL     1       8.374   9.554  18.051  0.00  0.00    +0.000 C 
BRANCH  21  22
ATOM     22  C   UNL     1       9.579  10.136  18.804  0.00  0.00    +0.000 C 
BRANCH  22  24
ATOM     23  C   UNL     1       9.505  12.472  18.128  0.00  0.00    +0.000 C 
ATOM     24  N   UNL     1       9.361  11.529  19.243  0.00  0.00    +0.000 NA
BRANCH  24  25
ATOM     25  C   UNL     1      10.299  11.863  20.342  0.00  0.00    +0.000 C 
BRANCH  25  26
ATOM     26  C   UNL     1       9.666  12.729  21.414  0.00  0.00    +0.000 A 
ATOM     27  C   UNL     1      10.029  14.078  21.543  0.00  0.00    +0.000 A 
ATOM     28  C   UNL     1       9.539  14.846  22.599  0.00  0.00    +0.000 A 
ATOM     29  C   UNL     1       8.674  14.276  23.532  0.00  0.00    +0.000 A 
ATOM     30  C   UNL     1       8.281  12.946  23.396  0.00  0.00    +0.000 A 
ATOM     31  C   UNL     1       8.768  12.177  22.339  0.00  0.00    +0.000 A 
ENDBRANCH  25  26
ENDBRANCH  24  25
ENDBRANCH  22  24
ENDBRANCH  21  22
ENDBRANCH  20  21
ENDBRANCH   1  20
TORSDOF 8
ENDMDL
MODEL 3
REMARK VINA RESULT:      -8.4      5.620      8.003
REMARK  Name = 
REMARK  9 active torsions:
REMARK  status: ('A' for Active; 'I' for Inactive)
REMARK    1  A    between atoms: C_1  and  N_2
REMARK    2  A    between atoms: N_2  and  C_3
REMARK    3  A    between atoms: N_2  and  C_24
REMARK    4  A    between atoms: C_3  and  C_4
REMARK    5  A    between atoms: C_4  and  C_5
REMARK    6  A    between atoms: C_5  and  N_6
REMARK    7  A    between atoms: C_7  and  C_9
REMARK    8  A    between atoms: C_14  and  C_15
REMARK    9  A    between atoms: C_24  and  C_25
REMARK                            x       y       z     vdW  Elec       q    Type
REMARK                         _______ _______ _______ _____ _____    ______ ____
ROOT
ATOM      1  N   UNL     1       3.801   7.112  17.033  0.00  0.00    +0.000 N 
ATOM      2  C   UNL     1       5.153   6.831  16.961  0.00  0.00    +0.000 C 
ATOM      3  O   UNL     1       6.012   7.524  17.490  0.00  0.00    +0.000 OA
ATOM      4  H   UNL     1       3.185   6.611  16.398  0.00  0.00    +0.000 HD
ENDROOT
BRANCH   2   5
ATOM      5  C   UNL     1       5.496   5.650  16.123  0.00  0.00    +0.000 A 
ATOM      6  N   UNL     1       6.201   5.941  14.980  0.00  0.00    +0.000 NA
ATOM      7  C   UNL     1       6.611   4.871  14.264  0.00  0.00    +0.000 A 
ATOM      8  C   UNL     1       6.326   3.573  14.644  0.00  0.00    +0.000 A 
ATOM      9  N   UNL     1       5.596   3.283  15.745  0.00  0.00    +0.000 NA
ATOM     10  C   UNL     1       5.169   4.348  16.496  0.00  0.00    +0.000 A 
BRANCH  10  11
ATOM     11  C   UNL     1       4.250   4.014  17.594  0.00  0.00    +0.000 A 
ATOM     12  N   UNL     1       2.940   3.908  17.481  0.00  0.00    +0.000 NA
ATOM     13  C   UNL     1       2.373   3.584  18.700  0.00  0.00    +0.000 A 
ATOM     14  C   UNL     1       0.995   3.454  18.966  0.00  0.00    +0.000 A 
ATOM     15  C   UNL     1       0.565   3.060  20.239  0.00  0.00    +0.000 A 
ATOM     16  C   UNL     1       1.489   2.802  21.246  0.00  0.00    +0.000 A 
ATOM     17  C   UNL     1       2.860   2.952  21.015  0.00  0.00    +0.000 A 
ATOM     18  C   UNL     1       3.279   3.354  19.735  0.00  0.00    +0.000 A 
ATOM     19  S   UNL     1       4.872   3.648  19.160  0.00  0.00    +0.000 S 
ENDBRANCH  10  11
ENDBRANCH   2   5
BRANCH   1  20
ATOM     20  C   UNL     1       3.325   8.194  17.857  0.00  0.00    +0.000 C 
BRANCH  20  21
ATOM     21  C   UNL     1       1.814   8.382  17.825  0.00  0.00    +0.000 C 
BRANCH  21  22
ATOM     22  C   UNL     1       1.280   9.207  19.005  0.00  0.00    +0.000 C 
BRANCH  22  24
ATOM     23  C   UNL     1       1.204  11.638  18.928  0.00  0.00    +0.000 C 
ATOM     24  N   UNL     1       0.514  10.394  18.572  0.00  0.00    +0.000 NA
BRANCH  24  25
ATOM     25  C   UNL     1      -0.846  10.357  19.163  0.00  0.00    +0.000 C 
BRANCH  25  26
ATOM     26  C   UNL     1      -1.944  10.475  18.123  0.00  0.00    +0.000 A 
ATOM     27  C   UNL     1      -1.858   9.762  16.918  0.00  0.00    +0.000 A 
ATOM     28  C   UNL     1      -2.802   9.958  15.911  0.00  0.00    +0.000 A 
ATOM     29  C   UNL     1      -3.847  10.861  16.100  0.00  0.00    +0.000 A 
ATOM     30  C   UNL     1      -3.960  11.553  17.305  0.00  0.00    +0.000 A 
ATOM     31  C   UNL     1      -3.018  11.356  18.315  0.00  0.00    +0.000 A 
ENDBRANCH  25  26
ENDBRANCH  24  25
ENDBRANCH  22  24
ENDBRANCH  21  22
ENDBRANCH  20  21
ENDBRANCH   1  20
TORSDOF 8
ENDMDL
MODEL 4
REMARK VINA RESULT:      -8.3      1.253      1.758
REMARK  Name = 
REMARK  9 active torsions:
REMARK  status: ('A' for Active; 'I' for Inactive)
REMARK    1  A    between atoms: C_1  and  N_2
REMARK    2  A    between atoms: N_2  and  C_3
REMARK    3  A    between atoms: N_2  and  C_24
REMARK    4  A    between atoms: C_3  and  C_4
REMARK    5  A    between atoms: C_4  and  C_5
REMARK    6  A    between atoms: C_5  and  N_6
REMARK    7  A    between atoms: C_7  and  C_9
REMARK    8  A    between atoms: C_14  and  C_15
REMARK    9  A    between atoms: C_24  and  C_25
REMARK                            x       y       z     vdW  Elec       q    Type
REMARK                         _______ _______ _______ _____ _____    ______ ____
ROOT
ATOM      1  N   UNL     1       6.957   7.446  17.031  0.00  0.00    +0.000 N 
ATOM      2  C   UNL     1       7.246   6.094  17.026  0.00  0.00    +0.000 C 
ATOM      3  O   UNL     1       7.916   5.546  17.891  0.00  0.00    +0.000 OA
ATOM      4  H   UNL     1       6.579   7.846  16.177  0.00  0.00    +0.000 HD
ENDROOT
BRANCH   2   5
ATOM      5  C   UNL     1       6.734   5.356  15.838  0.00  0.00    +0.000 A 
ATOM      6  N   UNL     1       7.522   5.455  14.717  0.00  0.00    +0.000 NA
ATOM      7  C   UNL     1       7.127   4.707  13.664  0.00  0.00    +0.000 A 
ATOM      8  C   UNL     1       5.999   3.909  13.704  0.00  0.00    +0.000 A 
ATOM      9  N   UNL     1       5.197   3.842  14.791  0.00  0.00    +0.000 NA
ATOM     10  C   UNL     1       5.574   4.586  15.879  0.00  0.00    +0.000 A 
BRANCH  10  11
ATOM     11  C   UNL     1       4.606   4.617  16.985  0.00  0.00    +0.000 A 
ATOM     12  N   UNL     1       4.208   5.706  17.615  0.00  0.00    +0.000 NA
ATOM     13  C   UNL     1       3.295   5.387  18.604  0.00  0.00    +0.000 A 
ATOM     14  C   UNL     1       2.710   6.290  19.515  0.00  0.00    +0.000 A 
ATOM     15  C   UNL     1       1.751   5.835  20.427  0.00  0.00    +0.000 A 
ATOM     16  C   UNL     1       1.376   4.496  20.446  0.00  0.00    +0.000 A 
ATOM     17  C   UNL     1       1.963   3.576  19.571  0.00  0.00    +0.000 A 
ATOM     18  C   UNL     1       2.928   4.043  18.665  0.00  0.00    +0.000 A 
ATOM     19  S   UNL     1       3.836   3.163  17.501  0.00  0.00    +0.000 S 
ENDBRANCH  10  11
ENDBRANCH   2   5
BRANCH   1  20
ATOM     20  C   UNL     1       7.342   8.268  18.150  0.00  0.00    +0.000 C 
BRANCH  20  21
ATOM     21  C   UNL     1       8.434   9.281  17.831  0.00  0.00    +0.000 C 
BRANCH  21  22
ATOM     22  C   UNL     1       9.143   9.823  19.080  0.00  0.00    +0.000 C 
BRANCH  22  24
ATOM     23  C   UNL     1      10.368  11.684  20.058  0.00  0.00    +0.000 C 
ATOM     24  N   UNL     1       9.906  11.059  18.813  0.00  0.00    +0.000 NA
BRANCH  24  25
ATOM     25  C   UNL     1       9.076  12.003  18.025  0.00  0.00    +0.000 C 
BRANCH  25  26
ATOM     26  C   UNL     1       9.774  13.324  17.765  0.00  0.00    +0.000 A 
ATOM     27  C   UNL     1       9.169  14.532  18.142  0.00  0.00    +0.000 A 
ATOM     28  C   UNL     1       9.750  15.752  17.798  0.00  0.00    +0.000 A 
ATOM     29  C   UNL     1      10.947  15.778  17.083  0.00  0.00    +0.000 A 
ATOM     30  C   UNL     1      11.574  14.584  16.730  0.00  0.00    +0.000 A 
ATOM     31  C   UNL     1      10.995  13.362  17.075  0.00  0.00    +0.000 A 
ENDBRANCH  25  26
ENDBRANCH  24  25
ENDBRANCH  22  24
ENDBRANCH  21  22
ENDBRANCH  20  21
ENDBRANCH   1  20
TORSDOF 8
ENDMDL
MODEL 5
REMARK VINA RESULT:      -8.2      1.064      1.535
REMARK  Name = 
REMARK  9 active torsions:
REMARK  status: ('A' for Active; 'I' for Inactive)
REMARK    1  A    between atoms: C_1  and  N_2
REMARK    2  A    between atoms: N_2  and  C_3
REMARK    3  A    between atoms: N_2  and  C_24
REMARK    4  A    between atoms: C_3  and  C_4
REMARK    5  A    between atoms: C_4  and  C_5
REMARK    6  A    between atoms: C_5  and  N_6
REMARK    7  A    between atoms: C_7  and  C_9
REMARK    8  A    between atoms: C_14  and  C_15
REMARK    9  A    between atoms: C_24  and  C_25
REMARK                            x       y       z     vdW  Elec       q    Type
REMARK                         _______ _______ _______ _____ _____    ______ ____
ROOT
ATOM      1  N   UNL     1       7.736   7.174  17.384  0.00  0.00    +0.000 N 
ATOM      2  C   UNL     1       7.178   5.919  17.543  0.00  0.00    +0.000 C 
ATOM      3  O   UNL     1       7.167   5.319  18.610  0.00  0.00    +0.000 OA
ATOM      4  H   UNL     1       7.886   7.502  16.434  0.00  0.00    +0.000 HD
ENDROOT
BRANCH   2   5
ATOM      5  C   UNL     1       6.647   5.314  16.291  0.00  0.00    +0.000 A 
ATOM      6  N   UNL     1       7.428   5.518  15.178  0.00  0.00    +0.000 NA
ATOM      7  C   UNL     1       7.014   4.887  14.058  0.00  0.00    +0.000 A 
ATOM      8  C   UNL     1       5.875   4.105  14.026  0.00  0.00    +0.000 A 
ATOM      9  N   UNL     1       5.081   3.937  15.108  0.00  0.00    +0.000 NA
ATOM     10  C   UNL     1       5.476   4.560  16.263  0.00  0.00    +0.000 A 
BRANCH  10  11
ATOM     11  C   UNL     1       4.517   4.490  17.375  0.00  0.00    +0.000 A 
ATOM     12  N   UNL     1       3.838   5.514  17.857  0.00  0.00    +0.000 NA
ATOM     13  C   UNL     1       3.025   5.108  18.900  0.00  0.00    +0.000 A 
ATOM     14  C   UNL     1       2.211   5.944  19.690  0.00  0.00    +0.000 A 
ATOM     15  C   UNL     1       1.391   5.385  20.678  0.00  0.00    +0.000 A 
ATOM     16  C   UNL     1       1.379   4.010  20.888  0.00  0.00    +0.000 A 
ATOM     17  C   UNL     1       2.199   3.164  20.137  0.00  0.00    +0.000 A 
ATOM     18  C   UNL     1       3.023   3.737  19.154  0.00  0.00    +0.000 A 
ATOM     19  S   UNL     1       4.147   2.971  18.103  0.00  0.00    +0.000 S 
ENDBRANCH  10  11
ENDBRANCH   2   5
BRANCH   1  20
ATOM     20  C   UNL     1       8.235   7.899  18.525  0.00  0.00    +0.000 C 
BRANCH  20  21
ATOM     21  C   UNL     1       8.631   9.338  18.224  0.00  0.00    +0.000 C 
BRANCH  21  22
ATOM     22  C   UNL     1       9.008  10.139  19.478  0.00  0.00    +0.000 C 
BRANCH  22  24
ATOM     23  C   UNL     1      10.558  11.755  20.431  0.00  0.00    +0.000 C 
ATOM     24  N   UNL     1       9.973  11.222  19.196  0.00  0.00    +0.000 NA
BRANCH  24  25
ATOM     25  C   UNL     1       9.308  12.298  18.420  0.00  0.00    +0.000 C 
BRANCH  25  26
ATOM     26  C   UNL     1      10.279  13.354  17.927  0.00  0.00    +0.000 A 
ATOM     27  C   UNL     1      11.372  12.993  17.125  0.00  0.00    +0.000 A 
ATOM     28  C   UNL     1      12.332  13.940  16.769  0.00  0.00    +0.000 A 
ATOM     29  C   UNL     1      12.205  15.259  17.203  0.00  0.00    +0.000 A 
ATOM     30  C   UNL     1      11.107  15.636  17.974  0.00  0.00    +0.000 A 
ATOM     31  C   UNL     1      10.145  14.690  18.330  0.00  0.00    +0.000 A 
ENDBRANCH  25  26
ENDBRANCH  24  25
ENDBRANCH  22  24
ENDBRANCH  21  22
ENDBRANCH  20  21
ENDBRANCH   1  20
TORSDOF 8
ENDMDL
MODEL 6
REMARK VINA RESULT:      -8.2      1.547      1.743
REMARK  Name = 
REMARK  9 active torsions:
REMARK  status: ('A' for Active; 'I' for Inactive)
REMARK    1  A    between atoms: C_1  and  N_2
REMARK    2  A    between atoms: N_2  and  C_3
REMARK    3  A    between atoms: N_2  and  C_24
REMARK    4  A    between atoms: C_3  and  C_4
REMARK    5  A    between atoms: C_4  and  C_5
REMARK    6  A    between atoms: C_5  and  N_6
REMARK    7  A    between atoms: C_7  and  C_9
REMARK    8  A    between atoms: C_14  and  C_15
REMARK    9  A    between atoms: C_24  and  C_25
REMARK                            x       y       z     vdW  Elec       q    Type
REMARK                         _______ _______ _______ _____ _____    ______ ____
ROOT
ATOM      1  N   UNL     1       7.608   7.470  17.173  0.00  0.00    +0.000 N 
ATOM      2  C   UNL     1       7.407   6.112  17.340  0.00  0.00    +0.000 C 
ATOM      3  O   UNL     1       7.716   5.508  18.359  0.00  0.00    +0.000 OA
ATOM      4  H   UNL     1       7.518   7.843  16.232  0.00  0.00    +0.000 HD
ENDROOT
BRANCH   2   5
ATOM      5  C   UNL     1       6.847   5.418  16.149  0.00  0.00    +0.000 A 
ATOM      6  N   UNL     1       7.593   5.550  15.002  0.00  0.00    +0.000 NA
ATOM      7  C   UNL     1       7.153   4.839  13.941  0.00  0.00    +0.000 A 
ATOM      8  C   UNL     1       6.021   4.048  13.997  0.00  0.00    +0.000 A 
ATOM      9  N   UNL     1       5.260   3.949  15.111  0.00  0.00    +0.000 NA
ATOM     10  C   UNL     1       5.682   4.654  16.208  0.00  0.00    +0.000 A 
BRANCH  10  11
ATOM     11  C   UNL     1       4.757   4.654  17.350  0.00  0.00    +0.000 A 
ATOM     12  N   UNL     1       4.612   3.664  18.210  0.00  0.00    +0.000 NA
ATOM     13  C   UNL     1       3.661   3.983  19.162  0.00  0.00    +0.000 A 
ATOM     14  C   UNL     1       3.205   3.139  20.193  0.00  0.00    +0.000 A 
ATOM     15  C   UNL     1       2.277   3.618  21.126  0.00  0.00    +0.000 A 
ATOM     16  C   UNL     1       1.798   4.921  21.038  0.00  0.00    +0.000 A 
ATOM     17  C   UNL     1       2.215   5.768  20.006  0.00  0.00    +0.000 A 
ATOM     18  C   UNL     1       3.140   5.274  19.073  0.00  0.00    +0.000 A 
ATOM     19  S   UNL     1       3.811   6.054  17.696  0.00  0.00    +0.000 S 
ENDBRANCH  10  11
ENDBRANCH   2   5
BRANCH   1  20
ATOM     20  C   UNL     1       8.091   8.275  18.266  0.00  0.00    +0.000 C 
BRANCH  20  21
ATOM     21  C   UNL     1       8.465   9.698  17.873  0.00  0.00    +0.000 C 
BRANCH  21  22
ATOM     22  C   UNL     1       9.167  10.473  18.997  0.00  0.00    +0.000 C 
BRANCH  22  24
ATOM     23  C   UNL     1      11.134  11.624  18.145  0.00  0.00    +0.000 C 
ATOM     24  N   UNL     1       9.728  11.761  18.540  0.00  0.00    +0.000 NA
BRANCH  24  25
ATOM     25  C   UNL     1       9.576  12.782  19.605  0.00  0.00    +0.000 C 
BRANCH  25  26
ATOM     26  C   UNL     1       8.954  14.070  19.101  0.00  0.00    +0.000 A 
ATOM     27  C   UNL     1       9.633  14.868  18.168  0.00  0.00    +0.000 A 
ATOM     28  C   UNL     1       9.121  16.109  17.791  0.00  0.00    +0.000 A 
ATOM     29  C   UNL     1       7.920  16.561  18.336  0.00  0.00    +0.000 A 
ATOM     30  C   UNL     1       7.220  15.764  19.240  0.00  0.00    +0.000 A 
ATOM     31  C   UNL     1       7.730  14.521  19.616  0.00  0.00    +0.000 A 
ENDBRANCH  25  26
ENDBRANCH  24  25
ENDBRANCH  22  24
ENDBRANCH  21  22
ENDBRANCH  20  21
ENDBRANCH   1  20
TORSDOF 8
ENDMDL
MODEL 7
REMARK VINA RESULT:      -8.1      2.010      2.804
REMARK  Name = 
REMARK  9 active torsions:
REMARK  status: ('A' for Active; 'I' for Inactive)
REMARK    1  A    between atoms: C_1  and  N_2
REMARK    2  A    between atoms: N_2  and  C_3
REMARK    3  A    between atoms: N_2  and  C_24
REMARK    4  A    between atoms: C_3  and  C_4
REMARK    5  A    between atoms: C_4  and  C_5
REMARK    6  A    between atoms: C_5  and  N_6
REMARK    7  A    between atoms: C_7  and  C_9
REMARK    8  A    between atoms: C_14  and  C_15
REMARK    9  A    between atoms: C_24  and  C_25
REMARK                            x       y       z     vdW  Elec       q    Type
REMARK                         _______ _______ _______ _____ _____    ______ ____
ROOT
ATOM      1  N   UNL     1       7.241   7.650  17.139  0.00  0.00    +0.000 N 
ATOM      2  C   UNL     1       7.299   6.282  17.331  0.00  0.00    +0.000 C 
ATOM      3  O   UNL     1       7.744   5.765  18.348  0.00  0.00    +0.000 OA
ATOM      4  H   UNL     1       7.055   7.981  16.196  0.00  0.00    +0.000 HD
ENDROOT
BRANCH   2   5
ATOM      5  C   UNL     1       6.840   5.472  16.170  0.00  0.00    +0.000 A 
ATOM      6  N   UNL     1       7.587   5.632  15.027  0.00  0.00    +0.000 NA
ATOM      7  C   UNL     1       7.249   4.826  13.997  0.00  0.00    +0.000 A 
ATOM      8  C   UNL     1       6.211   3.916  14.078  0.00  0.00    +0.000 A 
ATOM      9  N   UNL     1       5.446   3.786  15.186  0.00  0.00    +0.000 NA
ATOM     10  C   UNL     1       5.768   4.586  16.252  0.00  0.00    +0.000 A 
BRANCH  10  11
ATOM     11  C   UNL     1       4.828   4.537  17.382  0.00  0.00    +0.000 A 
ATOM     12  N   UNL     1       4.753   3.560  18.264  0.00  0.00    +0.000 NA
ATOM     13  C   UNL     1       3.764   3.822  19.195  0.00  0.00    +0.000 A 
ATOM     14  C   UNL     1       3.363   2.968  20.242  0.00  0.00    +0.000 A 
ATOM     15  C   UNL     1       2.385   3.391  21.150  0.00  0.00    +0.000 A 
ATOM     16  C   UNL     1       1.800   4.647  21.021  0.00  0.00    +0.000 A 
ATOM     17  C   UNL     1       2.160   5.500  19.973  0.00  0.00    +0.000 A 
ATOM     18  C   UNL     1       3.138   5.061  19.065  0.00  0.00    +0.000 A 
ATOM     19  S   UNL     1       3.763   5.860  17.677  0.00  0.00    +0.000 S 
ENDBRANCH  10  11
ENDBRANCH   2   5
BRANCH   1  20
ATOM     20  C   UNL     1       7.599   8.551  18.204  0.00  0.00    +0.000 C 
BRANCH  20  21
ATOM     21  C   UNL     1       8.633   9.598  17.811  0.00  0.00    +0.000 C 
BRANCH  21  22
ATOM     22  C   UNL     1       9.412  10.161  19.009  0.00  0.00    +0.000 C 
BRANCH  22  24
ATOM     23  C   UNL     1      10.386  12.074  17.864  0.00  0.00    +0.000 C 
ATOM     24  N   UNL     1       9.532  11.633  18.972  0.00  0.00    +0.000 NA
BRANCH  24  25
ATOM     25  C   UNL     1      10.053  12.128  20.270  0.00  0.00    +0.000 C 
BRANCH  25  26
ATOM     26  C   UNL     1       8.951  12.527  21.232  0.00  0.00    +0.000 A 
ATOM     27  C   UNL     1       8.555  11.656  22.259  0.00  0.00    +0.000 A 
ATOM     28  C   UNL     1       7.465  11.967  23.071  0.00  0.00    +0.000 A 
ATOM     29  C   UNL     1       6.764  13.156  22.871  0.00  0.00    +0.000 A 
ATOM     30  C   UNL     1       7.167  14.044  21.875  0.00  0.00    +0.000 A 
ATOM     31  C   UNL     1       8.259  13.735  21.064  0.00  0.00    +0.000 A 
ENDBRANCH  25  26
ENDBRANCH  24  25
ENDBRANCH  22  24
ENDBRANCH  21  22
ENDBRANCH  20  21
ENDBRANCH   1  20
TORSDOF 8
ENDMDL
MODEL 8
REMARK VINA RESULT:      -8.0      4.859      8.304
REMARK  Name = 
REMARK  9 active torsions:
REMARK  status: ('A' for Active; 'I' for Inactive)
REMARK    1  A    between atoms: C_1  and  N_2
REMARK    2  A    between atoms: N_2  and  C_3
REMARK    3  A    between atoms: N_2  and  C_24
REMARK    4  A    between atoms: C_3  and  C_4
REMARK    5  A    between atoms: C_4  and  C_5
REMARK    6  A    between atoms: C_5  and  N_6
REMARK    7  A    between atoms: C_7  and  C_9
REMARK    8  A    between atoms: C_14  and  C_15
REMARK    9  A    between atoms: C_24  and  C_25
REMARK                            x       y       z     vdW  Elec       q    Type
REMARK                         _______ _______ _______ _____ _____    ______ ____
ROOT
ATOM      1  N   UNL     1       3.610   7.693  17.892  0.00  0.00    +0.000 N 
ATOM      2  C   UNL     1       4.606   7.236  17.049  0.00  0.00    +0.000 C 
ATOM      3  O   UNL     1       4.501   7.226  15.829  0.00  0.00    +0.000 OA
ATOM      4  H   UNL     1       3.698   7.473  18.881  0.00  0.00    +0.000 HD
ENDROOT
BRANCH   2   5
ATOM      5  C   UNL     1       5.802   6.686  17.743  0.00  0.00    +0.000 A 
ATOM      6  N   UNL     1       6.984   7.319  17.442  0.00  0.00    +0.000 NA
ATOM      7  C   UNL     1       8.060   6.900  18.142  0.00  0.00    +0.000 A 
ATOM      8  C   UNL     1       7.984   5.891  19.085  0.00  0.00    +0.000 A 
ATOM      9  N   UNL     1       6.831   5.236  19.354  0.00  0.00    +0.000 NA
ATOM     10  C   UNL     1       5.718   5.642  18.663  0.00  0.00    +0.000 A 
BRANCH  10  11
ATOM     11  C   UNL     1       4.520   4.813  18.858  0.00  0.00    +0.000 A 
ATOM     12  N   UNL     1       3.594   5.022  19.774  0.00  0.00    +0.000 NA
ATOM     13  C   UNL     1       2.603   4.061  19.690  0.00  0.00    +0.000 A 
ATOM     14  C   UNL     1       1.494   3.937  20.550  0.00  0.00    +0.000 A 
ATOM     15  C   UNL     1       0.533   2.947  20.308  0.00  0.00    +0.000 A 
ATOM     16  C   UNL     1       0.669   2.082  19.227  0.00  0.00    +0.000 A 
ATOM     17  C   UNL     1       1.776   2.168  18.377  0.00  0.00    +0.000 A 
ATOM     18  C   UNL     1       2.736   3.160  18.634  0.00  0.00    +0.000 A 
ATOM     19  S   UNL     1       4.200   3.493  17.796  0.00  0.00    +0.000 S 
ENDBRANCH  10  11
ENDBRANCH   2   5
BRANCH   1  20
ATOM     20  C   UNL     1       2.423   8.305  17.353  0.00  0.00    +0.000 C 
BRANCH  20  21
ATOM     21  C   UNL     1       1.572   9.030  18.387  0.00  0.00    +0.000 C 
BRANCH  21  22
ATOM     22  C   UNL     1       1.735  10.556  18.346  0.00  0.00    +0.000 C 
BRANCH  22  24
ATOM     23  C   UNL     1       0.785  12.048  20.017  0.00  0.00    +0.000 C 
ATOM     24  N   UNL     1       0.525  11.273  18.799  0.00  0.00    +0.000 NA
BRANCH  24  25
ATOM     25  C   UNL     1      -0.581  10.307  19.014  0.00  0.00    +0.000 C 
BRANCH  25  26
ATOM     26  C   UNL     1      -1.768  10.562  18.106  0.00  0.00    +0.000 A 
ATOM     27  C   UNL     1      -2.787  11.442  18.500  0.00  0.00    +0.000 A 
ATOM     28  C   UNL     1      -3.936  11.589  17.724  0.00  0.00    +0.000 A 
ATOM     29  C   UNL     1      -4.075  10.863  16.541  0.00  0.00    +0.000 A 
ATOM     30  C   UNL     1      -3.056  10.009  16.123  0.00  0.00    +0.000 A 
ATOM     31  C   UNL     1      -1.905   9.863  16.897  0.00  0.00    +0.000 A 
ENDBRANCH  25  26
ENDBRANCH  24  25
ENDBRANCH  22  24
ENDBRANCH  21  22
ENDBRANCH  20  21
ENDBRANCH   1  20
TORSDOF 8
ENDMDL
MODEL 9
REMARK VINA RESULT:      -8.0      6.022      9.194
REMARK  Name = 
REMARK  9 active torsions:
REMARK  status: ('A' for Active; 'I' for Inactive)
REMARK    1  A    between atoms: C_1  and  N_2
REMARK    2  A    between atoms: N_2  and  C_3
REMARK    3  A    between atoms: N_2  and  C_24
REMARK    4  A    between atoms: C_3  and  C_4
REMARK    5  A    between atoms: C_4  and  C_5
REMARK    6  A    between atoms: C_5  and  N_6
REMARK    7  A    between atoms: C_7  and  C_9
REMARK    8  A    between atoms: C_14  and  C_15
REMARK    9  A    between atoms: C_24  and  C_25
REMARK                            x       y       z     vdW  Elec       q    Type
REMARK                         _______ _______ _______ _____ _____    ______ ____
ROOT
ATOM      1  N   UNL     1       2.612   6.604  18.208  0.00  0.00    +0.000 N 
ATOM      2  C   UNL     1       2.491   6.198  19.524  0.00  0.00    +0.000 C 
ATOM      3  O   UNL     1       2.666   6.947  20.476  0.00  0.00    +0.000 OA
ATOM      4  H   UNL     1       2.655   5.879  17.497  0.00  0.00    +0.000 HD
ENDROOT
BRANCH   2   5
ATOM      5  C   UNL     1       2.197   4.750  19.701  0.00  0.00    +0.000 A 
ATOM      6  N   UNL     1       1.282   4.465  20.686  0.00  0.00    +0.000 NA
ATOM      7  C   UNL     1       0.927   3.166  20.788  0.00  0.00    +0.000 A 
ATOM      8  C   UNL     1       1.460   2.186  19.971  0.00  0.00    +0.000 A 
ATOM      9  N   UNL     1       2.393   2.456  19.030  0.00  0.00    +0.000 NA
ATOM     10  C   UNL     1       2.771   3.767  18.897  0.00  0.00    +0.000 A 
BRANCH  10  11
ATOM     11  C   UNL     1       3.895   4.008  17.980  0.00  0.00    +0.000 A 
ATOM     12  N   UNL     1       3.801   4.072  16.666  0.00  0.00    +0.000 NA
ATOM     13  C   UNL     1       5.042   4.310  16.103  0.00  0.00    +0.000 A 
ATOM     14  C   UNL     1       5.328   4.375  14.724  0.00  0.00    +0.000 A 
ATOM     15  C   UNL     1       6.624   4.684  14.296  0.00  0.00    +0.000 A 
ATOM     16  C   UNL     1       7.634   4.921  15.222  0.00  0.00    +0.000 A 
ATOM     17  C   UNL     1       7.381   4.833  16.595  0.00  0.00    +0.000 A 
ATOM     18  C   UNL     1       6.078   4.516  17.012  0.00  0.00    +0.000 A 
ATOM     19  S   UNL     1       5.472   4.311  18.607  0.00  0.00    +0.000 S 
ENDBRANCH  10  11
ENDBRANCH   2   5
BRANCH   1  20
ATOM     20  C   UNL     1       2.837   7.992  17.892  0.00  0.00    +0.000 C 
BRANCH  20  21
ATOM     21  C   UNL     1       1.561   8.797  17.683  0.00  0.00    +0.000 C 
BRANCH  21  22
ATOM     22  C   UNL     1       1.112   9.559  18.938  0.00  0.00    +0.000 C 
BRANCH  22  24
ATOM     23  C   UNL     1       1.115  11.985  19.113  0.00  0.00    +0.000 C 
ATOM     24  N   UNL     1       0.390  10.808  18.621  0.00  0.00    +0.000 NA
BRANCH  24  25
ATOM     25  C   UNL     1      -0.979  10.757  19.190  0.00  0.00    +0.000 C 
BRANCH  25  26
ATOM     26  C   UNL     1      -2.059  10.815  18.127  0.00  0.00    +0.000 A 
ATOM     27  C   UNL     1      -3.215  11.584  18.332  0.00  0.00    +0.000 A 
ATOM     28  C   UNL     1      -4.262  11.547  17.412  0.00  0.00    +0.000 A 
ATOM     29  C   UNL     1      -4.162  10.749  16.274  0.00  0.00    +0.000 A 
ATOM     30  C   UNL     1      -3.006  10.005  16.043  0.00  0.00    +0.000 A 
ATOM     31  C   UNL     1      -1.956  10.043  16.961  0.00  0.00    +0.000 A 
ENDBRANCH  25  26
ENDBRANCH  24  25
ENDBRANCH  22  24
ENDBRANCH  21  22
ENDBRANCH  20  21
ENDBRANCH   1  20
TORSDOF 8
ENDMDL
