MODEL 1
REMARK VINA RESULT:      -8.5      0.000      0.000
REMARK  Name = 
REMARK  13 active torsions:
REMARK  status: ('A' for Active; 'I' for Inactive)
REMARK    1  A    between atoms: C_1  and  C_2
REMARK    2  A    between atoms: C_5  and  S_6
REMARK    3  A    between atoms: S_6  and  N_9
REMARK    4  A    between atoms: N_9  and  C_10
REMARK    5  A    between atoms: C_10  and  C_11
REMARK    6  A    between atoms: C_10  and  C_22
REMARK    7  A    between atoms: C_11  and  C_12
REMARK    8  A    between atoms: C_12  and  O_14
REMARK    9  A    between atoms: O_14  and  C_15
REMARK   10  A    between atoms: C_15  and  C_16
REMARK   11  A    between atoms: C_22  and  O_24
REMARK   12  A    between atoms: O_24  and  C_25
REMARK   13  A    between atoms: C_25  and  C_26
REMARK                            x       y       z     vdW  Elec       q    Type
REMARK                         _______ _______ _______ _____ _____    ______ ____
ROOT
ATOM      1  C   UNL     1       6.253   5.439  18.016  0.00  0.00    +0.000 C 
ENDROOT
BRANCH   1   2
ATOM      2  N   UNL     1       5.372   4.726  19.008  0.00  0.00    +0.000 NA
ATOM      3  H   UNL     1       5.785   3.828  19.273  0.00  0.00    +0.000 HD
BRANCH   2   4
ATOM      4  S   UNL     1       3.754   4.477  18.504  0.00  0.00    +0.000 S 
ATOM      5  O   UNL     1       3.165   3.494  19.384  0.00  0.00    +0.000 OA
ATOM      6  O   UNL     1       3.792   4.297  17.070  0.00  0.00    +0.000 OA
BRANCH   4  11
ATOM      7  C   UNL     1       1.138   9.878  19.462  0.00  0.00    +0.000 C 
ATOM      8  C   UNL     1       1.767   8.536  19.221  0.00  0.00    +0.000 A 
ATOM      9  C   UNL     1       2.355   8.235  17.986  0.00  0.00    +0.000 A 
ATOM     10  C   UNL     1       2.949   6.992  17.767  0.00  0.00    +0.000 A 
ATOM     11  C   UNL     1       2.969   6.045  18.797  0.00  0.00    +0.000 A 
ATOM     12  C   UNL     1       2.359   6.316  20.025  0.00  0.00    +0.000 A 
ATOM     13  C   UNL     1       1.763   7.565  20.234  0.00  0.00    +0.000 A 
ENDBRANCH   4  11
ENDBRANCH   2   4
ENDBRANCH   1   2
BRANCH   1  14
ATOM     14  C   UNL     1       7.540   4.664  17.815  0.00  0.00    +0.000 C 
ATOM     15  O   UNL     1       8.355   4.455  18.701  0.00  0.00    +0.000 OA
BRANCH  14  16
ATOM     16  O   UNL     1       7.629   4.259  16.533  0.00  0.00    +0.000 OA
BRANCH  16  17
ATOM     17  C   UNL     1       6.400   4.016  15.849  0.00  0.00    +0.000 C 
BRANCH  17  18
ATOM     18  C   UNL     1       6.616   4.237  14.372  0.00  0.00    +0.000 A 
ATOM     19  C   UNL     1       7.551   5.162  13.896  0.00  0.00    +0.000 A 
ATOM     20  C   UNL     1       7.849   5.252  12.537  0.00  0.00    +0.000 A 
ATOM     21  C   UNL     1       7.231   4.402  11.632  0.00  0.00    +0.000 A 
ATOM     22  C   UNL     1       6.247   3.528  12.079  0.00  0.00    +0.000 A 
ATOM     23  C   UNL     1       5.928   3.456  13.438  0.00  0.00    +0.000 A 
ENDBRANCH  17  18
ENDBRANCH  16  17
ENDBRANCH  14  16
ENDBRANCH   1  14
BRANCH   1  24
ATOM     24  C   UNL     1       6.601   6.825  18.540  0.00  0.00    +0.000 C 
BRANCH  24  25
ATOM     25  C   UNL     1       7.598   7.509  17.635  0.00  0.00    +0.000 C 
ATOM     26  O   UNL     1       7.708   7.255  16.450  0.00  0.00    +0.000 OA
BRANCH  25  27
ATOM     27  O   UNL     1       8.347   8.408  18.325  0.00  0.00    +0.000 OA
BRANCH  27  28
ATOM     28  C   UNL     1       8.321   9.761  17.844  0.00  0.00    +0.000 C 
BRANCH  28  29
ATOM     29  C   UNL     1       9.356  10.588  18.564  0.00  0.00    +0.000 A 
ATOM     30  C   UNL     1       9.333  10.709  19.961  0.00  0.00    +0.000 A 
ATOM     31  C   UNL     1      10.334  11.421  20.626  0.00  0.00    +0.000 A 
ATOM     32  C   UNL     1      11.362  12.024  19.900  0.00  0.00    +0.000 A 
ATOM     33  C   UNL     1      11.367  11.954  18.509  0.00  0.00    +0.000 A 
ATOM     34  C   UNL     1      10.372  11.235  17.844  0.00  0.00    +0.000 A 
ENDBRANCH  28  29
ENDBRANCH  27  28
ENDBRANCH  25  27
ENDBRANCH  24  25
ENDBRANCH   1  24
TORSDOF 12
ENDMDL
MODEL 2
REMARK VINA RESULT:      -8.5      6.200     10.152
REMARK  Name = 
REMARK  13 active torsions:
REMARK  status: ('A' for Active; 'I' for Inactive)
REMARK    1  A    between atoms: C_1  and  C_2
REMARK    2  A    between atoms: C_5  and  S_6
REMARK    3  A    between atoms: S_6  and  N_9
REMARK    4  A    between atoms: N_9  and  C_10
REMARK    5  A    between atoms: C_10  and  C_11
REMARK    6  A    between atoms: C_10  and  C_22
REMARK    7  A    between atoms: C_11  and  C_12
REMARK    8  A    between atoms: C_12  and  O_14
REMARK    9  A    between atoms: O_14  and  C_15
REMARK   10  A    between atoms: C_15  and  C_16
REMARK   11  A    between atoms: C_22  and  O_24
REMARK   12  A    between atoms: O_24  and  C_25
REMARK   13  A    between atoms: C_25  and  C_26
REMARK                            x       y       z     vdW  Elec       q    Type
REMARK                         _______ _______ _______ _____ _____    ______ ____
ROOT
ATOM      1  C   UNL     1       0.561   9.753  19.367  0.00  0.00    +0.000 C 
ENDROOT
BRANCH   1   2
ATOM      2  N   UNL     1       1.126  10.293  20.654  0.00  0.00    +0.000 NA
ATOM      3  H   UNL     1       2.098   9.995  20.772  0.00  0.00    +0.000 HD
BRANCH   2   4
ATOM      4  S   UNL     1       0.240   9.898  22.066  0.00  0.00    +0.000 S 
ATOM      5  O   UNL     1       1.183   9.752  23.151  0.00  0.00    +0.000 OA
ATOM      6  O   UNL     1      -0.675   8.841  21.697  0.00  0.00    +0.000 OA
BRANCH   4  11
ATOM      7  C   UNL     1      -3.224  14.788  23.082  0.00  0.00    +0.000 C 
ATOM      8  C   UNL     1      -2.355  13.586  22.846  0.00  0.00    +0.000 A 
ATOM      9  C   UNL     1      -2.667  12.354  23.435  0.00  0.00    +0.000 A 
ATOM     10  C   UNL     1      -1.866  11.235  23.204  0.00  0.00    +0.000 A 
ATOM     11  C   UNL     1      -0.751  11.344  22.366  0.00  0.00    +0.000 A 
ATOM     12  C   UNL     1      -0.408  12.572  21.795  0.00  0.00    +0.000 A 
ATOM     13  C   UNL     1      -1.216  13.690  22.034  0.00  0.00    +0.000 A 
ENDBRANCH   4  11
ENDBRANCH   2   4
ENDBRANCH   1   2
BRANCH   1  14
ATOM     14  C   UNL     1       1.640   9.021  18.593  0.00  0.00    +0.000 C 
ATOM     15  O   UNL     1       2.052   9.375  17.499  0.00  0.00    +0.000 OA
BRANCH  14  16
ATOM     16  O   UNL     1       2.052   7.948  19.296  0.00  0.00    +0.000 OA
BRANCH  16  17
ATOM     17  C   UNL     1       2.774   6.947  18.577  0.00  0.00    +0.000 C 
BRANCH  17  18
ATOM     18  C   UNL     1       2.245   5.590  18.973  0.00  0.00    +0.000 A 
ATOM     19  C   UNL     1       1.937   5.280  20.301  0.00  0.00    +0.000 A 
ATOM     20  C   UNL     1       1.311   4.080  20.635  0.00  0.00    +0.000 A 
ATOM     21  C   UNL     1       0.962   3.178  19.642  0.00  0.00    +0.000 A 
ATOM     22  C   UNL     1       1.326   3.439  18.325  0.00  0.00    +0.000 A 
ATOM     23  C   UNL     1       1.978   4.629  17.993  0.00  0.00    +0.000 A 
ENDBRANCH  17  18
ENDBRANCH  16  17
ENDBRANCH  14  16
ENDBRANCH   1  14
BRANCH   1  24
ATOM     24  C   UNL     1       0.046  10.900  18.510  0.00  0.00    +0.000 C 
BRANCH  24  25
ATOM     25  C   UNL     1      -1.344  10.609  17.998  0.00  0.00    +0.000 C 
ATOM     26  O   UNL     1      -1.583   9.759  17.161  0.00  0.00    +0.000 OA
BRANCH  25  27
ATOM     27  O   UNL     1      -2.260  11.429  18.576  0.00  0.00    +0.000 OA
BRANCH  27  28
ATOM     28  C   UNL     1      -3.511  11.574  17.886  0.00  0.00    +0.000 C 
BRANCH  28  29
ATOM     29  C   UNL     1      -4.635  11.734  18.877  0.00  0.00    +0.000 A 
ATOM     30  C   UNL     1      -4.454  12.476  20.055  0.00  0.00    +0.000 A 
ATOM     31  C   UNL     1      -5.520  12.675  20.935  0.00  0.00    +0.000 A 
ATOM     32  C   UNL     1      -6.773  12.131  20.651  0.00  0.00    +0.000 A 
ATOM     33  C   UNL     1      -6.951  11.350  19.512  0.00  0.00    +0.000 A 
ATOM     34  C   UNL     1      -5.890  11.157  18.626  0.00  0.00    +0.000 A 
ENDBRANCH  28  29
ENDBRANCH  27  28
ENDBRANCH  25  27
ENDBRANCH  24  25
ENDBRANCH   1  24
TORSDOF 12
ENDMDL
MODEL 3
REMARK VINA RESULT:      -8.5      3.351      6.293
REMARK  Name = 
REMARK  13 active torsions:
REMARK  status: ('A' for Active; 'I' for Inactive)
REMARK    1  A    between atoms: C_1  and  C_2
REMARK    2  A    between atoms: C_5  and  S_6
REMARK    3  A    between atoms: S_6  and  N_9
REMARK    4  A    between atoms: N_9  and  C_10
REMARK    5  A    between atoms: C_10  and  C_11
REMARK    6  A    between atoms: C_10  and  C_22
REMARK    7  A    between atoms: C_11  and  C_12
REMARK    8  A    between atoms: C_12  and  O_14
REMARK    9  A    between atoms: O_14  and  C_15
REMARK   10  A    between atoms: C_15  and  C_16
REMARK   11  A    between atoms: C_22  and  O_24
REMARK   12  A    between atoms: O_24  and  C_25
REMARK   13  A    between atoms: C_25  and  C_26
REMARK                            x       y       z     vdW  Elec       q    Type
REMARK                         _______ _______ _______ _____ _____    ______ ____
ROOT
ATOM      1  C   UNL     1       4.711   5.768  18.622  0.00  0.00    +0.000 C 
ENDROOT
BRANCH   1   2
ATOM      2  N   UNL     1       3.866   6.368  19.713  0.00  0.00    +0.000 NA
ATOM      3  H   UNL     1       4.033   5.889  20.602  0.00  0.00    +0.000 HD
BRANCH   2   4
ATOM      4  S   UNL     1       2.182   6.404  19.400  0.00  0.00    +0.000 S 
ATOM      5  O   UNL     1       1.505   5.908  20.576  0.00  0.00    +0.000 OA
ATOM      6  O   UNL     1       1.993   5.808  18.097  0.00  0.00    +0.000 OA
BRANCH   4  11
ATOM      7  C   UNL     1       1.017  12.334  18.755  0.00  0.00    +0.000 C 
ATOM      8  C   UNL     1       1.286  10.865  18.909  0.00  0.00    +0.000 A 
ATOM      9  C   UNL     1       1.899  10.140  17.879  0.00  0.00    +0.000 A 
ATOM     10  C   UNL     1       2.160   8.777  18.028  0.00  0.00    +0.000 A 
ATOM     11  C   UNL     1       1.818   8.135  19.223  0.00  0.00    +0.000 A 
ATOM     12  C   UNL     1       1.177   8.836  20.248  0.00  0.00    +0.000 A 
ATOM     13  C   UNL     1       0.917  10.202  20.089  0.00  0.00    +0.000 A 
ENDBRANCH   4  11
ENDBRANCH   2   4
ENDBRANCH   1   2
BRANCH   1  14
ATOM     14  C   UNL     1       5.744   4.832  19.221  0.00  0.00    +0.000 C 
ATOM     15  O   UNL     1       6.690   5.207  19.898  0.00  0.00    +0.000 OA
BRANCH  14  16
ATOM     16  O   UNL     1       5.448   3.560  18.890  0.00  0.00    +0.000 OA
BRANCH  16  17
ATOM     17  C   UNL     1       4.923   2.731  19.927  0.00  0.00    +0.000 C 
BRANCH  17  18
ATOM     18  C   UNL     1       3.417   2.742  19.839  0.00  0.00    +0.000 A 
ATOM     19  C   UNL     1       2.750   2.542  18.625  0.00  0.00    +0.000 A 
ATOM     20  C   UNL     1       1.363   2.405  18.578  0.00  0.00    +0.000 A 
ATOM     21  C   UNL     1       0.621   2.442  19.749  0.00  0.00    +0.000 A 
ATOM     22  C   UNL     1       1.261   2.712  20.954  0.00  0.00    +0.000 A 
ATOM     23  C   UNL     1       2.647   2.877  20.998  0.00  0.00    +0.000 A 
ENDBRANCH  17  18
ENDBRANCH  16  17
ENDBRANCH  14  16
ENDBRANCH   1  14
BRANCH   1  24
ATOM     24  C   UNL     1       5.439   6.871  17.869  0.00  0.00    +0.000 C 
BRANCH  24  25
ATOM     25  C   UNL     1       6.291   6.297  16.761  0.00  0.00    +0.000 C 
ATOM     26  O   UNL     1       7.476   6.542  16.636  0.00  0.00    +0.000 OA
BRANCH  25  27
ATOM     27  O   UNL     1       5.553   5.508  15.937  0.00  0.00    +0.000 OA
BRANCH  27  28
ATOM     28  C   UNL     1       6.122   4.233  15.600  0.00  0.00    +0.000 C 
BRANCH  28  29
ATOM     29  C   UNL     1       6.475   4.193  14.135  0.00  0.00    +0.000 A 
ATOM     30  C   UNL     1       5.792   3.340  13.255  0.00  0.00    +0.000 A 
ATOM     31  C   UNL     1       6.079   3.356  11.889  0.00  0.00    +0.000 A 
ATOM     32  C   UNL     1       7.055   4.220  11.390  0.00  0.00    +0.000 A 
ATOM     33  C   UNL     1       7.775   5.034  12.260  0.00  0.00    +0.000 A 
ATOM     34  C   UNL     1       7.484   5.025  13.626  0.00  0.00    +0.000 A 
ENDBRANCH  28  29
ENDBRANCH  27  28
ENDBRANCH  25  27
ENDBRANCH  24  25
ENDBRANCH   1  24
TORSDOF 12
ENDMDL
MODEL 4
REMARK VINA RESULT:      -8.5      3.732      6.151
REMARK  Name = 
REMARK  13 active torsions:
REMARK  status: ('A' for Active; 'I' for Inactive)
REMARK    1  A    between atoms: C_1  and  C_2
REMARK    2  A    between atoms: C_5  and  S_6
REMARK    3  A    between atoms: S_6  and  N_9
REMARK    4  A    between atoms: N_9  and  C_10
REMARK    5  A    between atoms: C_10  and  C_11
REMARK    6  A    between atoms: C_10  and  C_22
REMARK    7  A    between atoms: C_11  and  C_12
REMARK    8  A    between atoms: C_12  and  O_14
REMARK    9  A    between atoms: O_14  and  C_15
REMARK   10  A    between atoms: C_15  and  C_16
REMARK   11  A    between atoms: C_22  and  O_24
REMARK   12  A    between atoms: O_24  and  C_25
REMARK   13  A    between atoms: C_25  and  C_26
REMARK                            x       y       z     vdW  Elec       q    Type
REMARK                         _______ _______ _______ _____ _____    ______ ____
ROOT
ATOM      1  C   UNL     1       4.813   6.050  17.286  0.00  0.00    +0.000 C 
ENDROOT
BRANCH   1   2
ATOM      2  N   UNL     1       3.783   7.064  17.707  0.00  0.00    +0.000 NA
ATOM      3  H   UNL     1       4.237   7.906  18.071  0.00  0.00    +0.000 HD
BRANCH   2   4
ATOM      4  S   UNL     1       2.630   6.508  18.846  0.00  0.00    +0.000 S 
ATOM      5  O   UNL     1       3.350   5.909  19.946  0.00  0.00    +0.000 OA
ATOM      6  O   UNL     1       1.629   5.780  18.097  0.00  0.00    +0.000 OA
BRANCH   4  11
ATOM      7  C   UNL     1      -0.104  11.547  20.863  0.00  0.00    +0.000 C 
ATOM      8  C   UNL     1       0.589  10.311  20.367  0.00  0.00    +0.000 A 
ATOM      9  C   UNL     1       0.826   9.232  21.229  0.00  0.00    +0.000 A 
ATOM     10  C   UNL     1       1.460   8.079  20.764  0.00  0.00    +0.000 A 
ATOM     11  C   UNL     1       1.847   7.997  19.422  0.00  0.00    +0.000 A 
ATOM     12  C   UNL     1       1.647   9.076  18.557  0.00  0.00    +0.000 A 
ATOM     13  C   UNL     1       1.013  10.229  19.032  0.00  0.00    +0.000 A 
ENDBRANCH   4  11
ENDBRANCH   2   4
ENDBRANCH   1   2
BRANCH   1  14
ATOM     14  C   UNL     1       5.558   6.545  16.062  0.00  0.00    +0.000 C 
ATOM     15  O   UNL     1       5.016   7.078  15.105  0.00  0.00    +0.000 OA
BRANCH  14  16
ATOM     16  O   UNL     1       6.875   6.303  16.205  0.00  0.00    +0.000 OA
BRANCH  16  17
ATOM     17  C   UNL     1       7.324   4.984  15.894  0.00  0.00    +0.000 C 
BRANCH  17  18
ATOM     18  C   UNL     1       7.063   4.715  14.433  0.00  0.00    +0.000 A 
ATOM     19  C   UNL     1       7.802   5.345  13.426  0.00  0.00    +0.000 A 
ATOM     20  C   UNL     1       7.656   4.979  12.088  0.00  0.00    +0.000 A 
ATOM     21  C   UNL     1       6.784   3.960  11.737  0.00  0.00    +0.000 A 
ATOM     22  C   UNL     1       5.990   3.374  12.717  0.00  0.00    +0.000 A 
ATOM     23  C   UNL     1       6.115   3.759  14.054  0.00  0.00    +0.000 A 
ENDBRANCH  17  18
ENDBRANCH  16  17
ENDBRANCH  14  16
ENDBRANCH   1  14
BRANCH   1  24
ATOM     24  C   UNL     1       4.129   4.736  16.936  0.00  0.00    +0.000 C 
BRANCH  24  25
ATOM     25  C   UNL     1       4.717   3.594  17.730  0.00  0.00    +0.000 C 
ATOM     26  O   UNL     1       5.583   3.742  18.572  0.00  0.00    +0.000 OA
BRANCH  25  27
ATOM     27  O   UNL     1       4.167   2.408  17.360  0.00  0.00    +0.000 OA
BRANCH  27  28
ATOM     28  C   UNL     1       3.823   1.506  18.423  0.00  0.00    +0.000 C 
BRANCH  28  29
ATOM     29  C   UNL     1       2.850   2.164  19.368  0.00  0.00    +0.000 A 
ATOM     30  C   UNL     1       1.549   2.483  18.951  0.00  0.00    +0.000 A 
ATOM     31  C   UNL     1       0.633   3.032  19.852  0.00  0.00    +0.000 A 
ATOM     32  C   UNL     1       1.010   3.271  21.174  0.00  0.00    +0.000 A 
ATOM     33  C   UNL     1       2.314   3.006  21.585  0.00  0.00    +0.000 A 
ATOM     34  C   UNL     1       3.228   2.450  20.689  0.00  0.00    +0.000 A 
ENDBRANCH  28  29
ENDBRANCH  27  28
ENDBRANCH  25  27
ENDBRANCH  24  25
ENDBRANCH   1  24
TORSDOF 12
ENDMDL
MODEL 5
REMARK VINA RESULT:      -8.4      6.108     10.061
REMARK  Name = 
REMARK  13 active torsions:
REMARK  status: ('A' for Active; 'I' for Inactive)
REMARK    1  A    between atoms: C_1  and  C_2
REMARK    2  A    between atoms: C_5  and  S_6
REMARK    3  A    between atoms: S_6  and  N_9
REMARK    4  A    between atoms: N_9  and  C_10
REMARK    5  A    between atoms: C_10  and  C_11
REMARK    6  A    between atoms: C_10  and  C_22
REMARK    7  A    between atoms: C_11  and  C_12
REMARK    8  A    between atoms: C_12  and  O_14
REMARK    9  A    between atoms: O_14  and  C_15
REMARK   10  A    between atoms: C_15  and  C_16
REMARK   11  A    between atoms: C_22  and  O_24
REMARK   12  A    between atoms: O_24  and  C_25
REMARK   13  A    between atoms: C_25  and  C_26
REMARK                            x       y       z     vdW  Elec       q    Type
REMARK                         _______ _______ _______ _____ _____    ______ ____
ROOT
ATOM      1  C   UNL     1       0.481   9.390  19.043  0.00  0.00    +0.000 C 
ENDROOT
BRANCH   1   2
ATOM      2  N   UNL     1       0.815  10.397  20.110  0.00  0.00    +0.000 NA
ATOM      3  H   UNL     1       1.816  10.614  20.099  0.00  0.00    +0.000 HD
BRANCH   2   4
ATOM      4  S   UNL     1       0.351   9.961  21.700  0.00  0.00    +0.000 S 
ATOM      5  O   UNL     1       1.551   9.866  22.499  0.00  0.00    +0.000 OA
ATOM      6  O   UNL     1      -0.575   8.858  21.572  0.00  0.00    +0.000 OA
BRANCH   4  11
ATOM      7  C   UNL     1      -2.969  14.677  23.618  0.00  0.00    +0.000 C 
ATOM      8  C   UNL     1      -2.136  13.515  23.159  0.00  0.00    +0.000 A 
ATOM      9  C   UNL     1      -2.453  12.210  23.554  0.00  0.00    +0.000 A 
ATOM     10  C   UNL     1      -1.685  11.130  23.117  0.00  0.00    +0.000 A 
ATOM     11  C   UNL     1      -0.598  11.355  22.265  0.00  0.00    +0.000 A 
ATOM     12  C   UNL     1      -0.249  12.654  21.886  0.00  0.00    +0.000 A 
ATOM     13  C   UNL     1      -1.024  13.731  22.332  0.00  0.00    +0.000 A 
ENDBRANCH   4  11
ENDBRANCH   2   4
ENDBRANCH   1   2
BRANCH   1  14
ATOM     14  C   UNL     1       1.755   8.858  18.415  0.00  0.00    +0.000 C 
ATOM     15  O   UNL     1       2.213   9.263  17.357  0.00  0.00    +0.000 OA
BRANCH  14  16
ATOM     16  O   UNL     1       2.276   7.893  19.197  0.00  0.00    +0.000 OA
BRANCH  16  17
ATOM     17  C   UNL     1       2.957   6.827  18.535  0.00  0.00    +0.000 C 
BRANCH  17  18
ATOM     18  C   UNL     1       2.334   5.519  18.957  0.00  0.00    +0.000 A 
ATOM     19  C   UNL     1       2.020   5.252  20.294  0.00  0.00    +0.000 A 
ATOM     20  C   UNL     1       1.311   4.106  20.654  0.00  0.00    +0.000 A 
ATOM     21  C   UNL     1       0.884   3.218  19.678  0.00  0.00    +0.000 A 
ATOM     22  C   UNL     1       1.251   3.432  18.353  0.00  0.00    +0.000 A 
ATOM     23  C   UNL     1       1.985   4.565  17.996  0.00  0.00    +0.000 A 
ENDBRANCH  17  18
ENDBRANCH  16  17
ENDBRANCH  14  16
ENDBRANCH   1  14
BRANCH   1  24
ATOM     24  C   UNL     1      -0.354  10.050  17.956  0.00  0.00    +0.000 C 
BRANCH  24  25
ATOM     25  C   UNL     1      -0.946  11.351  18.444  0.00  0.00    +0.000 C 
ATOM     26  O   UNL     1      -0.359  12.415  18.384  0.00  0.00    +0.000 OA
BRANCH  25  27
ATOM     27  O   UNL     1      -2.185  11.157  18.966  0.00  0.00    +0.000 OA
BRANCH  27  28
ATOM     28  C   UNL     1      -3.273  11.792  18.276  0.00  0.00    +0.000 C 
BRANCH  28  29
ATOM     29  C   UNL     1      -4.442  11.979  19.209  0.00  0.00    +0.000 A 
ATOM     30  C   UNL     1      -5.669  11.346  18.959  0.00  0.00    +0.000 A 
ATOM     31  C   UNL     1      -6.726  11.471  19.863  0.00  0.00    +0.000 A 
ATOM     32  C   UNL     1      -6.569  12.234  21.021  0.00  0.00    +0.000 A 
ATOM     33  C   UNL     1      -5.373  12.908  21.254  0.00  0.00    +0.000 A 
ATOM     34  C   UNL     1      -4.313  12.778  20.356  0.00  0.00    +0.000 A 
ENDBRANCH  28  29
ENDBRANCH  27  28
ENDBRANCH  25  27
ENDBRANCH  24  25
ENDBRANCH   1  24
TORSDOF 12
ENDMDL
MODEL 6
REMARK VINA RESULT:      -8.4      2.685      4.316
REMARK  Name = 
REMARK  13 active torsions:
REMARK  status: ('A' for Active; 'I' for Inactive)
REMARK    1  A    between atoms: C_1  and  C_2
REMARK    2  A    between atoms: C_5  and  S_6
REMARK    3  A    between atoms: S_6  and  N_9
REMARK    4  A    between atoms: N_9  and  C_10
REMARK    5  A    between atoms: C_10  and  C_11
REMARK    6  A    between atoms: C_10  and  C_22
REMARK    7  A    between atoms: C_11  and  C_12
REMARK    8  A    between atoms: C_12  and  O_14
REMARK    9  A    between atoms: O_14  and  C_15
REMARK   10  A    between atoms: C_15  and  C_16
REMARK   11  A    between atoms: C_22  and  O_24
REMARK   12  A    between atoms: O_24  and  C_25
REMARK   13  A    between atoms: C_25  and  C_26
REMARK                            x       y       z     vdW  Elec       q    Type
REMARK                         _______ _______ _______ _____ _____    ______ ____
ROOT
ATOM      1  C   UNL     1       5.299   5.865  17.976  0.00  0.00    +0.000 C 
ENDROOT
BRANCH   1   2
ATOM      2  N   UNL     1       4.224   6.448  18.855  0.00  0.00    +0.000 NA
ATOM      3  H   UNL     1       3.964   5.786  19.591  0.00  0.00    +0.000 HD
BRANCH   2   4
ATOM      4  S   UNL     1       2.811   6.967  18.038  0.00  0.00    +0.000 S 
ATOM      5  O   UNL     1       2.009   5.798  17.759  0.00  0.00    +0.000 OA
ATOM      6  O   UNL     1       3.246   7.866  16.992  0.00  0.00    +0.000 OA
BRANCH   4  11
ATOM      7  C   UNL     1      -0.043  10.447  22.122  0.00  0.00    +0.000 C 
ATOM      8  C   UNL     1       0.645   9.578  21.110  0.00  0.00    +0.000 A 
ATOM      9  C   UNL     1       0.819  10.019  19.792  0.00  0.00    +0.000 A 
ATOM     10  C   UNL     1       1.469   9.214  18.855  0.00  0.00    +0.000 A 
ATOM     11  C   UNL     1       1.963   7.964  19.242  0.00  0.00    +0.000 A 
ATOM     12  C   UNL     1       1.771   7.495  20.544  0.00  0.00    +0.000 A 
ATOM     13  C   UNL     1       1.115   8.308  21.476  0.00  0.00    +0.000 A 
ENDBRANCH   4  11
ENDBRANCH   2   4
ENDBRANCH   1   2
BRANCH   1  14
ATOM     14  C   UNL     1       5.225   4.351  18.002  0.00  0.00    +0.000 C 
ATOM     15  O   UNL     1       5.116   3.658  17.001  0.00  0.00    +0.000 OA
BRANCH  14  16
ATOM     16  O   UNL     1       5.298   3.915  19.274  0.00  0.00    +0.000 OA
BRANCH  16  17
ATOM     17  C   UNL     1       4.724   2.638  19.550  0.00  0.00    +0.000 C 
BRANCH  17  18
ATOM     18  C   UNL     1       3.231   2.800  19.698  0.00  0.00    +0.000 A 
ATOM     19  C   UNL     1       2.676   3.661  20.651  0.00  0.00    +0.000 A 
ATOM     20  C   UNL     1       1.305   3.916  20.680  0.00  0.00    +0.000 A 
ATOM     21  C   UNL     1       0.469   3.331  19.741  0.00  0.00    +0.000 A 
ATOM     22  C   UNL     1       0.995   2.417  18.834  0.00  0.00    +0.000 A 
ATOM     23  C   UNL     1       2.364   2.140  18.822  0.00  0.00    +0.000 A 
ENDBRANCH  17  18
ENDBRANCH  16  17
ENDBRANCH  14  16
ENDBRANCH   1  14
BRANCH   1  24
ATOM     24  C   UNL     1       6.667   6.291  18.486  0.00  0.00    +0.000 C 
BRANCH  24  25
ATOM     25  C   UNL     1       7.352   7.205  17.498  0.00  0.00    +0.000 C 
ATOM     26  O   UNL     1       7.731   6.838  16.402  0.00  0.00    +0.000 OA
BRANCH  25  27
ATOM     27  O   UNL     1       7.497   8.456  18.009  0.00  0.00    +0.000 OA
BRANCH  27  28
ATOM     28  C   UNL     1       8.524   9.269  17.419  0.00  0.00    +0.000 C 
BRANCH  28  29
ATOM     29  C   UNL     1       8.882  10.404  18.344  0.00  0.00    +0.000 A 
ATOM     30  C   UNL     1       8.817  11.735  17.904  0.00  0.00    +0.000 A 
ATOM     31  C   UNL     1       9.085  12.785  18.786  0.00  0.00    +0.000 A 
ATOM     32  C   UNL     1       9.426  12.515  20.112  0.00  0.00    +0.000 A 
ATOM     33  C   UNL     1       9.544  11.197  20.546  0.00  0.00    +0.000 A 
ATOM     34  C   UNL     1       9.268  10.146  19.668  0.00  0.00    +0.000 A 
ENDBRANCH  28  29
ENDBRANCH  27  28
ENDBRANCH  25  27
ENDBRANCH  24  25
ENDBRANCH   1  24
TORSDOF 12
ENDMDL
MODEL 7
REMARK VINA RESULT:      -8.4      2.523      4.208
REMARK  Name = 
REMARK  13 active torsions:
REMARK  status: ('A' for Active; 'I' for Inactive)
REMARK    1  A    between atoms: C_1  and  C_2
REMARK    2  A    between atoms: C_5  and  S_6
REMARK    3  A    between atoms: S_6  and  N_9
REMARK    4  A    between atoms: N_9  and  C_10
REMARK    5  A    between atoms: C_10  and  C_11
REMARK    6  A    between atoms: C_10  and  C_22
REMARK    7  A    between atoms: C_11  and  C_12
REMARK    8  A    between atoms: C_12  and  O_14
REMARK    9  A    between atoms: O_14  and  C_15
REMARK   10  A    between atoms: C_15  and  C_16
REMARK   11  A    between atoms: C_22  and  O_24
REMARK   12  A    between atoms: O_24  and  C_25
REMARK   13  A    between atoms: C_25  and  C_26
REMARK                            x       y       z     vdW  Elec       q    Type
REMARK                         _______ _______ _______ _____ _____    ______ ____
ROOT
ATOM      1  C   UNL     1       5.841   5.874  18.112  0.00  0.00    +0.000 C 
ENDROOT
BRANCH   1   2
ATOM      2  N   UNL     1       4.557   6.141  18.851  0.00  0.00    +0.000 NA
ATOM      3  H   UNL     1       4.283   5.322  19.401  0.00  0.00    +0.000 HD
BRANCH   2   4
ATOM      4  S   UNL     1       3.239   6.635  17.876  0.00  0.00    +0.000 S 
ATOM      5  O   UNL     1       2.458   5.460  17.564  0.00  0.00    +0.000 OA
ATOM      6  O   UNL     1       3.785   7.488  16.845  0.00  0.00    +0.000 OA
BRANCH   4  11
ATOM      7  C   UNL     1      -0.071  10.148  21.569  0.00  0.00    +0.000 C 
ATOM      8  C   UNL     1       0.763   9.290  20.661  0.00  0.00    +0.000 A 
ATOM      9  C   UNL     1       1.255   8.055  21.101  0.00  0.00    +0.000 A 
ATOM     10  C   UNL     1       2.020   7.253  20.252  0.00  0.00    +0.000 A 
ATOM     11  C   UNL     1       2.283   7.684  18.947  0.00  0.00    +0.000 A 
ATOM     12  C   UNL     1       1.827   8.928  18.503  0.00  0.00    +0.000 A 
ATOM     13  C   UNL     1       1.063   9.726  19.362  0.00  0.00    +0.000 A 
ENDBRANCH   4  11
ENDBRANCH   2   4
ENDBRANCH   1   2
BRANCH   1  14
ATOM     14  C   UNL     1       6.143   4.388  18.117  0.00  0.00    +0.000 C 
ATOM     15  O   UNL     1       7.272   3.923  18.066  0.00  0.00    +0.000 OA
BRANCH  14  16
ATOM     16  O   UNL     1       4.992   3.692  18.185  0.00  0.00    +0.000 OA
BRANCH  16  17
ATOM     17  C   UNL     1       4.737   2.988  19.400  0.00  0.00    +0.000 C 
BRANCH  17  18
ATOM     18  C   UNL     1       3.244   2.910  19.610  0.00  0.00    +0.000 A 
ATOM     19  C   UNL     1       2.612   3.595  20.653  0.00  0.00    +0.000 A 
ATOM     20  C   UNL     1       1.221   3.637  20.749  0.00  0.00    +0.000 A 
ATOM     21  C   UNL     1       0.439   3.013  19.789  0.00  0.00    +0.000 A 
ATOM     22  C   UNL     1       1.052   2.267  18.788  0.00  0.00    +0.000 A 
ATOM     23  C   UNL     1       2.445   2.202  18.707  0.00  0.00    +0.000 A 
ENDBRANCH  17  18
ENDBRANCH  16  17
ENDBRANCH  14  16
ENDBRANCH   1  14
BRANCH   1  24
ATOM     24  C   UNL     1       6.989   6.602  18.795  0.00  0.00    +0.000 C 
BRANCH  24  25
ATOM     25  C   UNL     1       7.744   7.464  17.810  0.00  0.00    +0.000 C 
ATOM     26  O   UNL     1       7.768   7.245  16.613  0.00  0.00    +0.000 OA
BRANCH  25  27
ATOM     27  O   UNL     1       8.391   8.477  18.443  0.00  0.00    +0.000 OA
BRANCH  27  28
ATOM     28  C   UNL     1       8.422   9.739  17.758  0.00  0.00    +0.000 C 
BRANCH  28  29
ATOM     29  C   UNL     1       9.281  10.720  18.515  0.00  0.00    +0.000 A 
ATOM     30  C   UNL     1       9.918  11.778  17.850  0.00  0.00    +0.000 A 
ATOM     31  C   UNL     1      10.657  12.721  18.567  0.00  0.00    +0.000 A 
ATOM     32  C   UNL     1      10.771  12.612  19.954  0.00  0.00    +0.000 A 
ATOM     33  C   UNL     1      10.186  11.538  20.618  0.00  0.00    +0.000 A 
ATOM     34  C   UNL     1       9.440  10.599  19.904  0.00  0.00    +0.000 A 
ENDBRANCH  28  29
ENDBRANCH  27  28
ENDBRANCH  25  27
ENDBRANCH  24  25
ENDBRANCH   1  24
TORSDOF 12
ENDMDL
MODEL 8
REMARK VINA RESULT:      -8.3      3.729      6.113
REMARK  Name = 
REMARK  13 active torsions:
REMARK  status: ('A' for Active; 'I' for Inactive)
REMARK    1  A    between atoms: C_1  and  C_2
REMARK    2  A    between atoms: C_5  and  S_6
REMARK    3  A    between atoms: S_6  and  N_9
REMARK    4  A    between atoms: N_9  and  C_10
REMARK    5  A    between atoms: C_10  and  C_11
REMARK    6  A    between atoms: C_10  and  C_22
REMARK    7  A    between atoms: C_11  and  C_12
REMARK    8  A    between atoms: C_12  and  O_14
REMARK    9  A    between atoms: O_14  and  C_15
REMARK   10  A    between atoms: C_15  and  C_16
REMARK   11  A    between atoms: C_22  and  O_24
REMARK   12  A    between atoms: O_24  and  C_25
REMARK   13  A    between atoms: C_25  and  C_26
REMARK                            x       y       z     vdW  Elec       q    Type
REMARK                         _______ _______ _______ _____ _____    ______ ____
ROOT
ATOM      1  C   UNL     1       4.930   6.051  17.292  0.00  0.00    +0.000 C 
ENDROOT
BRANCH   1   2
ATOM      2  N   UNL     1       3.995   7.095  17.840  0.00  0.00    +0.000 NA
ATOM      3  H   UNL     1       4.518   7.813  18.350  0.00  0.00    +0.000 HD
BRANCH   2   4
ATOM      4  S   UNL     1       2.735   6.501  18.837  0.00  0.00    +0.000 S 
ATOM      5  O   UNL     1       3.342   5.855  19.977  0.00  0.00    +0.000 OA
ATOM      6  O   UNL     1       1.812   5.809  17.965  0.00  0.00    +0.000 OA
BRANCH   4  11
ATOM      7  C   UNL     1      -0.058  11.572  20.686  0.00  0.00    +0.000 C 
ATOM      8  C   UNL     1       0.614  10.310  20.227  0.00  0.00    +0.000 A 
ATOM      9  C   UNL     1       0.999  10.153  18.890  0.00  0.00    +0.000 A 
ATOM     10  C   UNL     1       1.634   8.984  18.467  0.00  0.00    +0.000 A 
ATOM     11  C   UNL     1       1.901   7.970  19.393  0.00  0.00    +0.000 A 
ATOM     12  C   UNL     1       1.497   8.097  20.724  0.00  0.00    +0.000 A 
ATOM     13  C   UNL     1       0.858   9.271  21.138  0.00  0.00    +0.000 A 
ENDBRANCH   4  11
ENDBRANCH   2   4
ENDBRANCH   1   2
BRANCH   1  14
ATOM     14  C   UNL     1       5.571   6.548  16.011  0.00  0.00    +0.000 C 
ATOM     15  O   UNL     1       4.945   7.038  15.083  0.00  0.00    +0.000 OA
BRANCH  14  16
ATOM     16  O   UNL     1       6.904   6.363  16.070  0.00  0.00    +0.000 OA
BRANCH  16  17
ATOM     17  C   UNL     1       7.375   5.026  15.901  0.00  0.00    +0.000 C 
BRANCH  17  18
ATOM     18  C   UNL     1       7.158   4.613  14.466  0.00  0.00    +0.000 A 
ATOM     19  C   UNL     1       6.182   3.676  14.110  0.00  0.00    +0.000 A 
ATOM     20  C   UNL     1       5.889   3.413  12.772  0.00  0.00    +0.000 A 
ATOM     21  C   UNL     1       6.550   4.102  11.767  0.00  0.00    +0.000 A 
ATOM     22  C   UNL     1       7.572   4.984  12.102  0.00  0.00    +0.000 A 
ATOM     23  C   UNL     1       7.886   5.227  13.442  0.00  0.00    +0.000 A 
ENDBRANCH  17  18
ENDBRANCH  16  17
ENDBRANCH  14  16
ENDBRANCH   1  14
BRANCH   1  24
ATOM     24  C   UNL     1       4.156   4.778  16.983  0.00  0.00    +0.000 C 
BRANCH  24  25
ATOM     25  C   UNL     1       4.710   3.607  17.760  0.00  0.00    +0.000 C 
ATOM     26  O   UNL     1       5.591   3.715  18.592  0.00  0.00    +0.000 OA
BRANCH  25  27
ATOM     27  O   UNL     1       4.111   2.446  17.385  0.00  0.00    +0.000 OA
BRANCH  27  28
ATOM     28  C   UNL     1       3.804   1.520  18.439  0.00  0.00    +0.000 C 
BRANCH  28  29
ATOM     29  C   UNL     1       2.822   2.136  19.403  0.00  0.00    +0.000 A 
ATOM     30  C   UNL     1       3.183   2.381  20.737  0.00  0.00    +0.000 A 
ATOM     31  C   UNL     1       2.292   3.014  21.605  0.00  0.00    +0.000 A 
ATOM     32  C   UNL     1       1.030   3.401  21.152  0.00  0.00    +0.000 A 
ATOM     33  C   UNL     1       0.642   3.117  19.846  0.00  0.00    +0.000 A 
ATOM     34  C   UNL     1       1.535   2.493  18.973  0.00  0.00    +0.000 A 
ENDBRANCH  28  29
ENDBRANCH  27  28
ENDBRANCH  25  27
ENDBRANCH  24  25
ENDBRANCH   1  24
TORSDOF 12
ENDMDL
MODEL 9
REMARK VINA RESULT:      -8.3      6.290      9.609
REMARK  Name = 
REMARK  13 active torsions:
REMARK  status: ('A' for Active; 'I' for Inactive)
REMARK    1  A    between atoms: C_1  and  C_2
REMARK    2  A    between atoms: C_5  and  S_6
REMARK    3  A    between atoms: S_6  and  N_9
REMARK    4  A    between atoms: N_9  and  C_10
REMARK    5  A    between atoms: C_10  and  C_11
REMARK    6  A    between atoms: C_10  and  C_22
REMARK    7  A    between atoms: C_11  and  C_12
REMARK    8  A    between atoms: C_12  and  O_14
REMARK    9  A    between atoms: O_14  and  C_15
REMARK   10  A    between atoms: C_15  and  C_16
REMARK   11  A    between atoms: C_22  and  O_24
REMARK   12  A    between atoms: O_24  and  C_25
REMARK   13  A    between atoms: C_25  and  C_26
REMARK                            x       y       z     vdW  Elec       q    Type
REMARK                         _______ _______ _______ _____ _____    ______ ____
ROOT
ATOM      1  C   UNL     1       0.629   9.302  19.525  0.00  0.00    +0.000 C 
ENDROOT
BRANCH   1   2
ATOM      2  N   UNL     1       0.984  10.205  20.676  0.00  0.00    +0.000 NA
ATOM      3  H   UNL     1       1.998  10.226  20.816  0.00  0.00    +0.000 HD
BRANCH   2   4
ATOM      4  S   UNL     1       0.217   9.833  22.162  0.00  0.00    +0.000 S 
ATOM      5  O   UNL     1       1.247   9.690  23.165  0.00  0.00    +0.000 OA
ATOM      6  O   UNL     1      -0.734   8.781  21.884  0.00  0.00    +0.000 OA
BRANCH   4  11
ATOM      7  C   UNL     1      -2.955  14.859  23.433  0.00  0.00    +0.000 C 
ATOM      8  C   UNL     1      -2.183  13.615  23.103  0.00  0.00    +0.000 A 
ATOM      9  C   UNL     1      -0.985  13.689  22.381  0.00  0.00    +0.000 A 
ATOM     10  C   UNL     1      -0.262  12.532  22.086  0.00  0.00    +0.000 A 
ATOM     11  C   UNL     1      -0.733  11.291  22.529  0.00  0.00    +0.000 A 
ATOM     12  C   UNL     1      -1.942  11.196  23.223  0.00  0.00    +0.000 A 
ATOM     13  C   UNL     1      -2.661  12.361  23.512  0.00  0.00    +0.000 A 
ENDBRANCH   4  11
ENDBRANCH   2   4
ENDBRANCH   1   2
BRANCH   1  14
ATOM     14  C   UNL     1       1.797   8.391  19.201  0.00  0.00    +0.000 C 
ATOM     15  O   UNL     1       2.490   8.503  18.200  0.00  0.00    +0.000 OA
BRANCH  14  16
ATOM     16  O   UNL     1       1.934   7.468  20.172  0.00  0.00    +0.000 OA
BRANCH  16  17
ATOM     17  C   UNL     1       2.864   6.412  19.928  0.00  0.00    +0.000 C 
BRANCH  17  18
ATOM     18  C   UNL     1       2.094   5.151  19.618  0.00  0.00    +0.000 A 
ATOM     19  C   UNL     1       1.967   4.670  18.311  0.00  0.00    +0.000 A 
ATOM     20  C   UNL     1       1.383   3.431  18.052  0.00  0.00    +0.000 A 
ATOM     21  C   UNL     1       0.938   2.640  19.100  0.00  0.00    +0.000 A 
ATOM     22  C   UNL     1       0.991   3.134  20.399  0.00  0.00    +0.000 A 
ATOM     23  C   UNL     1       1.550   4.388  20.656  0.00  0.00    +0.000 A 
ENDBRANCH  17  18
ENDBRANCH  16  17
ENDBRANCH  14  16
ENDBRANCH   1  14
BRANCH   1  24
ATOM     24  C   UNL     1       0.313  10.138  18.294  0.00  0.00    +0.000 C 
BRANCH  24  25
ATOM     25  C   UNL     1       0.392  11.613  18.608  0.00  0.00    +0.000 C 
ATOM     26  O   UNL     1       1.442  12.221  18.697  0.00  0.00    +0.000 OA
BRANCH  25  27
ATOM     27  O   UNL     1      -0.846  12.140  18.793  0.00  0.00    +0.000 OA
BRANCH  27  28
ATOM     28  C   UNL     1      -1.881  11.656  17.923  0.00  0.00    +0.000 C 
BRANCH  28  29
ATOM     29  C   UNL     1      -3.223  11.760  18.603  0.00  0.00    +0.000 A 
ATOM     30  C   UNL     1      -3.369  12.489  19.793  0.00  0.00    +0.000 A 
ATOM     31  C   UNL     1      -4.628  12.638  20.380  0.00  0.00    +0.000 A 
ATOM     32  C   UNL     1      -5.749  12.055  19.789  0.00  0.00    +0.000 A 
ATOM     33  C   UNL     1      -5.607  11.286  18.636  0.00  0.00    +0.000 A 
ATOM     34  C   UNL     1      -4.352  11.144  18.042  0.00  0.00    +0.000 A 
ENDBRANCH  28  29
ENDBRANCH  27  28
ENDBRANCH  25  27
ENDBRANCH  24  25
ENDBRANCH   1  24
TORSDOF 12
ENDMDL
