MODEL 1
REMARK VINA RESULT:      -8.0      0.000      0.000
REMARK  Name = 
REMARK  9 active torsions:
REMARK  status: ('A' for Active; 'I' for Inactive)
REMARK    1  A    between atoms: C_1  and  C_2
REMARK    2  A    between atoms: C_4  and  N_5
REMARK    3  A    between atoms: N_5  and  S_6
REMARK    4  A    between atoms: S_6  and  C_7
REMARK    5  A    between atoms: C_12  and  C_13
REMARK    6  A    between atoms: C_13  and  O_14
REMARK    7  A    between atoms: O_14  and  C_15
REMARK    8  A    between atoms: N_17  and  C_18
REMARK    9  A    between atoms: C_18  and  C_19
REMARK                            x       y       z     vdW  Elec       q    Type
REMARK                         _______ _______ _______ _____ _____    ______ ____
ROOT
ATOM      1  C   UNL     1      -3.962  10.007  14.226  0.00  0.00    +0.000 C 
ATOM      2  C   UNL     1      -3.538  10.364  15.623  0.00  0.00    +0.000 A 
ATOM      3  C   UNL     1      -4.331  11.190  16.437  0.00  0.00    +0.000 A 
ATOM      4  C   UNL     1      -3.892  11.606  17.704  0.00  0.00    +0.000 A 
ATOM      5  C   UNL     1      -2.671  11.091  18.152  0.00  0.00    +0.000 A 
ATOM      6  O   UNL     1      -2.075  11.329  19.364  0.00  0.00    +0.000 OA
ATOM      7  C   UNL     1      -0.889  10.643  19.365  0.00  0.00    +0.000 A 
ATOM      8  C   UNL     1      -0.719   9.998  18.157  0.00  0.00    +0.000 A 
ATOM      9  C   UNL     1      -1.870  10.257  17.381  0.00  0.00    +0.000 A 
ATOM     10  C   UNL     1      -2.299   9.894  16.095  0.00  0.00    +0.000 A 
ENDROOT
BRANCH   4  11
ATOM     11  N   UNL     1      -4.652  12.539  18.465  0.00  0.00    +0.000 N 
ATOM     12  H   UNL     1      -4.104  13.258  18.942  0.00  0.00    +0.000 HD
BRANCH  11  13
ATOM     13  S   UNL     1      -5.950  12.005  19.385  0.00  0.00    +0.000 S 
ATOM     14  C   UNL     1      -6.225  10.353  18.774  0.00  0.00    +0.000 C 
ATOM     15  O   UNL     1      -5.454  11.884  20.738  0.00  0.00    +0.000 OA
ATOM     16  O   UNL     1      -7.118  12.811  19.080  0.00  0.00    +0.000 OA
ENDBRANCH  11  13
ENDBRANCH   4  11
BRANCH   7  17
ATOM     17  C   UNL     1      -0.012  10.737  20.566  0.00  0.00    +0.000 C 
BRANCH  17  18
ATOM     18  O   UNL     1       0.989   9.702  20.548  0.00  0.00    +0.000 OA
BRANCH  18  19
ATOM     19  C   UNL     1       0.676   8.566  21.215  0.00  0.00    +0.000 C 
ATOM     20  O   UNL     1      -0.335   8.382  21.876  0.00  0.00    +0.000 OA
ATOM     21  N   UNL     1       1.644   7.608  21.149  0.00  0.00    +0.000 N 
ATOM     22  H   UNL     1       1.424   6.834  21.762  0.00  0.00    +0.000 HD
BRANCH  21  23
ATOM     23  C   UNL     1       2.254   7.223  19.896  0.00  0.00    +0.000 C 
BRANCH  23  24
ATOM     24  C   UNL     1       1.918   5.780  19.582  0.00  0.00    +0.000 A 
ATOM     25  C   UNL     1       1.983   5.301  18.267  0.00  0.00    +0.000 A 
ATOM     26  C   UNL     1       1.645   3.977  17.975  0.00  0.00    +0.000 A 
ATOM     27  C   UNL     1       1.224   3.121  18.992  0.00  0.00    +0.000 A 
ATOM     28  C   UNL     1       1.132   3.593  20.300  0.00  0.00    +0.000 A 
ATOM     29  C   UNL     1       1.472   4.915  20.594  0.00  0.00    +0.000 A 
ENDBRANCH  23  24
ENDBRANCH  21  23
ENDBRANCH  18  19
ENDBRANCH  17  18
ENDBRANCH   7  17
TORSDOF 7
ENDMDL
MODEL 2
REMARK VINA RESULT:      -7.9      4.393      6.032
REMARK  Name = 
REMARK  9 active torsions:
REMARK  status: ('A' for Active; 'I' for Inactive)
REMARK    1  A    between atoms: C_1  and  C_2
REMARK    2  A    between atoms: C_4  and  N_5
REMARK    3  A    between atoms: N_5  and  S_6
REMARK    4  A    between atoms: S_6  and  C_7
REMARK    5  A    between atoms: C_12  and  C_13
REMARK    6  A    between atoms: C_13  and  O_14
REMARK    7  A    between atoms: O_14  and  C_15
REMARK    8  A    between atoms: N_17  and  C_18
REMARK    9  A    between atoms: C_18  and  C_19
REMARK                            x       y       z     vdW  Elec       q    Type
REMARK                         _______ _______ _______ _____ _____    ______ ____
ROOT
ATOM      1  C   UNL     1      -0.573   8.930  22.690  0.00  0.00    +0.000 C 
ATOM      2  C   UNL     1       0.274   8.901  21.449  0.00  0.00    +0.000 A 
ATOM      3  C   UNL     1       0.231   9.947  20.512  0.00  0.00    +0.000 A 
ATOM      4  C   UNL     1       0.944   9.877  19.304  0.00  0.00    +0.000 A 
ATOM      5  C   UNL     1       1.765   8.760  19.118  0.00  0.00    +0.000 A 
ATOM      6  O   UNL     1       2.575   8.507  18.040  0.00  0.00    +0.000 OA
ATOM      7  C   UNL     1       3.174   7.297  18.269  0.00  0.00    +0.000 A 
ATOM      8  C   UNL     1       2.730   6.772  19.466  0.00  0.00    +0.000 A 
ATOM      9  C   UNL     1       1.846   7.716  20.031  0.00  0.00    +0.000 A 
ATOM     10  C   UNL     1       1.084   7.777  21.209  0.00  0.00    +0.000 A 
ENDROOT
BRANCH   4  11
ATOM     11  N   UNL     1       0.795  10.889  18.314  0.00  0.00    +0.000 N 
ATOM     12  H   UNL     1       0.879  10.566  17.348  0.00  0.00    +0.000 HD
BRANCH  11  13
ATOM     13  S   UNL     1       1.493  12.397  18.550  0.00  0.00    +0.000 S 
ATOM     14  C   UNL     1       1.733  12.459  20.315  0.00  0.00    +0.000 C 
ATOM     15  O   UNL     1       2.803  12.327  17.942  0.00  0.00    +0.000 OA
ATOM     16  O   UNL     1       0.543  13.429  18.176  0.00  0.00    +0.000 OA
ENDBRANCH  11  13
ENDBRANCH   4  11
BRANCH   7  17
ATOM     17  C   UNL     1       4.106   6.757  17.239  0.00  0.00    +0.000 C 
BRANCH  17  18
ATOM     18  O   UNL     1       5.236   6.116  17.861  0.00  0.00    +0.000 OA
BRANCH  18  19
ATOM     19  C   UNL     1       5.696   5.002  17.243  0.00  0.00    +0.000 C 
ATOM     20  O   UNL     1       6.549   4.971  16.369  0.00  0.00    +0.000 OA
ATOM     21  N   UNL     1       5.068   3.858  17.638  0.00  0.00    +0.000 N 
ATOM     22  H   UNL     1       5.353   3.076  17.064  0.00  0.00    +0.000 HD
BRANCH  21  23
ATOM     23  C   UNL     1       4.876   3.534  19.034  0.00  0.00    +0.000 C 
BRANCH  23  24
ATOM     24  C   UNL     1       3.403   3.330  19.318  0.00  0.00    +0.000 A 
ATOM     25  C   UNL     1       2.471   3.295  18.272  0.00  0.00    +0.000 A 
ATOM     26  C   UNL     1       1.109   3.135  18.539  0.00  0.00    +0.000 A 
ATOM     27  C   UNL     1       0.661   3.023  19.854  0.00  0.00    +0.000 A 
ATOM     28  C   UNL     1       1.575   3.081  20.904  0.00  0.00    +0.000 A 
ATOM     29  C   UNL     1       2.938   3.238  20.639  0.00  0.00    +0.000 A 
ENDBRANCH  23  24
ENDBRANCH  21  23
ENDBRANCH  18  19
ENDBRANCH  17  18
ENDBRANCH   7  17
TORSDOF 7
ENDMDL
MODEL 3
REMARK VINA RESULT:      -7.8      2.293      3.033
REMARK  Name = 
REMARK  9 active torsions:
REMARK  status: ('A' for Active; 'I' for Inactive)
REMARK    1  A    between atoms: C_1  and  C_2
REMARK    2  A    between atoms: C_4  and  N_5
REMARK    3  A    between atoms: N_5  and  S_6
REMARK    4  A    between atoms: S_6  and  C_7
REMARK    5  A    between atoms: C_12  and  C_13
REMARK    6  A    between atoms: C_13  and  O_14
REMARK    7  A    between atoms: O_14  and  C_15
REMARK    8  A    between atoms: N_17  and  C_18
REMARK    9  A    between atoms: C_18  and  C_19
REMARK                            x       y       z     vdW  Elec       q    Type
REMARK                         _______ _______ _______ _____ _____    ______ ____
ROOT
ATOM      1  C   UNL     1      -6.187  11.963  17.651  0.00  0.00    +0.000 C 
ATOM      2  C   UNL     1      -4.876  11.901  18.383  0.00  0.00    +0.000 A 
ATOM      3  C   UNL     1      -4.688  12.574  19.601  0.00  0.00    +0.000 A 
ATOM      4  C   UNL     1      -3.436  12.600  20.237  0.00  0.00    +0.000 A 
ATOM      5  C   UNL     1      -2.411  11.853  19.647  0.00  0.00    +0.000 A 
ATOM      6  O   UNL     1      -1.130  11.705  20.115  0.00  0.00    +0.000 OA
ATOM      7  C   UNL     1      -0.468  10.913  19.214  0.00  0.00    +0.000 A 
ATOM      8  C   UNL     1      -1.309  10.584  18.171  0.00  0.00    +0.000 A 
ATOM      9  C   UNL     1      -2.566  11.161  18.453  0.00  0.00    +0.000 A 
ATOM     10  C   UNL     1      -3.810  11.190  17.802  0.00  0.00    +0.000 A 
ENDROOT
BRANCH   4  11
ATOM     11  N   UNL     1      -3.232  13.386  21.406  0.00  0.00    +0.000 N 
ATOM     12  H   UNL     1      -2.403  13.984  21.388  0.00  0.00    +0.000 HD
BRANCH  11  13
ATOM     13  S   UNL     1      -3.507  12.717  22.920  0.00  0.00    +0.000 S 
ATOM     14  C   UNL     1      -3.271  14.099  24.021  0.00  0.00    +0.000 C 
ATOM     15  O   UNL     1      -4.912  12.378  22.955  0.00  0.00    +0.000 OA
ATOM     16  O   UNL     1      -2.486  11.724  23.199  0.00  0.00    +0.000 OA
ENDBRANCH  11  13
ENDBRANCH   4  11
BRANCH   7  17
ATOM     17  C   UNL     1       0.967  10.597  19.464  0.00  0.00    +0.000 C 
BRANCH  17  18
ATOM     18  O   UNL     1       1.213   9.187  19.300  0.00  0.00    +0.000 OA
BRANCH  18  19
ATOM     19  C   UNL     1       1.917   8.835  18.198  0.00  0.00    +0.000 C 
ATOM     20  O   UNL     1       2.248   9.585  17.292  0.00  0.00    +0.000 OA
ATOM     21  N   UNL     1       2.197   7.501  18.130  0.00  0.00    +0.000 N 
ATOM     22  H   UNL     1       2.608   7.268  17.237  0.00  0.00    +0.000 HD
BRANCH  21  23
ATOM     23  C   UNL     1       2.753   6.780  19.252  0.00  0.00    +0.000 C 
BRANCH  23  24
ATOM     24  C   UNL     1       2.143   5.396  19.329  0.00  0.00    +0.000 A 
ATOM     25  C   UNL     1       1.963   4.628  18.170  0.00  0.00    +0.000 A 
ATOM     26  C   UNL     1       1.373   3.364  18.240  0.00  0.00    +0.000 A 
ATOM     27  C   UNL     1       0.942   2.859  19.466  0.00  0.00    +0.000 A 
ATOM     28  C   UNL     1       1.093   3.622  20.621  0.00  0.00    +0.000 A 
ATOM     29  C   UNL     1       1.685   4.886  20.554  0.00  0.00    +0.000 A 
ENDBRANCH  23  24
ENDBRANCH  21  23
ENDBRANCH  18  19
ENDBRANCH  17  18
ENDBRANCH   7  17
TORSDOF 7
ENDMDL
MODEL 4
REMARK VINA RESULT:      -7.8      4.487      6.498
REMARK  Name = 
REMARK  9 active torsions:
REMARK  status: ('A' for Active; 'I' for Inactive)
REMARK    1  A    between atoms: C_1  and  C_2
REMARK    2  A    between atoms: C_4  and  N_5
REMARK    3  A    between atoms: N_5  and  S_6
REMARK    4  A    between atoms: S_6  and  C_7
REMARK    5  A    between atoms: C_12  and  C_13
REMARK    6  A    between atoms: C_13  and  O_14
REMARK    7  A    between atoms: O_14  and  C_15
REMARK    8  A    between atoms: N_17  and  C_18
REMARK    9  A    between atoms: C_18  and  C_19
REMARK                            x       y       z     vdW  Elec       q    Type
REMARK                         _______ _______ _______ _____ _____    ______ ____
ROOT
ATOM      1  C   UNL     1       2.123  10.383  17.451  0.00  0.00    +0.000 C 
ATOM      2  C   UNL     1       1.965   9.237  18.410  0.00  0.00    +0.000 A 
ATOM      3  C   UNL     1       1.724   9.458  19.776  0.00  0.00    +0.000 A 
ATOM      4  C   UNL     1       1.676   8.393  20.691  0.00  0.00    +0.000 A 
ATOM      5  C   UNL     1       1.792   7.102  20.166  0.00  0.00    +0.000 A 
ATOM      6  O   UNL     1       1.733   5.924  20.866  0.00  0.00    +0.000 OA
ATOM      7  C   UNL     1       1.917   4.914  19.959  0.00  0.00    +0.000 A 
ATOM      8  C   UNL     1       2.118   5.444  18.701  0.00  0.00    +0.000 A 
ATOM      9  C   UNL     1       2.013   6.846  18.819  0.00  0.00    +0.000 A 
ATOM     10  C   UNL     1       2.112   7.925  17.926  0.00  0.00    +0.000 A 
ENDROOT
BRANCH   4  11
ATOM     11  N   UNL     1       1.550   8.642  22.087  0.00  0.00    +0.000 N 
ATOM     12  H   UNL     1       1.962   7.929  22.693  0.00  0.00    +0.000 HD
BRANCH  11  13
ATOM     13  S   UNL     1       0.113   9.254  22.701  0.00  0.00    +0.000 S 
ATOM     14  C   UNL     1      -0.089  10.782  21.806  0.00  0.00    +0.000 C 
ATOM     15  O   UNL     1      -0.925   8.354  22.251  0.00  0.00    +0.000 OA
ATOM     16  O   UNL     1       0.285   9.562  24.109  0.00  0.00    +0.000 OA
ENDBRANCH  11  13
ENDBRANCH   4  11
BRANCH   7  17
ATOM     17  C   UNL     1       1.919   3.506  20.450  0.00  0.00    +0.000 C 
BRANCH  17  18
ATOM     18  O   UNL     1       3.265   3.004  20.551  0.00  0.00    +0.000 OA
BRANCH  18  19
ATOM     19  C   UNL     1       3.765   2.428  19.433  0.00  0.00    +0.000 C 
ATOM     20  O   UNL     1       3.183   1.624  18.721  0.00  0.00    +0.000 OA
ATOM     21  N   UNL     1       5.058   2.777  19.170  0.00  0.00    +0.000 N 
ATOM     22  H   UNL     1       5.427   2.229  18.404  0.00  0.00    +0.000 HD
BRANCH  21  23
ATOM     23  C   UNL     1       5.496   4.154  19.184  0.00  0.00    +0.000 C 
BRANCH  23  24
ATOM     24  C   UNL     1       5.419   4.733  17.788  0.00  0.00    +0.000 A 
ATOM     25  C   UNL     1       5.396   3.895  16.665  0.00  0.00    +0.000 A 
ATOM     26  C   UNL     1       5.354   4.433  15.376  0.00  0.00    +0.000 A 
ATOM     27  C   UNL     1       5.351   5.815  15.194  0.00  0.00    +0.000 A 
ATOM     28  C   UNL     1       5.398   6.659  16.301  0.00  0.00    +0.000 A 
ATOM     29  C   UNL     1       5.437   6.123  17.591  0.00  0.00    +0.000 A 
ENDBRANCH  23  24
ENDBRANCH  21  23
ENDBRANCH  18  19
ENDBRANCH  17  18
ENDBRANCH   7  17
TORSDOF 7
ENDMDL
MODEL 5
REMARK VINA RESULT:      -7.7      4.396      8.587
REMARK  Name = 
REMARK  9 active torsions:
REMARK  status: ('A' for Active; 'I' for Inactive)
REMARK    1  A    between atoms: C_1  and  C_2
REMARK    2  A    between atoms: C_4  and  N_5
REMARK    3  A    between atoms: N_5  and  S_6
REMARK    4  A    between atoms: S_6  and  C_7
REMARK    5  A    between atoms: C_12  and  C_13
REMARK    6  A    between atoms: C_13  and  O_14
REMARK    7  A    between atoms: O_14  and  C_15
REMARK    8  A    between atoms: N_17  and  C_18
REMARK    9  A    between atoms: C_18  and  C_19
REMARK                            x       y       z     vdW  Elec       q    Type
REMARK                         _______ _______ _______ _____ _____    ______ ____
ROOT
ATOM      1  C   UNL     1       4.729   5.930  16.591  0.00  0.00    +0.000 C 
ATOM      2  C   UNL     1       3.874   6.479  17.698  0.00  0.00    +0.000 A 
ATOM      3  C   UNL     1       3.697   5.774  18.900  0.00  0.00    +0.000 A 
ATOM      4  C   UNL     1       2.821   6.235  19.896  0.00  0.00    +0.000 A 
ATOM      5  C   UNL     1       2.202   7.468  19.673  0.00  0.00    +0.000 A 
ATOM      6  O   UNL     1       1.345   8.123  20.522  0.00  0.00    +0.000 OA
ATOM      7  C   UNL     1       0.965   9.278  19.890  0.00  0.00    +0.000 A 
ATOM      8  C   UNL     1       1.551   9.345  18.642  0.00  0.00    +0.000 A 
ATOM      9  C   UNL     1       2.367   8.201  18.504  0.00  0.00    +0.000 A 
ATOM     10  C   UNL     1       3.205   7.699  17.495  0.00  0.00    +0.000 A 
ENDROOT
BRANCH   4  11
ATOM     11  N   UNL     1       2.562   5.449  21.055  0.00  0.00    +0.000 N 
ATOM     12  H   UNL     1       3.234   5.564  21.816  0.00  0.00    +0.000 HD
BRANCH  11  13
ATOM     13  S   UNL     1       2.045   3.861  20.889  0.00  0.00    +0.000 S 
ATOM     14  C   UNL     1       3.404   3.081  20.039  0.00  0.00    +0.000 C 
ATOM     15  O   UNL     1       2.007   3.314  22.227  0.00  0.00    +0.000 OA
ATOM     16  O   UNL     1       0.878   3.824  20.027  0.00  0.00    +0.000 OA
ENDBRANCH  11  13
ENDBRANCH   4  11
BRANCH   7  17
ATOM     17  C   UNL     1       0.011  10.188  20.584  0.00  0.00    +0.000 C 
BRANCH  17  18
ATOM     18  O   UNL     1      -0.650   9.504  21.665  0.00  0.00    +0.000 OA
BRANCH  18  19
ATOM     19  C   UNL     1      -0.420   9.999  22.904  0.00  0.00    +0.000 C 
ATOM     20  O   UNL     1       0.492   9.669  23.647  0.00  0.00    +0.000 OA
ATOM     21  N   UNL     1      -1.359  10.897  23.319  0.00  0.00    +0.000 N 
ATOM     22  H   UNL     1      -1.217  11.141  24.290  0.00  0.00    +0.000 HD
BRANCH  21  23
ATOM     23  C   UNL     1      -1.787  11.996  22.483  0.00  0.00    +0.000 C 
BRANCH  23  24
ATOM     24  C   UNL     1      -3.215  12.371  22.816  0.00  0.00    +0.000 A 
ATOM     25  C   UNL     1      -3.677  12.327  24.139  0.00  0.00    +0.000 A 
ATOM     26  C   UNL     1      -5.004  12.646  24.439  0.00  0.00    +0.000 A 
ATOM     27  C   UNL     1      -5.888  12.998  23.421  0.00  0.00    +0.000 A 
ATOM     28  C   UNL     1      -5.447  13.022  22.099  0.00  0.00    +0.000 A 
ATOM     29  C   UNL     1      -4.120  12.706  21.797  0.00  0.00    +0.000 A 
ENDBRANCH  23  24
ENDBRANCH  21  23
ENDBRANCH  18  19
ENDBRANCH  17  18
ENDBRANCH   7  17
TORSDOF 7
ENDMDL
MODEL 6
REMARK VINA RESULT:      -7.6      3.769      8.793
REMARK  Name = 
REMARK  9 active torsions:
REMARK  status: ('A' for Active; 'I' for Inactive)
REMARK    1  A    between atoms: C_1  and  C_2
REMARK    2  A    between atoms: C_4  and  N_5
REMARK    3  A    between atoms: N_5  and  S_6
REMARK    4  A    between atoms: S_6  and  C_7
REMARK    5  A    between atoms: C_12  and  C_13
REMARK    6  A    between atoms: C_13  and  O_14
REMARK    7  A    between atoms: O_14  and  C_15
REMARK    8  A    between atoms: N_17  and  C_18
REMARK    9  A    between atoms: C_18  and  C_19
REMARK                            x       y       z     vdW  Elec       q    Type
REMARK                         _______ _______ _______ _____ _____    ______ ____
ROOT
ATOM      1  C   UNL     1       2.639   1.605  18.306  0.00  0.00    +0.000 C 
ATOM      2  C   UNL     1       2.651   3.090  18.535  0.00  0.00    +0.000 A 
ATOM      3  C   UNL     1       3.418   3.947  17.728  0.00  0.00    +0.000 A 
ATOM      4  C   UNL     1       3.510   5.321  18.001  0.00  0.00    +0.000 A 
ATOM      5  C   UNL     1       2.736   5.810  19.058  0.00  0.00    +0.000 A 
ATOM      6  O   UNL     1       2.642   7.114  19.472  0.00  0.00    +0.000 OA
ATOM      7  C   UNL     1       1.794   7.129  20.548  0.00  0.00    +0.000 A 
ATOM      8  C   UNL     1       1.374   5.845  20.833  0.00  0.00    +0.000 A 
ATOM      9  C   UNL     1       1.953   4.995  19.866  0.00  0.00    +0.000 A 
ATOM     10  C   UNL     1       1.914   3.614  19.612  0.00  0.00    +0.000 A 
ENDROOT
BRANCH   4  11
ATOM     11  N   UNL     1       4.386   6.154  17.247  0.00  0.00    +0.000 N 
ATOM     12  H   UNL     1       4.177   6.210  16.249  0.00  0.00    +0.000 HD
BRANCH  11  13
ATOM     13  S   UNL     1       6.034   6.130  17.559  0.00  0.00    +0.000 S 
ATOM     14  C   UNL     1       6.635   4.860  16.462  0.00  0.00    +0.000 C 
ATOM     15  O   UNL     1       6.548   7.392  17.075  0.00  0.00    +0.000 OA
ATOM     16  O   UNL     1       6.258   5.702  18.928  0.00  0.00    +0.000 OA
ENDBRANCH  11  13
ENDBRANCH   4  11
BRANCH   7  17
ATOM     17  C   UNL     1       1.518   8.430  21.220  0.00  0.00    +0.000 C 
BRANCH  17  18
ATOM     18  O   UNL     1       1.050   9.405  20.269  0.00  0.00    +0.000 OA
BRANCH  18  19
ATOM     19  C   UNL     1       0.523  10.536  20.794  0.00  0.00    +0.000 C 
ATOM     20  O   UNL     1       0.862  11.062  21.844  0.00  0.00    +0.000 OA
ATOM     21  N   UNL     1      -0.510  11.049  20.065  0.00  0.00    +0.000 N 
ATOM     22  H   UNL     1      -0.950  11.814  20.558  0.00  0.00    +0.000 HD
BRANCH  21  23
ATOM     23  C   UNL     1      -0.417  11.235  18.635  0.00  0.00    +0.000 C 
BRANCH  23  24
ATOM     24  C   UNL     1      -1.774  11.018  17.999  0.00  0.00    +0.000 A 
ATOM     25  C   UNL     1      -1.922  10.150  16.908  0.00  0.00    +0.000 A 
ATOM     26  C   UNL     1      -3.171   9.974  16.305  0.00  0.00    +0.000 A 
ATOM     27  C   UNL     1      -4.281  10.674  16.775  0.00  0.00    +0.000 A 
ATOM     28  C   UNL     1      -4.141  11.557  17.843  0.00  0.00    +0.000 A 
ATOM     29  C   UNL     1      -2.895  11.733  18.449  0.00  0.00    +0.000 A 
ENDBRANCH  23  24
ENDBRANCH  21  23
ENDBRANCH  18  19
ENDBRANCH  17  18
ENDBRANCH   7  17
TORSDOF 7
ENDMDL
MODEL 7
REMARK VINA RESULT:      -7.6      2.954      5.402
REMARK  Name = 
REMARK  9 active torsions:
REMARK  status: ('A' for Active; 'I' for Inactive)
REMARK    1  A    between atoms: C_1  and  C_2
REMARK    2  A    between atoms: C_4  and  N_5
REMARK    3  A    between atoms: N_5  and  S_6
REMARK    4  A    between atoms: S_6  and  C_7
REMARK    5  A    between atoms: C_12  and  C_13
REMARK    6  A    between atoms: C_13  and  O_14
REMARK    7  A    between atoms: O_14  and  C_15
REMARK    8  A    between atoms: N_17  and  C_18
REMARK    9  A    between atoms: C_18  and  C_19
REMARK                            x       y       z     vdW  Elec       q    Type
REMARK                         _______ _______ _______ _____ _____    ______ ____
ROOT
ATOM      1  C   UNL     1      -0.440   9.524  22.924  0.00  0.00    +0.000 C 
ATOM      2  C   UNL     1       0.233   9.325  21.595  0.00  0.00    +0.000 A 
ATOM      3  C   UNL     1      -0.032  10.175  20.508  0.00  0.00    +0.000 A 
ATOM      4  C   UNL     1       0.517   9.932  19.239  0.00  0.00    +0.000 A 
ATOM      5  C   UNL     1       1.406   8.859  19.129  0.00  0.00    +0.000 A 
ATOM      6  O   UNL     1       2.085   8.468  18.003  0.00  0.00    +0.000 OA
ATOM      7  C   UNL     1       2.820   7.363  18.346  0.00  0.00    +0.000 A 
ATOM      8  C   UNL     1       2.591   7.039  19.668  0.00  0.00    +0.000 A 
ATOM      9  C   UNL     1       1.706   8.009  20.186  0.00  0.00    +0.000 A 
ATOM     10  C   UNL     1       1.106   8.234  21.435  0.00  0.00    +0.000 A 
ENDROOT
BRANCH   4  11
ATOM     11  N   UNL     1       0.143  10.732  18.121  0.00  0.00    +0.000 N 
ATOM     12  H   UNL     1       0.922  11.142  17.603  0.00  0.00    +0.000 HD
BRANCH  11  13
ATOM     13  S   UNL     1      -1.169  11.771  18.240  0.00  0.00    +0.000 S 
ATOM     14  C   UNL     1      -2.191  11.290  16.861  0.00  0.00    +0.000 C 
ATOM     15  O   UNL     1      -1.870  11.390  19.446  0.00  0.00    +0.000 OA
ATOM     16  O   UNL     1      -0.721  13.136  18.030  0.00  0.00    +0.000 OA
ENDBRANCH  11  13
ENDBRANCH   4  11
BRANCH   7  17
ATOM     17  C   UNL     1       3.653   6.708  17.298  0.00  0.00    +0.000 C 
BRANCH  17  18
ATOM     18  O   UNL     1       3.521   5.275  17.365  0.00  0.00    +0.000 OA
BRANCH  18  19
ATOM     19  C   UNL     1       4.576   4.609  17.891  0.00  0.00    +0.000 C 
ATOM     20  O   UNL     1       5.478   5.106  18.548  0.00  0.00    +0.000 OA
ATOM     21  N   UNL     1       4.600   3.283  17.572  0.00  0.00    +0.000 N 
ATOM     22  H   UNL     1       5.465   2.858  17.878  0.00  0.00    +0.000 HD
BRANCH  21  23
ATOM     23  C   UNL     1       3.436   2.440  17.720  0.00  0.00    +0.000 C 
BRANCH  23  24
ATOM     24  C   UNL     1       2.744   2.743  19.032  0.00  0.00    +0.000 A 
ATOM     25  C   UNL     1       3.387   2.497  20.253  0.00  0.00    +0.000 A 
ATOM     26  C   UNL     1       2.736   2.750  21.463  0.00  0.00    +0.000 A 
ATOM     27  C   UNL     1       1.430   3.237  21.467  0.00  0.00    +0.000 A 
ATOM     28  C   UNL     1       0.771   3.463  20.260  0.00  0.00    +0.000 A 
ATOM     29  C   UNL     1       1.422   3.213  19.050  0.00  0.00    +0.000 A 
ENDBRANCH  23  24
ENDBRANCH  21  23
ENDBRANCH  18  19
ENDBRANCH  17  18
ENDBRANCH   7  17
TORSDOF 7
ENDMDL
MODEL 8
REMARK VINA RESULT:      -7.5      4.103      9.238
REMARK  Name = 
REMARK  9 active torsions:
REMARK  status: ('A' for Active; 'I' for Inactive)
REMARK    1  A    between atoms: C_1  and  C_2
REMARK    2  A    between atoms: C_4  and  N_5
REMARK    3  A    between atoms: N_5  and  S_6
REMARK    4  A    between atoms: S_6  and  C_7
REMARK    5  A    between atoms: C_12  and  C_13
REMARK    6  A    between atoms: C_13  and  O_14
REMARK    7  A    between atoms: O_14  and  C_15
REMARK    8  A    between atoms: N_17  and  C_18
REMARK    9  A    between atoms: C_18  and  C_19
REMARK                            x       y       z     vdW  Elec       q    Type
REMARK                         _______ _______ _______ _____ _____    ______ ____
ROOT
ATOM      1  C   UNL     1       3.259   1.537  18.247  0.00  0.00    +0.000 C 
ATOM      2  C   UNL     1       3.200   3.038  18.310  0.00  0.00    +0.000 A 
ATOM      3  C   UNL     1       4.009   3.835  17.483  0.00  0.00    +0.000 A 
ATOM      4  C   UNL     1       4.030   5.233  17.609  0.00  0.00    +0.000 A 
ATOM      5  C   UNL     1       3.145   5.798  18.533  0.00  0.00    +0.000 A 
ATOM      6  O   UNL     1       2.969   7.135  18.789  0.00  0.00    +0.000 OA
ATOM      7  C   UNL     1       2.025   7.228  19.778  0.00  0.00    +0.000 A 
ATOM      8  C   UNL     1       1.624   5.966  20.165  0.00  0.00    +0.000 A 
ATOM      9  C   UNL     1       2.318   5.042  19.354  0.00  0.00    +0.000 A 
ATOM     10  C   UNL     1       2.349   3.642  19.253  0.00  0.00    +0.000 A 
ENDROOT
BRANCH   4  11
ATOM     11  N   UNL     1       4.942   6.017  16.848  0.00  0.00    +0.000 N 
ATOM     12  H   UNL     1       4.817   5.967  15.835  0.00  0.00    +0.000 HD
BRANCH  11  13
ATOM     13  S   UNL     1       6.560   6.082  17.292  0.00  0.00    +0.000 S 
ATOM     14  C   UNL     1       7.273   4.701  16.420  0.00  0.00    +0.000 C 
ATOM     15  O   UNL     1       7.088   7.286  16.692  0.00  0.00    +0.000 OA
ATOM     16  O   UNL     1       6.675   5.839  18.718  0.00  0.00    +0.000 OA
ENDBRANCH  11  13
ENDBRANCH   4  11
BRANCH   7  17
ATOM     17  C   UNL     1       1.645   8.581  20.274  0.00  0.00    +0.000 C 
BRANCH  17  18
ATOM     18  O   UNL     1       0.579   9.134  19.479  0.00  0.00    +0.000 OA
BRANCH  18  19
ATOM     19  C   UNL     1       0.949  10.048  18.551  0.00  0.00    +0.000 C 
ATOM     20  O   UNL     1       2.097  10.312  18.226  0.00  0.00    +0.000 OA
ATOM     21  N   UNL     1      -0.098  10.739  18.015  0.00  0.00    +0.000 N 
ATOM     22  H   UNL     1       0.233  11.491  17.426  0.00  0.00    +0.000 HD
BRANCH  21  23
ATOM     23  C   UNL     1      -1.281  10.071  17.521  0.00  0.00    +0.000 C 
BRANCH  23  24
ATOM     24  C   UNL     1      -2.521  10.759  18.052  0.00  0.00    +0.000 A 
ATOM     25  C   UNL     1      -3.761  10.583  17.424  0.00  0.00    +0.000 A 
ATOM     26  C   UNL     1      -4.898  11.242  17.899  0.00  0.00    +0.000 A 
ATOM     27  C   UNL     1      -4.805  12.096  18.997  0.00  0.00    +0.000 A 
ATOM     28  C   UNL     1      -3.573  12.298  19.615  0.00  0.00    +0.000 A 
ATOM     29  C   UNL     1      -2.436  11.638  19.143  0.00  0.00    +0.000 A 
ENDBRANCH  23  24
ENDBRANCH  21  23
ENDBRANCH  18  19
ENDBRANCH  17  18
ENDBRANCH   7  17
TORSDOF 7
ENDMDL
MODEL 9
REMARK VINA RESULT:      -7.4      4.816      9.662
REMARK  Name = 
REMARK  9 active torsions:
REMARK  status: ('A' for Active; 'I' for Inactive)
REMARK    1  A    between atoms: C_1  and  C_2
REMARK    2  A    between atoms: C_4  and  N_5
REMARK    3  A    between atoms: N_5  and  S_6
REMARK    4  A    between atoms: S_6  and  C_7
REMARK    5  A    between atoms: C_12  and  C_13
REMARK    6  A    between atoms: C_13  and  O_14
REMARK    7  A    between atoms: O_14  and  C_15
REMARK    8  A    between atoms: N_17  and  C_18
REMARK    9  A    between atoms: C_18  and  C_19
REMARK                            x       y       z     vdW  Elec       q    Type
REMARK                         _______ _______ _______ _____ _____    ______ ____
ROOT
ATOM      1  C   UNL     1       4.116   2.211  20.006  0.00  0.00    +0.000 C 
ATOM      2  C   UNL     1       3.955   3.483  19.222  0.00  0.00    +0.000 A 
ATOM      3  C   UNL     1       4.601   3.666  17.988  0.00  0.00    +0.000 A 
ATOM      4  C   UNL     1       4.533   4.889  17.301  0.00  0.00    +0.000 A 
ATOM      5  C   UNL     1       3.724   5.884  17.859  0.00  0.00    +0.000 A 
ATOM      6  O   UNL     1       3.482   7.131  17.341  0.00  0.00    +0.000 OA
ATOM      7  C   UNL     1       2.656   7.775  18.225  0.00  0.00    +0.000 A 
ATOM      8  C   UNL     1       2.397   6.957  19.306  0.00  0.00    +0.000 A 
ATOM      9  C   UNL     1       3.057   5.732  19.068  0.00  0.00    +0.000 A 
ATOM     10  C   UNL     1       3.179   4.521  19.768  0.00  0.00    +0.000 A 
ENDROOT
BRANCH   4  11
ATOM     11  N   UNL     1       5.291   5.098  16.114  0.00  0.00    +0.000 N 
ATOM     12  H   UNL     1       5.165   4.388  15.389  0.00  0.00    +0.000 HD
BRANCH  11  13
ATOM     13  S   UNL     1       6.877   5.635  16.219  0.00  0.00    +0.000 S 
ATOM     14  C   UNL     1       7.588   4.555  17.445  0.00  0.00    +0.000 C 
ATOM     15  O   UNL     1       7.491   5.308  14.952  0.00  0.00    +0.000 OA
ATOM     16  O   UNL     1       6.891   6.992  16.734  0.00  0.00    +0.000 OA
ENDBRANCH  11  13
ENDBRANCH   4  11
BRANCH   7  17
ATOM     17  C   UNL     1       2.239   9.173  17.922  0.00  0.00    +0.000 C 
BRANCH  17  18
ATOM     18  O   UNL     1       1.487   9.728  19.017  0.00  0.00    +0.000 OA
BRANCH  18  19
ATOM     19  C   UNL     1       0.251  10.189  18.711  0.00  0.00    +0.000 C 
ATOM     20  O   UNL     1      -0.451   9.796  17.791  0.00  0.00    +0.000 OA
ATOM     21  N   UNL     1      -0.160  11.221  19.503  0.00  0.00    +0.000 N 
ATOM     22  H   UNL     1      -1.027  11.612  19.159  0.00  0.00    +0.000 HD
BRANCH  21  23
ATOM     23  C   UNL     1      -0.061  11.165  20.944  0.00  0.00    +0.000 C 
BRANCH  23  24
ATOM     24  C   UNL     1      -1.295  11.778  21.569  0.00  0.00    +0.000 A 
ATOM     25  C   UNL     1      -2.051  12.732  20.875  0.00  0.00    +0.000 A 
ATOM     26  C   UNL     1      -3.174  13.317  21.466  0.00  0.00    +0.000 A 
ATOM     27  C   UNL     1      -3.545  12.967  22.763  0.00  0.00    +0.000 A 
ATOM     28  C   UNL     1      -2.789  12.037  23.472  0.00  0.00    +0.000 A 
ATOM     29  C   UNL     1      -1.667  11.449  22.883  0.00  0.00    +0.000 A 
ENDBRANCH  23  24
ENDBRANCH  21  23
ENDBRANCH  18  19
ENDBRANCH  17  18
ENDBRANCH   7  17
TORSDOF 7
ENDMDL
