MODEL 1
REMARK VINA RESULT:      -7.5      0.000      0.000
REMARK  Name = 
REMARK  9 active torsions:
REMARK  status: ('A' for Active; 'I' for Inactive)
REMARK    1  A    between atoms: C_1  and  O_2
REMARK    2  A    between atoms: O_2  and  C_3
REMARK    3  A    between atoms: C_3  and  C_5
REMARK    4  A    between atoms: C_5  and  C_6
REMARK    5  A    between atoms: C_5  and  N_7
REMARK    6  A    between atoms: C_8  and  C_10
REMARK    7  A    between atoms: C_13  and  O_14
REMARK    8  A    between atoms: O_14  and  C_15
REMARK    9  A    between atoms: C_23  and  C_24
REMARK                            x       y       z     vdW  Elec       q    Type
REMARK                         _______ _______ _______ _____ _____    ______ ____
ROOT
ATOM      1  O   UNL     1       3.471   6.662  19.294  0.00  0.00    +0.000 OA
ENDROOT
BRANCH   1   2
ATOM      2  C   UNL     1       2.474   7.578  19.033  0.00  0.00    +0.000 A 
ATOM      3  C   UNL     1       2.096   7.901  17.728  0.00  0.00    +0.000 A 
ATOM      4  C   UNL     1       1.191   8.929  17.502  0.00  0.00    +0.000 A 
ATOM      5  C   UNL     1       0.656   9.623  18.584  0.00  0.00    +0.000 A 
ATOM      6  C   UNL     1       0.909   9.217  19.901  0.00  0.00    +0.000 A 
ATOM      7  C   UNL     1       1.830   8.179  20.119  0.00  0.00    +0.000 A 
ATOM      8  C   UNL     1       0.291   9.951  21.058  0.00  0.00    +0.000 C 
ATOM      9  C   UNL     1      -0.664  11.042  20.580  0.00  0.00    +0.000 C 
ATOM     10  C   UNL     1      -0.107  11.736  19.330  0.00  0.00    +0.000 C 
ATOM     11  O   UNL     1      -0.025  10.769  18.263  0.00  0.00    +0.000 OA
BRANCH  10  12
ATOM     12  C   UNL     1       1.168  12.539  19.556  0.00  0.00    +0.000 A 
ATOM     13  C   UNL     1       1.564  13.043  20.803  0.00  0.00    +0.000 A 
ATOM     14  C   UNL     1       2.708  13.829  20.923  0.00  0.00    +0.000 A 
ATOM     15  C   UNL     1       3.462  14.062  19.788  0.00  0.00    +0.000 A 
ATOM     16  N   UNL     1       3.153  13.564  18.574  0.00  0.00    +0.000 NA
ATOM     17  C   UNL     1       2.025  12.817  18.488  0.00  0.00    +0.000 A 
ENDBRANCH  10  12
ENDBRANCH   1   2
BRANCH   1  21
ATOM     18  C   UNL     1       5.413   4.945  16.595  0.00  0.00    +0.000 A 
ATOM     19  C   UNL     1       4.253   4.252  16.877  0.00  0.00    +0.000 A 
ATOM     20  N   UNL     1       3.434   4.822  17.833  0.00  0.00    +0.000 NA
ATOM     21  C   UNL     1       3.987   5.922  18.303  0.00  0.00    +0.000 A 
ATOM     22  S   UNL     1       5.465   6.366  17.564  0.00  0.00    +0.000 S 
BRANCH  18  24
ATOM     23  N   UNL     1       6.043   4.417  14.349  0.00  0.00    +0.000 N 
ATOM     24  C   UNL     1       6.459   4.599  15.648  0.00  0.00    +0.000 C 
ATOM     25  O   UNL     1       7.635   4.473  15.969  0.00  0.00    +0.000 OA
ATOM     26  H   UNL     1       5.055   4.530  14.131  0.00  0.00    +0.000 HD
BRANCH  23  27
ATOM     27  C   UNL     1       6.926   4.027  13.252  0.00  0.00    +0.000 C 
ATOM     28  C   UNL     1       7.534   5.247  12.575  0.00  0.00    +0.000 C 
BRANCH  27  29
ATOM     29  C   UNL     1       6.113   3.222  12.230  0.00  0.00    +0.000 C 
ATOM     30  O   UNL     1       4.916   3.379  12.027  0.00  0.00    +0.000 OA
BRANCH  29  32
ATOM     31  C   UNL     1       6.236   1.193  11.042  0.00  0.00    +0.000 C 
ATOM     32  O   UNL     1       6.915   2.331  11.580  0.00  0.00    +0.000 OA
ENDBRANCH  29  32
ENDBRANCH  27  29
ENDBRANCH  23  27
ENDBRANCH  18  24
ENDBRANCH   1  21
TORSDOF 7
ENDMDL
MODEL 2
REMARK VINA RESULT:      -7.4      1.992      3.216
REMARK  Name = 
REMARK  9 active torsions:
REMARK  status: ('A' for Active; 'I' for Inactive)
REMARK    1  A    between atoms: C_1  and  O_2
REMARK    2  A    between atoms: O_2  and  C_3
REMARK    3  A    between atoms: C_3  and  C_5
REMARK    4  A    between atoms: C_5  and  C_6
REMARK    5  A    between atoms: C_5  and  N_7
REMARK    6  A    between atoms: C_8  and  C_10
REMARK    7  A    between atoms: C_13  and  O_14
REMARK    8  A    between atoms: O_14  and  C_15
REMARK    9  A    between atoms: C_23  and  C_24
REMARK                            x       y       z     vdW  Elec       q    Type
REMARK                         _______ _______ _______ _____ _____    ______ ____
ROOT
ATOM      1  O   UNL     1       2.426   5.558  18.748  0.00  0.00    +0.000 OA
ENDROOT
BRANCH   1   2
ATOM      2  C   UNL     1       2.134   6.802  19.266  0.00  0.00    +0.000 A 
ATOM      3  C   UNL     1       1.652   6.962  20.567  0.00  0.00    +0.000 A 
ATOM      4  C   UNL     1       1.234   8.212  21.003  0.00  0.00    +0.000 A 
ATOM      5  C   UNL     1       1.313   9.302  20.141  0.00  0.00    +0.000 A 
ATOM      6  C   UNL     1       1.930   9.190  18.888  0.00  0.00    +0.000 A 
ATOM      7  C   UNL     1       2.345   7.920  18.454  0.00  0.00    +0.000 A 
ATOM      8  C   UNL     1       2.044  10.386  17.985  0.00  0.00    +0.000 C 
ATOM      9  C   UNL     1       1.522  11.650  18.663  0.00  0.00    +0.000 C 
ATOM     10  C   UNL     1       0.279  11.334  19.506  0.00  0.00    +0.000 C 
ATOM     11  O   UNL     1       0.655  10.429  20.563  0.00  0.00    +0.000 OA
BRANCH  10  12
ATOM     12  C   UNL     1      -0.945  10.901  18.707  0.00  0.00    +0.000 A 
ATOM     13  C   UNL     1      -0.910   9.949  17.678  0.00  0.00    +0.000 A 
ATOM     14  C   UNL     1      -2.056   9.652  16.944  0.00  0.00    +0.000 A 
ATOM     15  C   UNL     1      -3.234  10.289  17.285  0.00  0.00    +0.000 A 
ATOM     16  N   UNL     1      -3.334  11.177  18.295  0.00  0.00    +0.000 NA
ATOM     17  C   UNL     1      -2.197  11.457  18.979  0.00  0.00    +0.000 A 
ENDBRANCH  10  12
ENDBRANCH   1   2
BRANCH   1  21
ATOM     18  C   UNL     1       5.721   4.806  17.140  0.00  0.00    +0.000 A 
ATOM     19  C   UNL     1       5.859   4.904  18.510  0.00  0.00    +0.000 A 
ATOM     20  N   UNL     1       4.692   5.138  19.212  0.00  0.00    +0.000 NA
ATOM     21  C   UNL     1       3.678   5.256  18.378  0.00  0.00    +0.000 A 
ATOM     22  S   UNL     1       4.063   5.008  16.729  0.00  0.00    +0.000 S 
BRANCH  18  24
ATOM     23  N   UNL     1       6.316   4.489  14.846  0.00  0.00    +0.000 N 
ATOM     24  C   UNL     1       6.755   4.568  16.147  0.00  0.00    +0.000 C 
ATOM     25  O   UNL     1       7.939   4.442  16.435  0.00  0.00    +0.000 OA
ATOM     26  H   UNL     1       5.322   4.597  14.656  0.00  0.00    +0.000 HD
BRANCH  23  27
ATOM     27  C   UNL     1       7.185   4.215  13.703  0.00  0.00    +0.000 C 
ATOM     28  C   UNL     1       7.747   5.503  13.119  0.00  0.00    +0.000 C 
BRANCH  27  29
ATOM     29  C   UNL     1       6.371   3.476  12.633  0.00  0.00    +0.000 C 
ATOM     30  O   UNL     1       6.866   2.798  11.740  0.00  0.00    +0.000 OA
BRANCH  29  32
ATOM     31  C   UNL     1       4.213   3.380  11.699  0.00  0.00    +0.000 C 
ATOM     32  O   UNL     1       5.037   3.668  12.832  0.00  0.00    +0.000 OA
ENDBRANCH  29  32
ENDBRANCH  27  29
ENDBRANCH  23  27
ENDBRANCH  18  24
ENDBRANCH   1  21
TORSDOF 7
ENDMDL
MODEL 3
REMARK VINA RESULT:      -7.4      4.232     10.995
REMARK  Name = 
REMARK  9 active torsions:
REMARK  status: ('A' for Active; 'I' for Inactive)
REMARK    1  A    between atoms: C_1  and  O_2
REMARK    2  A    between atoms: O_2  and  C_3
REMARK    3  A    between atoms: C_3  and  C_5
REMARK    4  A    between atoms: C_5  and  C_6
REMARK    5  A    between atoms: C_5  and  N_7
REMARK    6  A    between atoms: C_8  and  C_10
REMARK    7  A    between atoms: C_13  and  O_14
REMARK    8  A    between atoms: O_14  and  C_15
REMARK    9  A    between atoms: C_23  and  C_24
REMARK                            x       y       z     vdW  Elec       q    Type
REMARK                         _______ _______ _______ _____ _____    ______ ____
ROOT
ATOM      1  O   UNL     1       1.219   7.852  21.840  0.00  0.00    +0.000 OA
ENDROOT
BRANCH   1   2
ATOM      2  C   UNL     1       1.609   7.174  20.705  0.00  0.00    +0.000 A 
ATOM      3  C   UNL     1       1.422   5.797  20.571  0.00  0.00    +0.000 A 
ATOM      4  C   UNL     1       1.955   5.126  19.478  0.00  0.00    +0.000 A 
ATOM      5  C   UNL     1       2.665   5.839  18.516  0.00  0.00    +0.000 A 
ATOM      6  C   UNL     1       2.736   7.237  18.557  0.00  0.00    +0.000 A 
ATOM      7  C   UNL     1       2.198   7.905  19.669  0.00  0.00    +0.000 A 
ATOM      8  C   UNL     1       3.472   7.995  17.488  0.00  0.00    +0.000 C 
ATOM      9  C   UNL     1       3.978   7.063  16.390  0.00  0.00    +0.000 C 
ATOM     10  C   UNL     1       4.474   5.742  16.992  0.00  0.00    +0.000 C 
ATOM     11  O   UNL     1       3.360   5.071  17.617  0.00  0.00    +0.000 OA
BRANCH  10  12
ATOM     12  C   UNL     1       5.713   5.862  17.871  0.00  0.00    +0.000 A 
ATOM     13  C   UNL     1       6.774   6.741  17.611  0.00  0.00    +0.000 A 
ATOM     14  C   UNL     1       7.908   6.748  18.419  0.00  0.00    +0.000 A 
ATOM     15  C   UNL     1       7.940   5.896  19.507  0.00  0.00    +0.000 A 
ATOM     16  N   UNL     1       6.930   5.064  19.830  0.00  0.00    +0.000 NA
ATOM     17  C   UNL     1       5.848   5.069  19.013  0.00  0.00    +0.000 A 
ENDBRANCH  10  12
ENDBRANCH   1   2
BRANCH   1  21
ATOM     18  C   UNL     1      -0.846  10.955  22.183  0.00  0.00    +0.000 A 
ATOM     19  C   UNL     1      -0.551  10.710  20.856  0.00  0.00    +0.000 A 
ATOM     20  N   UNL     1       0.175   9.560  20.609  0.00  0.00    +0.000 NA
ATOM     21  C   UNL     1       0.463   8.954  21.743  0.00  0.00    +0.000 A 
ATOM     22  S   UNL     1      -0.191   9.688  23.144  0.00  0.00    +0.000 S 
BRANCH  18  24
ATOM     23  N   UNL     1      -2.925  11.845  22.959  0.00  0.00    +0.000 N 
ATOM     24  C   UNL     1      -1.584  12.071  22.748  0.00  0.00    +0.000 C 
ATOM     25  O   UNL     1      -1.063  13.147  23.019  0.00  0.00    +0.000 OA
ATOM     26  H   UNL     1      -3.313  10.937  22.715  0.00  0.00    +0.000 HD
BRANCH  23  27
ATOM     27  C   UNL     1      -3.853  12.846  23.480  0.00  0.00    +0.000 C 
ATOM     28  C   UNL     1      -4.426  12.418  24.823  0.00  0.00    +0.000 C 
BRANCH  27  29
ATOM     29  C   UNL     1      -4.991  13.034  22.469  0.00  0.00    +0.000 C 
ATOM     30  O   UNL     1      -5.597  12.112  21.937  0.00  0.00    +0.000 OA
BRANCH  29  32
ATOM     31  C   UNL     1      -4.074  15.194  22.280  0.00  0.00    +0.000 C 
ATOM     32  O   UNL     1      -5.236  14.360  22.269  0.00  0.00    +0.000 OA
ENDBRANCH  29  32
ENDBRANCH  27  29
ENDBRANCH  23  27
ENDBRANCH  18  24
ENDBRANCH   1  21
TORSDOF 7
ENDMDL
MODEL 4
REMARK VINA RESULT:      -7.2      3.042      5.321
REMARK  Name = 
REMARK  9 active torsions:
REMARK  status: ('A' for Active; 'I' for Inactive)
REMARK    1  A    between atoms: C_1  and  O_2
REMARK    2  A    between atoms: O_2  and  C_3
REMARK    3  A    between atoms: C_3  and  C_5
REMARK    4  A    between atoms: C_5  and  C_6
REMARK    5  A    between atoms: C_5  and  N_7
REMARK    6  A    between atoms: C_8  and  C_10
REMARK    7  A    between atoms: C_13  and  O_14
REMARK    8  A    between atoms: O_14  and  C_15
REMARK    9  A    between atoms: C_23  and  C_24
REMARK                            x       y       z     vdW  Elec       q    Type
REMARK                         _______ _______ _______ _____ _____    ______ ____
ROOT
ATOM      1  O   UNL     1       0.653  10.919  18.818  0.00  0.00    +0.000 OA
ENDROOT
BRANCH   1   2
ATOM      2  C   UNL     1       1.318  12.048  19.248  0.00  0.00    +0.000 A 
ATOM      3  C   UNL     1       1.208  12.510  20.561  0.00  0.00    +0.000 A 
ATOM      4  C   UNL     1       1.774  13.726  20.919  0.00  0.00    +0.000 A 
ATOM      5  C   UNL     1       2.461  14.471  19.963  0.00  0.00    +0.000 A 
ATOM      6  C   UNL     1       2.707  13.955  18.684  0.00  0.00    +0.000 A 
ATOM      7  C   UNL     1       2.126  12.727  18.331  0.00  0.00    +0.000 A 
ATOM      8  C   UNL     1       3.486  14.755  17.677  0.00  0.00    +0.000 C 
ATOM      9  C   UNL     1       4.010  16.055  18.281  0.00  0.00    +0.000 C 
ATOM     10  C   UNL     1       2.972  16.663  19.233  0.00  0.00    +0.000 C 
ATOM     11  O   UNL     1       2.766  15.755  20.335  0.00  0.00    +0.000 OA
BRANCH  10  12
ATOM     12  C   UNL     1       1.690  17.146  18.563  0.00  0.00    +0.000 A 
ATOM     13  C   UNL     1       0.404  16.887  19.059  0.00  0.00    +0.000 A 
ATOM     14  C   UNL     1      -0.726  17.301  18.356  0.00  0.00    +0.000 A 
ATOM     15  C   UNL     1      -0.543  18.006  17.182  0.00  0.00    +0.000 A 
ATOM     16  N   UNL     1       0.670  18.321  16.684  0.00  0.00    +0.000 NA
ATOM     17  C   UNL     1       1.749  17.890  17.383  0.00  0.00    +0.000 A 
ENDBRANCH  10  12
ENDBRANCH   1   2
BRANCH   1  21
ATOM     18  C   UNL     1       2.321   7.570  18.940  0.00  0.00    +0.000 A 
ATOM     19  C   UNL     1       1.799   7.900  20.175  0.00  0.00    +0.000 A 
ATOM     20  N   UNL     1       1.121   9.103  20.235  0.00  0.00    +0.000 NA
ATOM     21  C   UNL     1       1.159   9.702  19.062  0.00  0.00    +0.000 A 
ATOM     22  S   UNL     1       1.934   8.816  17.819  0.00  0.00    +0.000 S 
BRANCH  18  24
ATOM     23  N   UNL     1       4.240   6.621  17.875  0.00  0.00    +0.000 N 
ATOM     24  C   UNL     1       3.076   6.385  18.571  0.00  0.00    +0.000 C 
ATOM     25  O   UNL     1       2.713   5.249  18.851  0.00  0.00    +0.000 OA
ATOM     26  H   UNL     1       4.498   7.582  17.663  0.00  0.00    +0.000 HD
BRANCH  23  27
ATOM     27  C   UNL     1       5.123   5.569  17.376  0.00  0.00    +0.000 C 
ATOM     28  C   UNL     1       6.324   5.379  18.292  0.00  0.00    +0.000 C 
BRANCH  27  29
ATOM     29  C   UNL     1       5.602   5.956  15.971  0.00  0.00    +0.000 C 
ATOM     30  O   UNL     1       5.110   6.854  15.300  0.00  0.00    +0.000 OA
BRANCH  29  32
ATOM     31  C   UNL     1       6.308   4.058  14.772  0.00  0.00    +0.000 C 
ATOM     32  O   UNL     1       6.654   5.174  15.595  0.00  0.00    +0.000 OA
ENDBRANCH  29  32
ENDBRANCH  27  29
ENDBRANCH  23  27
ENDBRANCH  18  24
ENDBRANCH   1  21
TORSDOF 7
ENDMDL
MODEL 5
REMARK VINA RESULT:      -7.2      2.706      4.207
REMARK  Name = 
REMARK  9 active torsions:
REMARK  status: ('A' for Active; 'I' for Inactive)
REMARK    1  A    between atoms: C_1  and  O_2
REMARK    2  A    between atoms: O_2  and  C_3
REMARK    3  A    between atoms: C_3  and  C_5
REMARK    4  A    between atoms: C_5  and  C_6
REMARK    5  A    between atoms: C_5  and  N_7
REMARK    6  A    between atoms: C_8  and  C_10
REMARK    7  A    between atoms: C_13  and  O_14
REMARK    8  A    between atoms: O_14  and  C_15
REMARK    9  A    between atoms: C_23  and  C_24
REMARK                            x       y       z     vdW  Elec       q    Type
REMARK                         _______ _______ _______ _____ _____    ______ ____
ROOT
ATOM      1  O   UNL     1       1.268   6.311  21.214  0.00  0.00    +0.000 OA
ENDROOT
BRANCH   1   2
ATOM      2  C   UNL     1       1.175   7.678  21.062  0.00  0.00    +0.000 A 
ATOM      3  C   UNL     1       0.777   8.509  22.111  0.00  0.00    +0.000 A 
ATOM      4  C   UNL     1       0.557   9.860  21.882  0.00  0.00    +0.000 A 
ATOM      5  C   UNL     1       0.750  10.380  20.604  0.00  0.00    +0.000 A 
ATOM      6  C   UNL     1       1.290   9.594  19.578  0.00  0.00    +0.000 A 
ATOM      7  C   UNL     1       1.504   8.228  19.818  0.00  0.00    +0.000 A 
ATOM      8  C   UNL     1       1.530  10.181  18.215  0.00  0.00    +0.000 C 
ATOM      9  C   UNL     1       1.219  11.676  18.187  0.00  0.00    +0.000 C 
ATOM     10  C   UNL     1      -0.017  11.983  19.042  0.00  0.00    +0.000 C 
ATOM     11  O   UNL     1       0.275  11.653  20.415  0.00  0.00    +0.000 OA
BRANCH  10  12
ATOM     12  C   UNL     1      -1.324  11.401  18.515  0.00  0.00    +0.000 A 
ATOM     13  C   UNL     1      -1.394  10.381  17.555  0.00  0.00    +0.000 A 
ATOM     14  C   UNL     1      -2.624   9.945  17.068  0.00  0.00    +0.000 A 
ATOM     15  C   UNL     1      -3.772  10.516  17.587  0.00  0.00    +0.000 A 
ATOM     16  N   UNL     1      -3.763  11.466  18.544  0.00  0.00    +0.000 NA
ATOM     17  C   UNL     1      -2.549  11.880  18.984  0.00  0.00    +0.000 A 
ENDBRANCH  10  12
ENDBRANCH   1   2
BRANCH   1  21
ATOM     18  C   UNL     1       3.318   4.503  18.657  0.00  0.00    +0.000 A 
ATOM     19  C   UNL     1       2.071   3.924  18.780  0.00  0.00    +0.000 A 
ATOM     20  N   UNL     1       1.211   4.540  19.670  0.00  0.00    +0.000 NA
ATOM     21  C   UNL     1       1.815   5.559  20.249  0.00  0.00    +0.000 A 
ATOM     22  S   UNL     1       3.402   5.874  19.693  0.00  0.00    +0.000 S 
BRANCH  18  24
ATOM     23  N   UNL     1       5.563   4.851  17.910  0.00  0.00    +0.000 N 
ATOM     24  C   UNL     1       4.423   4.086  17.811  0.00  0.00    +0.000 C 
ATOM     25  O   UNL     1       4.358   3.124  17.055  0.00  0.00    +0.000 OA
ATOM     26  H   UNL     1       5.568   5.643  18.549  0.00  0.00    +0.000 HD
BRANCH  23  27
ATOM     27  C   UNL     1       6.770   4.627  17.119  0.00  0.00    +0.000 C 
ATOM     28  C   UNL     1       7.999   4.516  18.011  0.00  0.00    +0.000 C 
BRANCH  27  29
ATOM     29  C   UNL     1       6.945   5.800  16.145  0.00  0.00    +0.000 C 
ATOM     30  O   UNL     1       6.769   6.975  16.446  0.00  0.00    +0.000 OA
BRANCH  29  32
ATOM     31  C   UNL     1       6.572   4.249  14.414  0.00  0.00    +0.000 C 
ATOM     32  O   UNL     1       7.335   5.348  14.920  0.00  0.00    +0.000 OA
ENDBRANCH  29  32
ENDBRANCH  27  29
ENDBRANCH  23  27
ENDBRANCH  18  24
ENDBRANCH   1  21
TORSDOF 7
ENDMDL
MODEL 6
REMARK VINA RESULT:      -7.2      5.740      8.218
REMARK  Name = 
REMARK  9 active torsions:
REMARK  status: ('A' for Active; 'I' for Inactive)
REMARK    1  A    between atoms: C_1  and  O_2
REMARK    2  A    between atoms: O_2  and  C_3
REMARK    3  A    between atoms: C_3  and  C_5
REMARK    4  A    between atoms: C_5  and  C_6
REMARK    5  A    between atoms: C_5  and  N_7
REMARK    6  A    between atoms: C_8  and  C_10
REMARK    7  A    between atoms: C_13  and  O_14
REMARK    8  A    between atoms: O_14  and  C_15
REMARK    9  A    between atoms: C_23  and  C_24
REMARK                            x       y       z     vdW  Elec       q    Type
REMARK                         _______ _______ _______ _____ _____    ______ ____
ROOT
ATOM      1  O   UNL     1       8.049   9.158  17.523  0.00  0.00    +0.000 OA
ENDROOT
BRANCH   1   2
ATOM      2  C   UNL     1       8.923   9.953  18.234  0.00  0.00    +0.000 A 
ATOM      3  C   UNL     1       8.915   9.989  19.629  0.00  0.00    +0.000 A 
ATOM      4  C   UNL     1       9.709  10.905  20.305  0.00  0.00    +0.000 A 
ATOM      5  C   UNL     1      10.519  11.776  19.581  0.00  0.00    +0.000 A 
ATOM      6  C   UNL     1      10.651  11.656  18.192  0.00  0.00    +0.000 A 
ATOM      7  C   UNL     1       9.840  10.729  17.518  0.00  0.00    +0.000 A 
ATOM      8  C   UNL     1      11.562  12.578  17.430  0.00  0.00    +0.000 C 
ATOM      9  C   UNL     1      12.333  13.503  18.368  0.00  0.00    +0.000 C 
ATOM     10  C   UNL     1      11.439  13.956  19.530  0.00  0.00    +0.000 C 
ATOM     11  O   UNL     1      11.070  12.800  20.309  0.00  0.00    +0.000 OA
BRANCH  10  12
ATOM     12  C   UNL     1      10.270  14.849  19.131  0.00  0.00    +0.000 A 
ATOM     13  C   UNL     1       8.996  14.774  19.711  0.00  0.00    +0.000 A 
ATOM     14  C   UNL     1       7.954  15.576  19.248  0.00  0.00    +0.000 A 
ATOM     15  C   UNL     1       8.223  16.474  18.232  0.00  0.00    +0.000 A 
ATOM     16  N   UNL     1       9.441  16.620  17.671  0.00  0.00    +0.000 NA
ATOM     17  C   UNL     1      10.428  15.813  18.133  0.00  0.00    +0.000 A 
ENDBRANCH  10  12
ENDBRANCH   1   2
BRANCH   1  21
ATOM     18  C   UNL     1       6.424   5.950  18.562  0.00  0.00    +0.000 A 
ATOM     19  C   UNL     1       7.722   6.013  19.028  0.00  0.00    +0.000 A 
ATOM     20  N   UNL     1       8.406   7.178  18.738  0.00  0.00    +0.000 NA
ATOM     21  C   UNL     1       7.645   7.982  18.022  0.00  0.00    +0.000 A 
ATOM     22  S   UNL     1       6.056   7.414  17.737  0.00  0.00    +0.000 S 
BRANCH  18  24
ATOM     23  N   UNL     1       4.173   5.253  18.967  0.00  0.00    +0.000 N 
ATOM     24  C   UNL     1       5.468   4.866  18.708  0.00  0.00    +0.000 C 
ATOM     25  O   UNL     1       5.779   3.685  18.612  0.00  0.00    +0.000 OA
ATOM     26  H   UNL     1       3.964   6.246  19.040  0.00  0.00    +0.000 HD
BRANCH  23  27
ATOM     27  C   UNL     1       3.069   4.323  19.187  0.00  0.00    +0.000 C 
ATOM     28  C   UNL     1       2.146   4.268  17.977  0.00  0.00    +0.000 C 
BRANCH  27  29
ATOM     29  C   UNL     1       2.277   4.782  20.418  0.00  0.00    +0.000 C 
ATOM     30  O   UNL     1       1.673   5.845  20.490  0.00  0.00    +0.000 OA
BRANCH  29  32
ATOM     31  C   UNL     1       1.403   2.760  21.248  0.00  0.00    +0.000 C 
ATOM     32  O   UNL     1       2.332   3.836  21.399  0.00  0.00    +0.000 OA
ENDBRANCH  29  32
ENDBRANCH  27  29
ENDBRANCH  23  27
ENDBRANCH  18  24
ENDBRANCH   1  21
TORSDOF 7
ENDMDL
MODEL 7
REMARK VINA RESULT:      -7.2      3.304      5.855
REMARK  Name = 
REMARK  9 active torsions:
REMARK  status: ('A' for Active; 'I' for Inactive)
REMARK    1  A    between atoms: C_1  and  O_2
REMARK    2  A    between atoms: O_2  and  C_3
REMARK    3  A    between atoms: C_3  and  C_5
REMARK    4  A    between atoms: C_5  and  C_6
REMARK    5  A    between atoms: C_5  and  N_7
REMARK    6  A    between atoms: C_8  and  C_10
REMARK    7  A    between atoms: C_13  and  O_14
REMARK    8  A    between atoms: O_14  and  C_15
REMARK    9  A    between atoms: C_23  and  C_24
REMARK                            x       y       z     vdW  Elec       q    Type
REMARK                         _______ _______ _______ _____ _____    ______ ____
ROOT
ATOM      1  O   UNL     1       0.540  11.244  18.843  0.00  0.00    +0.000 OA
ENDROOT
BRANCH   1   2
ATOM      2  C   UNL     1       1.187  12.389  19.256  0.00  0.00    +0.000 A 
ATOM      3  C   UNL     1       1.061  12.876  20.558  0.00  0.00    +0.000 A 
ATOM      4  C   UNL     1       1.610  14.105  20.896  0.00  0.00    +0.000 A 
ATOM      5  C   UNL     1       2.298  14.838  19.932  0.00  0.00    +0.000 A 
ATOM      6  C   UNL     1       2.561  14.300  18.666  0.00  0.00    +0.000 A 
ATOM      7  C   UNL     1       1.997  13.058  18.332  0.00  0.00    +0.000 A 
ATOM      8  C   UNL     1       3.340  15.088  17.650  0.00  0.00    +0.000 C 
ATOM      9  C   UNL     1       3.845  16.406  18.232  0.00  0.00    +0.000 C 
ATOM     10  C   UNL     1       2.791  17.021  19.163  0.00  0.00    +0.000 C 
ATOM     11  O   UNL     1       2.585  16.133  20.281  0.00  0.00    +0.000 OA
BRANCH  10  12
ATOM     12  C   UNL     1       1.510  17.475  18.472  0.00  0.00    +0.000 A 
ATOM     13  C   UNL     1       1.466  17.985  17.166  0.00  0.00    +0.000 A 
ATOM     14  C   UNL     1       0.269  18.446  16.622  0.00  0.00    +0.000 A 
ATOM     15  C   UNL     1      -0.877  18.349  17.389  0.00  0.00    +0.000 A 
ATOM     16  N   UNL     1      -0.899  17.825  18.631  0.00  0.00    +0.000 NA
ATOM     17  C   UNL     1       0.285  17.401  19.137  0.00  0.00    +0.000 A 
ENDBRANCH  10  12
ENDBRANCH   1   2
BRANCH   1  21
ATOM     18  C   UNL     1       2.207   7.894  18.901  0.00  0.00    +0.000 A 
ATOM     19  C   UNL     1       2.366   8.496  17.669  0.00  0.00    +0.000 A 
ATOM     20  N   UNL     1       1.823   9.761  17.548  0.00  0.00    +0.000 NA
ATOM     21  C   UNL     1       1.223  10.104  18.670  0.00  0.00    +0.000 A 
ATOM     22  S   UNL     1       1.354   8.965  19.941  0.00  0.00    +0.000 S 
BRANCH  18  24
ATOM     23  N   UNL     1       3.795   6.118  18.696  0.00  0.00    +0.000 N 
ATOM     24  C   UNL     1       2.663   6.581  19.325  0.00  0.00    +0.000 C 
ATOM     25  O   UNL     1       2.086   5.919  20.180  0.00  0.00    +0.000 OA
ATOM     26  H   UNL     1       4.238   6.702  17.990  0.00  0.00    +0.000 HD
BRANCH  23  27
ATOM     27  C   UNL     1       4.394   4.809  18.946  0.00  0.00    +0.000 C 
ATOM     28  C   UNL     1       5.865   4.938  19.317  0.00  0.00    +0.000 C 
BRANCH  27  29
ATOM     29  C   UNL     1       4.255   3.955  17.679  0.00  0.00    +0.000 C 
ATOM     30  O   UNL     1       3.803   2.817  17.663  0.00  0.00    +0.000 OA
BRANCH  29  32
ATOM     31  C   UNL     1       5.622   3.949  15.762  0.00  0.00    +0.000 C 
ATOM     32  O   UNL     1       4.687   4.649  16.588  0.00  0.00    +0.000 OA
ENDBRANCH  29  32
ENDBRANCH  27  29
ENDBRANCH  23  27
ENDBRANCH  18  24
ENDBRANCH   1  21
TORSDOF 7
ENDMDL
MODEL 8
REMARK VINA RESULT:      -7.2      3.299      5.824
REMARK  Name = 
REMARK  9 active torsions:
REMARK  status: ('A' for Active; 'I' for Inactive)
REMARK    1  A    between atoms: C_1  and  O_2
REMARK    2  A    between atoms: O_2  and  C_3
REMARK    3  A    between atoms: C_3  and  C_5
REMARK    4  A    between atoms: C_5  and  C_6
REMARK    5  A    between atoms: C_5  and  N_7
REMARK    6  A    between atoms: C_8  and  C_10
REMARK    7  A    between atoms: C_13  and  O_14
REMARK    8  A    between atoms: O_14  and  C_15
REMARK    9  A    between atoms: C_23  and  C_24
REMARK                            x       y       z     vdW  Elec       q    Type
REMARK                         _______ _______ _______ _____ _____    ______ ____
ROOT
ATOM      1  O   UNL     1       0.588  10.875  18.992  0.00  0.00    +0.000 OA
ENDROOT
BRANCH   1   2
ATOM      2  C   UNL     1       1.260  12.014  19.383  0.00  0.00    +0.000 A 
ATOM      3  C   UNL     1       1.161  12.518  20.681  0.00  0.00    +0.000 A 
ATOM      4  C   UNL     1       1.735  13.742  20.997  0.00  0.00    +0.000 A 
ATOM      5  C   UNL     1       2.419  14.453  20.014  0.00  0.00    +0.000 A 
ATOM      6  C   UNL     1       2.655  13.896  18.751  0.00  0.00    +0.000 A 
ATOM      7  C   UNL     1       2.066  12.660  18.439  0.00  0.00    +0.000 A 
ATOM      8  C   UNL     1       3.431  14.660  17.714  0.00  0.00    +0.000 C 
ATOM      9  C   UNL     1       3.965  15.976  18.274  0.00  0.00    +0.000 C 
ATOM     10  C   UNL     1       2.935  16.619  19.212  0.00  0.00    +0.000 C 
ATOM     11  O   UNL     1       2.732  15.747  20.343  0.00  0.00    +0.000 OA
BRANCH  10  12
ATOM     12  C   UNL     1       1.652  17.086  18.535  0.00  0.00    +0.000 A 
ATOM     13  C   UNL     1       1.619  17.773  17.313  0.00  0.00    +0.000 A 
ATOM     14  C   UNL     1       0.413  18.231  16.786  0.00  0.00    +0.000 A 
ATOM     15  C   UNL     1      -0.750  17.953  17.480  0.00  0.00    +0.000 A 
ATOM     16  N   UNL     1      -0.780  17.257  18.634  0.00  0.00    +0.000 NA
ATOM     17  C   UNL     1       0.412  16.840  19.128  0.00  0.00    +0.000 A 
ENDBRANCH  10  12
ENDBRANCH   1   2
BRANCH   1  21
ATOM     18  C   UNL     1       2.442   7.632  18.767  0.00  0.00    +0.000 A 
ATOM     19  C   UNL     1       1.940   7.819  20.039  0.00  0.00    +0.000 A 
ATOM     20  N   UNL     1       1.198   8.970  20.225  0.00  0.00    +0.000 NA
ATOM     21  C   UNL     1       1.168   9.673  19.111  0.00  0.00    +0.000 A 
ATOM     22  S   UNL     1       1.952   8.949  17.774  0.00  0.00    +0.000 S 
BRANCH  18  24
ATOM     23  N   UNL     1       3.325   5.435  19.102  0.00  0.00    +0.000 N 
ATOM     24  C   UNL     1       3.250   6.531  18.272  0.00  0.00    +0.000 C 
ATOM     25  O   UNL     1       3.833   6.562  17.195  0.00  0.00    +0.000 OA
ATOM     26  H   UNL     1       2.827   5.457  19.988  0.00  0.00    +0.000 HD
BRANCH  23  27
ATOM     27  C   UNL     1       4.116   4.241  18.812  0.00  0.00    +0.000 C 
ATOM     28  C   UNL     1       3.824   3.133  19.814  0.00  0.00    +0.000 C 
BRANCH  27  29
ATOM     29  C   UNL     1       5.604   4.611  18.872  0.00  0.00    +0.000 C 
ATOM     30  O   UNL     1       6.143   5.140  19.836  0.00  0.00    +0.000 OA
BRANCH  29  32
ATOM     31  C   UNL     1       7.550   4.779  17.558  0.00  0.00    +0.000 C 
ATOM     32  O   UNL     1       6.230   4.251  17.715  0.00  0.00    +0.000 OA
ENDBRANCH  29  32
ENDBRANCH  27  29
ENDBRANCH  23  27
ENDBRANCH  18  24
ENDBRANCH   1  21
TORSDOF 7
ENDMDL
MODEL 9
REMARK VINA RESULT:      -7.1      4.302     10.838
REMARK  Name = 
REMARK  9 active torsions:
REMARK  status: ('A' for Active; 'I' for Inactive)
REMARK    1  A    between atoms: C_1  and  O_2
REMARK    2  A    between atoms: O_2  and  C_3
REMARK    3  A    between atoms: C_3  and  C_5
REMARK    4  A    between atoms: C_5  and  C_6
REMARK    5  A    between atoms: C_5  and  N_7
REMARK    6  A    between atoms: C_8  and  C_10
REMARK    7  A    between atoms: C_13  and  O_14
REMARK    8  A    between atoms: O_14  and  C_15
REMARK    9  A    between atoms: C_23  and  C_24
REMARK                            x       y       z     vdW  Elec       q    Type
REMARK                         _______ _______ _______ _____ _____    ______ ____
ROOT
ATOM      1  O   UNL     1       1.601   9.484  18.936  0.00  0.00    +0.000 OA
ENDROOT
BRANCH   1   2
ATOM      2  C   UNL     1       1.795   8.142  19.186  0.00  0.00    +0.000 A 
ATOM      3  C   UNL     1       1.843   7.636  20.487  0.00  0.00    +0.000 A 
ATOM      4  C   UNL     1       2.182   6.307  20.703  0.00  0.00    +0.000 A 
ATOM      5  C   UNL     1       2.460   5.484  19.615  0.00  0.00    +0.000 A 
ATOM      6  C   UNL     1       2.274   5.934  18.301  0.00  0.00    +0.000 A 
ATOM      7  C   UNL     1       1.935   7.281  18.093  0.00  0.00    +0.000 A 
ATOM      8  C   UNL     1       2.540   5.020  17.137  0.00  0.00    +0.000 C 
ATOM      9  C   UNL     1       2.901   3.612  17.604  0.00  0.00    +0.000 C 
ATOM     10  C   UNL     1       3.781   3.671  18.860  0.00  0.00    +0.000 C 
ATOM     11  O   UNL     1       3.023   4.273  19.929  0.00  0.00    +0.000 OA
BRANCH  10  12
ATOM     12  C   UNL     1       5.165   4.275  18.647  0.00  0.00    +0.000 A 
ATOM     13  C   UNL     1       5.876   4.192  17.442  0.00  0.00    +0.000 A 
ATOM     14  C   UNL     1       7.167   4.708  17.340  0.00  0.00    +0.000 A 
ATOM     15  C   UNL     1       7.707   5.339  18.444  0.00  0.00    +0.000 A 
ATOM     16  N   UNL     1       7.049   5.488  19.612  0.00  0.00    +0.000 NA
ATOM     17  C   UNL     1       5.802   4.960  19.683  0.00  0.00    +0.000 A 
ENDBRANCH  10  12
ENDBRANCH   1   2
BRANCH   1  21
ATOM     18  C   UNL     1      -1.752  11.147  18.927  0.00  0.00    +0.000 A 
ATOM     19  C   UNL     1      -1.536  10.480  17.738  0.00  0.00    +0.000 A 
ATOM     20  N   UNL     1      -0.341   9.791  17.648  0.00  0.00    +0.000 NA
ATOM     21  C   UNL     1       0.364   9.965  18.748  0.00  0.00    +0.000 A 
ATOM     22  S   UNL     1      -0.406  10.888  19.966  0.00  0.00    +0.000 S 
BRANCH  18  24
ATOM     23  N   UNL     1      -2.755  12.668  20.476  0.00  0.00    +0.000 N 
ATOM     24  C   UNL     1      -2.901  11.949  19.311  0.00  0.00    +0.000 C 
ATOM     25  O   UNL     1      -3.935  11.990  18.656  0.00  0.00    +0.000 OA
ATOM     26  H   UNL     1      -1.879  12.599  20.988  0.00  0.00    +0.000 HD
BRANCH  23  27
ATOM     27  C   UNL     1      -3.802  13.503  21.059  0.00  0.00    +0.000 C 
ATOM     28  C   UNL     1      -3.215  14.753  21.700  0.00  0.00    +0.000 C 
BRANCH  27  29
ATOM     29  C   UNL     1      -4.552  12.684  22.117  0.00  0.00    +0.000 C 
ATOM     30  O   UNL     1      -5.759  12.475  22.096  0.00  0.00    +0.000 OA
BRANCH  29  32
ATOM     31  C   UNL     1      -4.097  12.433  24.413  0.00  0.00    +0.000 C 
ATOM     32  O   UNL     1      -3.686  12.217  23.060  0.00  0.00    +0.000 OA
ENDBRANCH  29  32
ENDBRANCH  27  29
ENDBRANCH  23  27
ENDBRANCH  18  24
ENDBRANCH   1  21
TORSDOF 7
ENDMDL
