MODEL 1
REMARK VINA RESULT:      -8.6      0.000      0.000
REMARK  Name = 
REMARK  5 active torsions:
REMARK  status: ('A' for Active; 'I' for Inactive)
REMARK    1  A    between atoms: C_1  and  C_2
REMARK    2  A    between atoms: C_9  and  C_10
REMARK    3  A    between atoms: C_11  and  C_12
REMARK    4  A    between atoms: C_12  and  O_13
REMARK    5  A    between atoms: C_25  and  C_26
REMARK                            x       y       z     vdW  Elec       q    Type
REMARK                         _______ _______ _______ _____ _____    ______ ____
ROOT
ATOM      1  C   UNL     1      -2.518  14.865  21.625  0.00  0.00    +0.000 C 
ATOM      2  C   UNL     1      -1.846  13.519  21.596  0.00  0.00    +0.000 A 
ATOM      3  C   UNL     1      -1.094  13.180  20.467  0.00  0.00    +0.000 A 
ATOM      4  C   UNL     1      -0.434  11.951  20.362  0.00  0.00    +0.000 A 
ATOM      5  S   UNL     1       0.458  11.720  18.861  0.00  0.00    +0.000 S 
ATOM      6  C   UNL     1       1.132  10.105  19.050  0.00  0.00    +0.000 A 
ATOM      7  C   UNL     1       1.895   9.654  17.963  0.00  0.00    +0.000 A 
ATOM      8  C   UNL     1       2.480   8.398  17.982  0.00  0.00    +0.000 A 
ATOM      9  C   UNL     1       2.306   7.575  19.089  0.00  0.00    +0.000 A 
ATOM     10  C   UNL     1       1.554   8.012  20.184  0.00  0.00    +0.000 A 
ATOM     11  C   UNL     1       0.959   9.288  20.170  0.00  0.00    +0.000 A 
ATOM     12  C   UNL     1       0.164   9.714  21.353  0.00  0.00    +0.000 A 
ATOM     13  O   UNL     1       0.065   8.952  22.311  0.00  0.00    +0.000 OA
ATOM     14  C   UNL     1      -0.519  11.034  21.407  0.00  0.00    +0.000 A 
ATOM     15  C   UNL     1      -1.274  11.364  22.549  0.00  0.00    +0.000 A 
ATOM     16  C   UNL     1      -1.937  12.603  22.654  0.00  0.00    +0.000 A 
ATOM     17  C   UNL     1      -2.736  12.929  23.885  0.00  0.00    +0.000 C 
ENDROOT
BRANCH   9  18
ATOM     18  C   UNL     1       2.913   6.288  19.077  0.00  0.00    +0.000 C 
ATOM     19  C   UNL     1       3.444   5.212  19.104  0.00  0.00    +0.000 C 
BRANCH  19  20
ATOM     20  C   UNL     1       4.029   3.863  19.150  0.00  0.00    +0.000 C 
ATOM     21  C   UNL     1       3.377   3.028  20.261  0.00  0.00    +0.000 C 
ATOM     22  C   UNL     1       1.915   2.700  19.960  0.00  0.00    +0.000 C 
ATOM     23  C   UNL     1       1.770   2.017  18.603  0.00  0.00    +0.000 C 
ATOM     24  C   UNL     1       2.410   2.831  17.480  0.00  0.00    +0.000 C 
ATOM     25  C   UNL     1       3.869   3.168  17.792  0.00  0.00    +0.000 C 
BRANCH  20  26
ATOM     26  O   UNL     1       5.422   3.983  19.431  0.00  0.00    +0.000 OA
ATOM     27  H   UNL     1       5.499   4.336  20.334  0.00  0.00    +0.000 HD
ENDBRANCH  20  26
ENDBRANCH  19  20
ENDBRANCH   9  18
TORSDOF 3
ENDMDL
MODEL 2
REMARK VINA RESULT:      -8.2      1.185      2.017
REMARK  Name = 
REMARK  5 active torsions:
REMARK  status: ('A' for Active; 'I' for Inactive)
REMARK    1  A    between atoms: C_1  and  C_2
REMARK    2  A    between atoms: C_9  and  C_10
REMARK    3  A    between atoms: C_11  and  C_12
REMARK    4  A    between atoms: C_12  and  O_13
REMARK    5  A    between atoms: C_25  and  C_26
REMARK                            x       y       z     vdW  Elec       q    Type
REMARK                         _______ _______ _______ _____ _____    ______ ____
ROOT
ATOM      1  C   UNL     1      -3.242  14.481  21.734  0.00  0.00    +0.000 C 
ATOM      2  C   UNL     1      -2.402  13.234  21.682  0.00  0.00    +0.000 A 
ATOM      3  C   UNL     1      -1.710  12.951  20.501  0.00  0.00    +0.000 A 
ATOM      4  C   UNL     1      -0.903  11.814  20.372  0.00  0.00    +0.000 A 
ATOM      5  S   UNL     1      -0.118  11.643  18.804  0.00  0.00    +0.000 S 
ATOM      6  C   UNL     1       0.778  10.138  18.978  0.00  0.00    +0.000 A 
ATOM      7  C   UNL     1       1.499   9.748  17.841  0.00  0.00    +0.000 A 
ATOM      8  C   UNL     1       2.245   8.579  17.842  0.00  0.00    +0.000 A 
ATOM      9  C   UNL     1       2.276   7.785  18.982  0.00  0.00    +0.000 A 
ATOM     10  C   UNL     1       1.567   8.163  20.127  0.00  0.00    +0.000 A 
ATOM     11  C   UNL     1       0.810   9.350  20.131  0.00  0.00    +0.000 A 
ATOM     12  C   UNL     1       0.067   9.714  21.367  0.00  0.00    +0.000 A 
ATOM     13  O   UNL     1       0.152   8.984  22.351  0.00  0.00    +0.000 OA
ATOM     14  C   UNL     1      -0.777  10.936  21.445  0.00  0.00    +0.000 A 
ATOM     15  C   UNL     1      -1.471  11.210  22.640  0.00  0.00    +0.000 A 
ATOM     16  C   UNL     1      -2.281  12.355  22.769  0.00  0.00    +0.000 A 
ATOM     17  C   UNL     1      -3.010  12.622  24.057  0.00  0.00    +0.000 C 
ENDROOT
BRANCH   9  18
ATOM     18  C   UNL     1       3.045   6.588  18.952  0.00  0.00    +0.000 C 
ATOM     19  C   UNL     1       3.658   5.556  18.928  0.00  0.00    +0.000 C 
BRANCH  19  20
ATOM     20  C   UNL     1       4.429   4.307  18.828  0.00  0.00    +0.000 C 
ATOM     21  C   UNL     1       4.251   3.670  17.442  0.00  0.00    +0.000 C 
ATOM     22  C   UNL     1       4.899   4.500  16.334  0.00  0.00    +0.000 C 
ATOM     23  C   UNL     1       6.372   4.765  16.632  0.00  0.00    +0.000 C 
ATOM     24  C   UNL     1       6.574   5.401  18.006  0.00  0.00    +0.000 C 
ATOM     25  C   UNL     1       5.912   4.574  19.110  0.00  0.00    +0.000 C 
BRANCH  20  26
ATOM     26  O   UNL     1       3.942   3.396  19.812  0.00  0.00    +0.000 OA
ATOM     27  H   UNL     1       3.173   2.944  19.424  0.00  0.00    +0.000 HD
ENDBRANCH  20  26
ENDBRANCH  19  20
ENDBRANCH   9  18
TORSDOF 3
ENDMDL
MODEL 3
REMARK VINA RESULT:      -8.2      1.098      1.276
REMARK  Name = 
REMARK  5 active torsions:
REMARK  status: ('A' for Active; 'I' for Inactive)
REMARK    1  A    between atoms: C_1  and  C_2
REMARK    2  A    between atoms: C_9  and  C_10
REMARK    3  A    between atoms: C_11  and  C_12
REMARK    4  A    between atoms: C_12  and  O_13
REMARK    5  A    between atoms: C_25  and  C_26
REMARK                            x       y       z     vdW  Elec       q    Type
REMARK                         _______ _______ _______ _____ _____    ______ ____
ROOT
ATOM      1  C   UNL     1      -2.359  16.187  21.994  0.00  0.00    +0.000 C 
ATOM      2  C   UNL     1      -1.756  14.809  22.013  0.00  0.00    +0.000 A 
ATOM      3  C   UNL     1      -1.226  14.302  20.823  0.00  0.00    +0.000 A 
ATOM      4  C   UNL     1      -0.643  13.031  20.755  0.00  0.00    +0.000 A 
ATOM      5  S   UNL     1      -0.037  12.583  19.164  0.00  0.00    +0.000 S 
ATOM      6  C   UNL     1       0.596  10.962  19.429  0.00  0.00    +0.000 A 
ATOM      7  C   UNL     1       1.140  10.349  18.291  0.00  0.00    +0.000 A 
ATOM      8  C   UNL     1       1.668   9.069  18.360  0.00  0.00    +0.000 A 
ATOM      9  C   UNL     1       1.657   8.386  19.571  0.00  0.00    +0.000 A 
ATOM     10  C   UNL     1       1.126   8.986  20.717  0.00  0.00    +0.000 A 
ATOM     11  C   UNL     1       0.588  10.286  20.651  0.00  0.00    +0.000 A 
ATOM     12  C   UNL     1       0.029  10.886  21.891  0.00  0.00    +0.000 A 
ATOM     13  O   UNL     1       0.068  10.243  22.937  0.00  0.00    +0.000 OA
ATOM     14  C   UNL     1      -0.581  12.243  21.901  0.00  0.00    +0.000 A 
ATOM     15  C   UNL     1      -1.113  12.742  23.107  0.00  0.00    +0.000 A 
ATOM     16  C   UNL     1      -1.698  14.022  23.173  0.00  0.00    +0.000 A 
ATOM     17  C   UNL     1      -2.257  14.529  24.473  0.00  0.00    +0.000 C 
ENDROOT
BRANCH   9  18
ATOM     18  C   UNL     1       2.202   7.072  19.611  0.00  0.00    +0.000 C 
ATOM     19  C   UNL     1       2.629   5.950  19.622  0.00  0.00    +0.000 C 
BRANCH  19  20
ATOM     20  C   UNL     1       3.207   4.598  19.591  0.00  0.00    +0.000 C 
ATOM     21  C   UNL     1       2.688   3.760  20.769  0.00  0.00    +0.000 C 
ATOM     22  C   UNL     1       1.198   3.441  20.642  0.00  0.00    +0.000 C 
ATOM     23  C   UNL     1       0.889   2.766  19.308  0.00  0.00    +0.000 C 
ATOM     24  C   UNL     1       1.395   3.583  18.121  0.00  0.00    +0.000 C 
ATOM     25  C   UNL     1       2.883   3.912  18.259  0.00  0.00    +0.000 C 
BRANCH  20  26
ATOM     26  O   UNL     1       4.625   4.710  19.705  0.00  0.00    +0.000 OA
ATOM     27  H   UNL     1       4.894   5.464  19.152  0.00  0.00    +0.000 HD
ENDBRANCH  20  26
ENDBRANCH  19  20
ENDBRANCH   9  18
TORSDOF 3
ENDMDL
MODEL 4
REMARK VINA RESULT:      -7.9      1.598      1.959
REMARK  Name = 
REMARK  5 active torsions:
REMARK  status: ('A' for Active; 'I' for Inactive)
REMARK    1  A    between atoms: C_1  and  C_2
REMARK    2  A    between atoms: C_9  and  C_10
REMARK    3  A    between atoms: C_11  and  C_12
REMARK    4  A    between atoms: C_12  and  O_13
REMARK    5  A    between atoms: C_25  and  C_26
REMARK                            x       y       z     vdW  Elec       q    Type
REMARK                         _______ _______ _______ _____ _____    ______ ____
ROOT
ATOM      1  C   UNL     1      -0.178  16.086  19.871  0.00  0.00    +0.000 C 
ATOM      2  C   UNL     1       0.041  14.648  20.256  0.00  0.00    +0.000 A 
ATOM      3  C   UNL     1       0.570  13.780  19.296  0.00  0.00    +0.000 A 
ATOM      4  C   UNL     1       0.808  12.429  19.574  0.00  0.00    +0.000 A 
ATOM      5  S   UNL     1       1.476  11.508  18.230  0.00  0.00    +0.000 S 
ATOM      6  C   UNL     1       1.629   9.889  18.902  0.00  0.00    +0.000 A 
ATOM      7  C   UNL     1       2.137   8.928  18.015  0.00  0.00    +0.000 A 
ATOM      8  C   UNL     1       2.303   7.612  18.417  0.00  0.00    +0.000 A 
ATOM      9  C   UNL     1       1.961   7.240  19.712  0.00  0.00    +0.000 A 
ATOM     10  C   UNL     1       1.461   8.187  20.611  0.00  0.00    +0.000 A 
ATOM     11  C   UNL     1       1.291   9.526  20.208  0.00  0.00    +0.000 A 
ATOM     12  C   UNL     1       0.752  10.501  21.193  0.00  0.00    +0.000 A 
ATOM     13  O   UNL     1       0.489  10.118  22.330  0.00  0.00    +0.000 OA
ATOM     14  C   UNL     1       0.517  11.926  20.839  0.00  0.00    +0.000 A 
ATOM     15  C   UNL     1      -0.017  12.792  21.815  0.00  0.00    +0.000 A 
ATOM     16  C   UNL     1      -0.254  14.152  21.534  0.00  0.00    +0.000 A 
ATOM     17  C   UNL     1      -0.825  15.052  22.594  0.00  0.00    +0.000 C 
ENDROOT
BRANCH   9  18
ATOM     18  C   UNL     1       2.138   5.881  20.095  0.00  0.00    +0.000 C 
ATOM     19  C   UNL     1       2.273   4.744  20.456  0.00  0.00    +0.000 C 
BRANCH  19  20
ATOM     20  C   UNL     1       2.381   3.333  20.856  0.00  0.00    +0.000 C 
ATOM     21  C   UNL     1       1.179   2.530  20.338  0.00  0.00    +0.000 C 
ATOM     22  C   UNL     1       1.180   2.400  18.816  0.00  0.00    +0.000 C 
ATOM     23  C   UNL     1       2.493   1.810  18.311  0.00  0.00    +0.000 C 
ATOM     24  C   UNL     1       3.705   2.594  18.812  0.00  0.00    +0.000 C 
ATOM     25  C   UNL     1       3.693   2.733  20.336  0.00  0.00    +0.000 C 
BRANCH  20  26
ATOM     26  O   UNL     1       2.392   3.266  22.281  0.00  0.00    +0.000 OA
ATOM     27  H   UNL     1       3.073   3.889  22.589  0.00  0.00    +0.000 HD
ENDBRANCH  20  26
ENDBRANCH  19  20
ENDBRANCH   9  18
TORSDOF 3
ENDMDL
MODEL 5
REMARK VINA RESULT:      -7.8      1.983      3.136
REMARK  Name = 
REMARK  5 active torsions:
REMARK  status: ('A' for Active; 'I' for Inactive)
REMARK    1  A    between atoms: C_1  and  C_2
REMARK    2  A    between atoms: C_9  and  C_10
REMARK    3  A    between atoms: C_11  and  C_12
REMARK    4  A    between atoms: C_12  and  O_13
REMARK    5  A    between atoms: C_25  and  C_26
REMARK                            x       y       z     vdW  Elec       q    Type
REMARK                         _______ _______ _______ _____ _____    ______ ____
ROOT
ATOM      1  C   UNL     1      -2.112  16.983  20.859  0.00  0.00    +0.000 C 
ATOM      2  C   UNL     1      -1.398  15.713  20.485  0.00  0.00    +0.000 A 
ATOM      3  C   UNL     1      -1.559  14.596  21.311  0.00  0.00    +0.000 A 
ATOM      4  C   UNL     1      -0.933  13.375  21.032  0.00  0.00    +0.000 A 
ATOM      5  S   UNL     1      -1.265  12.095  22.195  0.00  0.00    +0.000 S 
ATOM      6  C   UNL     1      -0.330  10.743  21.567  0.00  0.00    +0.000 A 
ATOM      7  C   UNL     1      -0.406   9.569  22.330  0.00  0.00    +0.000 A 
ATOM      8  C   UNL     1       0.286   8.430  21.949  0.00  0.00    +0.000 A 
ATOM      9  C   UNL     1       1.066   8.454  20.799  0.00  0.00    +0.000 A 
ATOM     10  C   UNL     1       1.147   9.614  20.022  0.00  0.00    +0.000 A 
ATOM     11  C   UNL     1       0.445  10.772  20.405  0.00  0.00    +0.000 A 
ATOM     12  C   UNL     1       0.560  11.987  19.554  0.00  0.00    +0.000 A 
ATOM     13  O   UNL     1       1.246  11.940  18.536  0.00  0.00    +0.000 OA
ATOM     14  C   UNL     1      -0.127  13.258  19.902  0.00  0.00    +0.000 A 
ATOM     15  C   UNL     1       0.043  14.378  19.063  0.00  0.00    +0.000 A 
ATOM     16  C   UNL     1      -0.589  15.605  19.344  0.00  0.00    +0.000 A 
ATOM     17  C   UNL     1      -0.389  16.782  18.431  0.00  0.00    +0.000 C 
ENDROOT
BRANCH   9  18
ATOM     18  C   UNL     1       1.771   7.271  20.435  0.00  0.00    +0.000 C 
ATOM     19  C   UNL     1       2.341   6.272  20.093  0.00  0.00    +0.000 C 
BRANCH  19  20
ATOM     20  C   UNL     1       3.100   5.089  19.661  0.00  0.00    +0.000 C 
ATOM     21  C   UNL     1       2.640   3.840  20.428  0.00  0.00    +0.000 C 
ATOM     22  C   UNL     1       1.217   3.423  20.057  0.00  0.00    +0.000 C 
ATOM     23  C   UNL     1       1.073   3.227  18.551  0.00  0.00    +0.000 C 
ATOM     24  C   UNL     1       1.524   4.458  17.766  0.00  0.00    +0.000 C 
ATOM     25  C   UNL     1       2.944   4.880  18.150  0.00  0.00    +0.000 C 
BRANCH  20  26
ATOM     26  O   UNL     1       4.481   5.310  19.943  0.00  0.00    +0.000 OA
ATOM     27  H   UNL     1       4.879   4.439  20.111  0.00  0.00    +0.000 HD
ENDBRANCH  20  26
ENDBRANCH  19  20
ENDBRANCH   9  18
TORSDOF 3
ENDMDL
MODEL 6
REMARK VINA RESULT:      -7.6      1.482      2.291
REMARK  Name = 
REMARK  5 active torsions:
REMARK  status: ('A' for Active; 'I' for Inactive)
REMARK    1  A    between atoms: C_1  and  C_2
REMARK    2  A    between atoms: C_9  and  C_10
REMARK    3  A    between atoms: C_11  and  C_12
REMARK    4  A    between atoms: C_12  and  O_13
REMARK    5  A    between atoms: C_25  and  C_26
REMARK                            x       y       z     vdW  Elec       q    Type
REMARK                         _______ _______ _______ _____ _____    ______ ____
ROOT
ATOM      1  C   UNL     1      -2.770  15.194  22.505  0.00  0.00    +0.000 C 
ATOM      2  C   UNL     1      -2.136  13.859  22.224  0.00  0.00    +0.000 A 
ATOM      3  C   UNL     1      -1.316  13.740  21.098  0.00  0.00    +0.000 A 
ATOM      4  C   UNL     1      -0.686  12.535  20.767  0.00  0.00    +0.000 A 
ATOM      5  S   UNL     1       0.303  12.597  19.312  0.00  0.00    +0.000 S 
ATOM      6  C   UNL     1       0.916  10.952  19.184  0.00  0.00    +0.000 A 
ATOM      7  C   UNL     1       1.741  10.714  18.075  0.00  0.00    +0.000 A 
ATOM      8  C   UNL     1       2.286   9.459  17.854  0.00  0.00    +0.000 A 
ATOM      9  C   UNL     1       2.010   8.425  18.740  0.00  0.00    +0.000 A 
ATOM     10  C   UNL     1       1.195   8.646  19.855  0.00  0.00    +0.000 A 
ATOM     11  C   UNL     1       0.640   9.919  20.084  0.00  0.00    +0.000 A 
ATOM     12  C   UNL     1      -0.225  10.112  21.278  0.00  0.00    +0.000 A 
ATOM     13  O   UNL     1      -0.414   9.166  22.038  0.00  0.00    +0.000 OA
ATOM     14  C   UNL     1      -0.871  11.418  21.578  0.00  0.00    +0.000 A 
ATOM     15  C   UNL     1      -1.697  11.525  22.715  0.00  0.00    +0.000 A 
ATOM     16  C   UNL     1      -2.329  12.740  23.047  0.00  0.00    +0.000 A 
ATOM     17  C   UNL     1      -3.204  12.825  24.266  0.00  0.00    +0.000 C 
ENDROOT
BRANCH   9  18
ATOM     18  C   UNL     1       2.579   7.145  18.484  0.00  0.00    +0.000 C 
ATOM     19  C   UNL     1       3.038   6.065  18.232  0.00  0.00    +0.000 C 
BRANCH  19  20
ATOM     20  C   UNL     1       3.668   4.775  17.915  0.00  0.00    +0.000 C 
ATOM     21  C   UNL     1       4.527   4.888  16.647  0.00  0.00    +0.000 C 
ATOM     22  C   UNL     1       5.759   5.767  16.857  0.00  0.00    +0.000 C 
ATOM     23  C   UNL     1       6.590   5.283  18.042  0.00  0.00    +0.000 C 
ATOM     24  C   UNL     1       5.756   5.164  19.317  0.00  0.00    +0.000 C 
ATOM     25  C   UNL     1       4.517   4.293  19.098  0.00  0.00    +0.000 C 
BRANCH  20  26
ATOM     26  O   UNL     1       2.639   3.815  17.682  0.00  0.00    +0.000 OA
ATOM     27  H   UNL     1       1.838   4.145  18.124  0.00  0.00    +0.000 HD
ENDBRANCH  20  26
ENDBRANCH  19  20
ENDBRANCH   9  18
TORSDOF 3
ENDMDL
MODEL 7
REMARK VINA RESULT:      -7.5      2.446      3.390
REMARK  Name = 
REMARK  5 active torsions:
REMARK  status: ('A' for Active; 'I' for Inactive)
REMARK    1  A    between atoms: C_1  and  C_2
REMARK    2  A    between atoms: C_9  and  C_10
REMARK    3  A    between atoms: C_11  and  C_12
REMARK    4  A    between atoms: C_12  and  O_13
REMARK    5  A    between atoms: C_25  and  C_26
REMARK                            x       y       z     vdW  Elec       q    Type
REMARK                         _______ _______ _______ _____ _____    ______ ____
ROOT
ATOM      1  C   UNL     1      -3.118  13.388  23.490  0.00  0.00    +0.000 C 
ATOM      2  C   UNL     1      -2.179  12.806  22.469  0.00  0.00    +0.000 A 
ATOM      3  C   UNL     1      -1.693  11.513  22.681  0.00  0.00    +0.000 A 
ATOM      4  C   UNL     1      -0.819  10.895  21.778  0.00  0.00    +0.000 A 
ATOM      5  S   UNL     1      -0.324   9.266  22.228  0.00  0.00    +0.000 S 
ATOM      6  C   UNL     1       0.758   8.809  20.918  0.00  0.00    +0.000 A 
ATOM      7  C   UNL     1       1.320   7.530  21.037  0.00  0.00    +0.000 A 
ATOM      8  C   UNL     1       2.193   7.048  20.075  0.00  0.00    +0.000 A 
ATOM      9  C   UNL     1       2.517   7.842  18.981  0.00  0.00    +0.000 A 
ATOM     10  C   UNL     1       1.960   9.118  18.843  0.00  0.00    +0.000 A 
ATOM     11  C   UNL     1       1.072   9.611  19.818  0.00  0.00    +0.000 A 
ATOM     12  C   UNL     1       0.504  10.974  19.636  0.00  0.00    +0.000 A 
ATOM     13  O   UNL     1       0.810  11.620  18.637  0.00  0.00    +0.000 OA
ATOM     14  C   UNL     1      -0.419  11.579  20.632  0.00  0.00    +0.000 A 
ATOM     15  C   UNL     1      -0.903  12.884  20.409  0.00  0.00    +0.000 A 
ATOM     16  C   UNL     1      -1.784  13.502  21.318  0.00  0.00    +0.000 A 
ATOM     17  C   UNL     1      -2.283  14.896  21.054  0.00  0.00    +0.000 C 
ENDROOT
BRANCH   9  18
ATOM     18  C   UNL     1       3.421   7.323  18.012  0.00  0.00    +0.000 C 
ATOM     19  C   UNL     1       4.207   6.920  17.199  0.00  0.00    +0.000 C 
BRANCH  19  20
ATOM     20  C   UNL     1       5.191   6.375  16.251  0.00  0.00    +0.000 C 
ATOM     21  C   UNL     1       6.618   6.750  16.677  0.00  0.00    +0.000 C 
ATOM     22  C   UNL     1       7.041   6.051  17.969  0.00  0.00    +0.000 C 
ATOM     23  C   UNL     1       6.881   4.538  17.857  0.00  0.00    +0.000 C 
ATOM     24  C   UNL     1       5.467   4.140  17.436  0.00  0.00    +0.000 C 
ATOM     25  C   UNL     1       5.043   4.852  16.150  0.00  0.00    +0.000 C 
BRANCH  20  26
ATOM     26  O   UNL     1       4.939   6.936  14.964  0.00  0.00    +0.000 OA
ATOM     27  H   UNL     1       4.870   6.194  14.340  0.00  0.00    +0.000 HD
ENDBRANCH  20  26
ENDBRANCH  19  20
ENDBRANCH   9  18
TORSDOF 3
ENDMDL
MODEL 8
REMARK VINA RESULT:      -7.5      8.005      9.289
REMARK  Name = 
REMARK  5 active torsions:
REMARK  status: ('A' for Active; 'I' for Inactive)
REMARK    1  A    between atoms: C_1  and  C_2
REMARK    2  A    between atoms: C_9  and  C_10
REMARK    3  A    between atoms: C_11  and  C_12
REMARK    4  A    between atoms: C_12  and  O_13
REMARK    5  A    between atoms: C_25  and  C_26
REMARK                            x       y       z     vdW  Elec       q    Type
REMARK                         _______ _______ _______ _____ _____    ______ ____
ROOT
ATOM      1  C   UNL     1      11.338  18.063  20.116  0.00  0.00    +0.000 C 
ATOM      2  C   UNL     1      10.720  16.847  19.481  0.00  0.00    +0.000 A 
ATOM      3  C   UNL     1      10.798  15.631  20.166  0.00  0.00    +0.000 A 
ATOM      4  C   UNL     1      10.245  14.454  19.647  0.00  0.00    +0.000 A 
ATOM      5  S   UNL     1      10.452  13.032  20.665  0.00  0.00    +0.000 S 
ATOM      6  C   UNL     1       9.676  11.762  19.726  0.00  0.00    +0.000 A 
ATOM      7  C   UNL     1       9.710  10.490  20.315  0.00  0.00    +0.000 A 
ATOM      8  C   UNL     1       9.139   9.399  19.678  0.00  0.00    +0.000 A 
ATOM      9  C   UNL     1       8.527   9.569  18.442  0.00  0.00    +0.000 A 
ATOM     10  C   UNL     1       8.477  10.833  17.844  0.00  0.00    +0.000 A 
ATOM     11  C   UNL     1       9.055  11.943  18.488  0.00  0.00    +0.000 A 
ATOM     12  C   UNL     1       8.985  13.269  17.817  0.00  0.00    +0.000 A 
ATOM     13  O   UNL     1       8.410  13.361  16.736  0.00  0.00    +0.000 OA
ATOM     14  C   UNL     1       9.594  14.486  18.416  0.00  0.00    +0.000 A 
ATOM     15  C   UNL     1       9.510  15.706  17.716  0.00  0.00    +0.000 A 
ATOM     16  C   UNL     1      10.065  16.890  18.241  0.00  0.00    +0.000 A 
ATOM     17  C   UNL     1       9.960  18.177  17.472  0.00  0.00    +0.000 C 
ENDROOT
BRANCH   9  18
ATOM     18  C   UNL     1       7.953   8.430  17.808  0.00  0.00    +0.000 C 
ATOM     19  C   UNL     1       7.480   7.448  17.308  0.00  0.00    +0.000 C 
BRANCH  19  20
ATOM     20  C   UNL     1       6.832   6.273  16.704  0.00  0.00    +0.000 C 
ATOM     21  C   UNL     1       6.854   5.083  17.675  0.00  0.00    +0.000 C 
ATOM     22  C   UNL     1       5.961   5.311  18.894  0.00  0.00    +0.000 C 
ATOM     23  C   UNL     1       4.534   5.654  18.477  0.00  0.00    +0.000 C 
ATOM     24  C   UNL     1       4.486   6.837  17.512  0.00  0.00    +0.000 C 
ATOM     25  C   UNL     1       5.392   6.610  16.300  0.00  0.00    +0.000 C 
BRANCH  20  26
ATOM     26  O   UNL     1       7.556   5.913  15.529  0.00  0.00    +0.000 OA
ATOM     27  H   UNL     1       7.531   6.682  14.934  0.00  0.00    +0.000 HD
ENDBRANCH  20  26
ENDBRANCH  19  20
ENDBRANCH   9  18
TORSDOF 3
ENDMDL
MODEL 9
REMARK VINA RESULT:      -7.4      2.251      3.512
REMARK  Name = 
REMARK  5 active torsions:
REMARK  status: ('A' for Active; 'I' for Inactive)
REMARK    1  A    between atoms: C_1  and  C_2
REMARK    2  A    between atoms: C_9  and  C_10
REMARK    3  A    between atoms: C_11  and  C_12
REMARK    4  A    between atoms: C_12  and  O_13
REMARK    5  A    between atoms: C_25  and  C_26
REMARK                            x       y       z     vdW  Elec       q    Type
REMARK                         _______ _______ _______ _____ _____    ______ ____
ROOT
ATOM      1  C   UNL     1      -1.826  14.773  21.081  0.00  0.00    +0.000 C 
ATOM      2  C   UNL     1      -0.970  13.705  20.456  0.00  0.00    +0.000 A 
ATOM      3  C   UNL     1      -0.921  12.452  21.074  0.00  0.00    +0.000 A 
ATOM      4  C   UNL     1      -0.153  11.402  20.555  0.00  0.00    +0.000 A 
ATOM      5  S   UNL     1      -0.229   9.907  21.482  0.00  0.00    +0.000 S 
ATOM      6  C   UNL     1       0.839   8.835  20.584  0.00  0.00    +0.000 A 
ATOM      7  C   UNL     1       0.976   7.549  21.127  0.00  0.00    +0.000 A 
ATOM      8  C   UNL     1       1.792   6.608  20.519  0.00  0.00    +0.000 A 
ATOM      9  C   UNL     1       2.483   6.942  19.360  0.00  0.00    +0.000 A 
ATOM     10  C   UNL     1       2.352   8.218  18.802  0.00  0.00    +0.000 A 
ATOM     11  C   UNL     1       1.524   9.177  19.415  0.00  0.00    +0.000 A 
ATOM     12  C   UNL     1       1.415  10.523  18.792  0.00  0.00    +0.000 A 
ATOM     13  O   UNL     1       2.032  10.753  17.755  0.00  0.00    +0.000 OA
ATOM     14  C   UNL     1       0.584  11.601  19.391  0.00  0.00    +0.000 A 
ATOM     15  C   UNL     1       0.543  12.861  18.760  0.00  0.00    +0.000 A 
ATOM     16  C   UNL     1      -0.232  13.915  19.282  0.00  0.00    +0.000 A 
ATOM     17  C   UNL     1      -0.257  15.248  18.587  0.00  0.00    +0.000 C 
ENDROOT
BRANCH   9  18
ATOM     18  C   UNL     1       3.318   5.957  18.762  0.00  0.00    +0.000 C 
ATOM     19  C   UNL     1       4.000   5.130  18.221  0.00  0.00    +0.000 C 
BRANCH  19  20
ATOM     20  C   UNL     1       4.892   4.166  17.561  0.00  0.00    +0.000 C 
ATOM     21  C   UNL     1       4.843   4.338  16.035  0.00  0.00    +0.000 C 
ATOM     22  C   UNL     1       5.458   5.661  15.580  0.00  0.00    +0.000 C 
ATOM     23  C   UNL     1       6.883   5.818  16.105  0.00  0.00    +0.000 C 
ATOM     24  C   UNL     1       6.957   5.652  17.622  0.00  0.00    +0.000 C 
ATOM     25  C   UNL     1       6.328   4.333  18.074  0.00  0.00    +0.000 C 
BRANCH  20  26
ATOM     26  O   UNL     1       4.451   2.848  17.882  0.00  0.00    +0.000 OA
ATOM     27  H   UNL     1       4.413   2.791  18.853  0.00  0.00    +0.000 HD
ENDBRANCH  20  26
ENDBRANCH  19  20
ENDBRANCH   9  18
TORSDOF 3
ENDMDL
