MODEL 1
REMARK VINA RESULT:      -6.4      0.000      0.000
REMARK  Name = 
REMARK  6 active torsions:
REMARK  status: ('A' for Active; 'I' for Inactive)
REMARK    1  A    between atoms: C_1  and  S_2
REMARK    2  A    between atoms: S_2  and  C_3
REMARK    3  A    between atoms: C_5  and  N_6
REMARK    4  A    between atoms: C_7  and  C_8
REMARK    5  A    between atoms: N_10  and  C_11
REMARK    6  A    between atoms: C_14  and  N_15
REMARK                            x       y       z     vdW  Elec       q    Type
REMARK                         _______ _______ _______ _____ _____    ______ ____
ROOT
ATOM      1  C   UNL     1       2.030   8.544  18.362  0.00  0.00    +0.000 C 
ATOM      2  O   UNL     1       2.121   8.979  17.213  0.00  0.00    +0.000 OA
ATOM      3  N   UNL     1       2.713   7.411  18.803  0.00  0.00    +0.000 N 
ATOM      4  H   UNL     1       2.417   7.023  19.694  0.00  0.00    +0.000 HD
ENDROOT
BRANCH   3   5
ATOM      5  C   UNL     1       3.643   6.669  18.034  0.00  0.00    +0.000 A 
ATOM      6  C   UNL     1       4.847   7.213  17.570  0.00  0.00    +0.000 A 
ATOM      7  C   UNL     1       5.740   6.463  16.801  0.00  0.00    +0.000 A 
ATOM      8  C   UNL     1       5.432   5.139  16.493  0.00  0.00    +0.000 A 
ATOM      9  C   UNL     1       4.240   4.566  16.955  0.00  0.00    +0.000 A 
ATOM     10  C   UNL     1       3.354   5.330  17.733  0.00  0.00    +0.000 A 
BRANCH   8  11
ATOM     11  N   UNL     1       6.372   4.349  15.687  0.00  0.00    +0.000 N 
ATOM     12  O   UNL     1       5.945   3.317  15.147  0.00  0.00    +0.000 OA
ATOM     13  O   UNL     1       7.536   4.761  15.590  0.00  0.00    +0.000 OA
ENDBRANCH   8  11
ENDBRANCH   3   5
BRANCH   1  17
ATOM     14  C   UNL     1       0.002   9.737  21.381  0.00  0.00    +0.000 A 
ATOM     15  N   UNL     1      -0.499  10.438  20.389  0.00  0.00    +0.000 NA
ATOM     16  C   UNL     1       0.143  10.100  19.226  0.00  0.00    +0.000 A 
ATOM     17  C   UNL     1       1.146   9.161  19.325  0.00  0.00    +0.000 A 
ATOM     18  S   UNL     1       1.265   8.662  20.972  0.00  0.00    +0.000 S 
BRANCH  16  19
ATOM     19  N   UNL     1      -0.311  10.690  18.105  0.00  0.00    +0.000 N 
ATOM     20  H   UNL     1       0.425  11.105  17.536  0.00  0.00    +0.000 HD
ATOM     21  H   UNL     1      -1.100  11.328  18.174  0.00  0.00    +0.000 HD
ENDBRANCH  16  19
BRANCH  14  23
ATOM     22  C   UNL     1      -1.435  11.448  22.966  0.00  0.00    +0.000 C 
ATOM     23  S   UNL     1      -0.571   9.870  23.030  0.00  0.00    +0.000 S 
ENDBRANCH  14  23
ENDBRANCH   1  17
TORSDOF 5
ENDMDL
MODEL 2
REMARK VINA RESULT:      -6.2      2.721      3.172
REMARK  Name = 
REMARK  6 active torsions:
REMARK  status: ('A' for Active; 'I' for Inactive)
REMARK    1  A    between atoms: C_1  and  S_2
REMARK    2  A    between atoms: S_2  and  C_3
REMARK    3  A    between atoms: C_5  and  N_6
REMARK    4  A    between atoms: C_7  and  C_8
REMARK    5  A    between atoms: N_10  and  C_11
REMARK    6  A    between atoms: C_14  and  N_15
REMARK                            x       y       z     vdW  Elec       q    Type
REMARK                         _______ _______ _______ _____ _____    ______ ____
ROOT
ATOM      1  C   UNL     1       1.809   8.128  19.132  0.00  0.00    +0.000 C 
ATOM      2  O   UNL     1       1.999   7.835  17.950  0.00  0.00    +0.000 OA
ATOM      3  N   UNL     1       2.015   7.232  20.180  0.00  0.00    +0.000 N 
ATOM      4  H   UNL     1       1.641   7.502  21.085  0.00  0.00    +0.000 HD
ENDROOT
BRANCH   3   5
ATOM      5  C   UNL     1       2.532   5.921  20.043  0.00  0.00    +0.000 A 
ATOM      6  C   UNL     1       1.849   4.786  20.500  0.00  0.00    +0.000 A 
ATOM      7  C   UNL     1       2.389   3.505  20.365  0.00  0.00    +0.000 A 
ATOM      8  C   UNL     1       3.632   3.346  19.755  0.00  0.00    +0.000 A 
ATOM      9  C   UNL     1       4.331   4.463  19.277  0.00  0.00    +0.000 A 
ATOM     10  C   UNL     1       3.774   5.745  19.414  0.00  0.00    +0.000 A 
BRANCH   8  11
ATOM     11  N   UNL     1       4.198   1.999  19.610  0.00  0.00    +0.000 N 
ATOM     12  O   UNL     1       3.761   1.284  18.695  0.00  0.00    +0.000 OA
ATOM     13  O   UNL     1       5.082   1.656  20.407  0.00  0.00    +0.000 OA
ENDBRANCH   8  11
ENDBRANCH   3   5
BRANCH   1  17
ATOM     14  C   UNL     1       0.160  11.219  20.674  0.00  0.00    +0.000 A 
ATOM     15  N   UNL     1       0.715  11.691  19.580  0.00  0.00    +0.000 NA
ATOM     16  C   UNL     1       1.346  10.671  18.916  0.00  0.00    +0.000 A 
ATOM     17  C   UNL     1       1.296   9.427  19.505  0.00  0.00    +0.000 A 
ATOM     18  S   UNL     1       0.381   9.551  20.962  0.00  0.00    +0.000 S 
BRANCH  16  19
ATOM     19  N   UNL     1       1.905  10.990  17.735  0.00  0.00    +0.000 N 
ATOM     20  H   UNL     1       2.357  10.201  17.272  0.00  0.00    +0.000 HD
ATOM     21  H   UNL     1       2.501  11.812  17.681  0.00  0.00    +0.000 HD
ENDBRANCH  16  19
BRANCH  14  23
ATOM     22  C   UNL     1      -1.191  11.006  23.048  0.00  0.00    +0.000 C 
ATOM     23  S   UNL     1      -0.758  12.214  21.785  0.00  0.00    +0.000 S 
ENDBRANCH  14  23
ENDBRANCH   1  17
TORSDOF 5
ENDMDL
MODEL 3
REMARK VINA RESULT:      -6.1      3.814      8.449
REMARK  Name = 
REMARK  6 active torsions:
REMARK  status: ('A' for Active; 'I' for Inactive)
REMARK    1  A    between atoms: C_1  and  S_2
REMARK    2  A    between atoms: S_2  and  C_3
REMARK    3  A    between atoms: C_5  and  N_6
REMARK    4  A    between atoms: C_7  and  C_8
REMARK    5  A    between atoms: N_10  and  C_11
REMARK    6  A    between atoms: C_14  and  N_15
REMARK                            x       y       z     vdW  Elec       q    Type
REMARK                         _______ _______ _______ _____ _____    ______ ____
ROOT
ATOM      1  C   UNL     1       5.013   5.930  18.041  0.00  0.00    +0.000 C 
ATOM      2  O   UNL     1       5.135   5.594  19.220  0.00  0.00    +0.000 OA
ATOM      3  N   UNL     1       3.983   6.754  17.588  0.00  0.00    +0.000 N 
ATOM      4  H   UNL     1       3.855   6.805  16.581  0.00  0.00    +0.000 HD
ENDROOT
BRANCH   3   5
ATOM      5  C   UNL     1       3.005   7.364  18.410  0.00  0.00    +0.000 A 
ATOM      6  C   UNL     1       2.590   6.813  19.629  0.00  0.00    +0.000 A 
ATOM      7  C   UNL     1       1.612   7.429  20.414  0.00  0.00    +0.000 A 
ATOM      8  C   UNL     1       1.039   8.623  19.981  0.00  0.00    +0.000 A 
ATOM      9  C   UNL     1       1.445   9.203  18.772  0.00  0.00    +0.000 A 
ATOM     10  C   UNL     1       2.434   8.577  17.995  0.00  0.00    +0.000 A 
BRANCH   8  11
ATOM     11  N   UNL     1       0.014   9.273  20.808  0.00  0.00    +0.000 N 
ATOM     12  O   UNL     1      -0.452   8.630  21.762  0.00  0.00    +0.000 OA
ATOM     13  O   UNL     1      -0.324  10.426  20.507  0.00  0.00    +0.000 OA
ENDBRANCH   8  11
ENDBRANCH   3   5
BRANCH   1  17
ATOM     14  C   UNL     1       6.902   4.839  14.896  0.00  0.00    +0.000 A 
ATOM     15  N   UNL     1       7.693   4.448  15.870  0.00  0.00    +0.000 NA
ATOM     16  C   UNL     1       7.125   4.776  17.073  0.00  0.00    +0.000 A 
ATOM     17  C   UNL     1       5.917   5.435  17.027  0.00  0.00    +0.000 A 
ATOM     18  S   UNL     1       5.464   5.626  15.373  0.00  0.00    +0.000 S 
BRANCH  16  19
ATOM     19  N   UNL     1       7.790   4.375  18.172  0.00  0.00    +0.000 N 
ATOM     20  H   UNL     1       7.961   5.124  18.841  0.00  0.00    +0.000 HD
ATOM     21  H   UNL     1       8.630   3.813  18.057  0.00  0.00    +0.000 HD
ENDBRANCH  16  19
BRANCH  14  23
ATOM     22  C   UNL     1       5.912   3.507  12.717  0.00  0.00    +0.000 C 
ATOM     23  S   UNL     1       7.272   4.581  13.204  0.00  0.00    +0.000 S 
ENDBRANCH  14  23
ENDBRANCH   1  17
TORSDOF 5
ENDMDL
MODEL 4
REMARK VINA RESULT:      -6.1      0.776      1.489
REMARK  Name = 
REMARK  6 active torsions:
REMARK  status: ('A' for Active; 'I' for Inactive)
REMARK    1  A    between atoms: C_1  and  S_2
REMARK    2  A    between atoms: S_2  and  C_3
REMARK    3  A    between atoms: C_5  and  N_6
REMARK    4  A    between atoms: C_7  and  C_8
REMARK    5  A    between atoms: N_10  and  C_11
REMARK    6  A    between atoms: C_14  and  N_15
REMARK                            x       y       z     vdW  Elec       q    Type
REMARK                         _______ _______ _______ _____ _____    ______ ____
ROOT
ATOM      1  C   UNL     1       1.938   8.725  18.171  0.00  0.00    +0.000 C 
ATOM      2  O   UNL     1       2.274   9.173  17.074  0.00  0.00    +0.000 OA
ATOM      3  N   UNL     1       2.411   7.514  18.675  0.00  0.00    +0.000 N 
ATOM      4  H   UNL     1       1.924   7.141  19.485  0.00  0.00    +0.000 HD
ENDROOT
BRANCH   3   5
ATOM      5  C   UNL     1       3.376   6.690  18.046  0.00  0.00    +0.000 A 
ATOM      6  C   UNL     1       3.152   5.334  17.775  0.00  0.00    +0.000 A 
ATOM      7  C   UNL     1       4.127   4.540  17.167  0.00  0.00    +0.000 A 
ATOM      8  C   UNL     1       5.351   5.108  16.815  0.00  0.00    +0.000 A 
ATOM      9  C   UNL     1       5.597   6.465  17.064  0.00  0.00    +0.000 A 
ATOM     10  C   UNL     1       4.604   7.253  17.670  0.00  0.00    +0.000 A 
BRANCH   8  11
ATOM     11  N   UNL     1       6.375   4.274  16.173  0.00  0.00    +0.000 N 
ATOM     12  O   UNL     1       7.558   4.460  16.497  0.00  0.00    +0.000 OA
ATOM     13  O   UNL     1       5.998   3.431  15.348  0.00  0.00    +0.000 OA
ENDBRANCH   8  11
ENDBRANCH   3   5
BRANCH   1  17
ATOM     14  C   UNL     1      -0.250  10.284  20.898  0.00  0.00    +0.000 A 
ATOM     15  N   UNL     1      -0.849  10.652  19.788  0.00  0.00    +0.000 NA
ATOM     16  C   UNL     1      -0.162  10.148  18.714  0.00  0.00    +0.000 A 
ATOM     17  C   UNL     1       0.971   9.416  18.994  0.00  0.00    +0.000 A 
ATOM     18  S   UNL     1       1.161   9.340  20.707  0.00  0.00    +0.000 S 
BRANCH  16  19
ATOM     19  N   UNL     1      -0.698  10.386  17.503  0.00  0.00    +0.000 N 
ATOM     20  H   UNL     1      -1.232   9.601  17.133  0.00  0.00    +0.000 HD
ATOM     21  H   UNL     1      -0.106  10.777  16.774  0.00  0.00    +0.000 HD
ENDBRANCH  16  19
BRANCH  14  23
ATOM     22  C   UNL     1       0.005   9.494  23.509  0.00  0.00    +0.000 C 
ATOM     23  S   UNL     1      -0.839  10.715  22.489  0.00  0.00    +0.000 S 
ENDBRANCH  14  23
ENDBRANCH   1  17
TORSDOF 5
ENDMDL
MODEL 5
REMARK VINA RESULT:      -6.1      2.794      3.130
REMARK  Name = 
REMARK  6 active torsions:
REMARK  status: ('A' for Active; 'I' for Inactive)
REMARK    1  A    between atoms: C_1  and  S_2
REMARK    2  A    between atoms: S_2  and  C_3
REMARK    3  A    between atoms: C_5  and  N_6
REMARK    4  A    between atoms: C_7  and  C_8
REMARK    5  A    between atoms: N_10  and  C_11
REMARK    6  A    between atoms: C_14  and  N_15
REMARK                            x       y       z     vdW  Elec       q    Type
REMARK                         _______ _______ _______ _____ _____    ______ ____
ROOT
ATOM      1  C   UNL     1       1.811   8.217  19.043  0.00  0.00    +0.000 C 
ATOM      2  O   UNL     1       2.016   7.922  17.864  0.00  0.00    +0.000 OA
ATOM      3  N   UNL     1       2.039   7.336  20.098  0.00  0.00    +0.000 N 
ATOM      4  H   UNL     1       1.651   7.600  20.999  0.00  0.00    +0.000 HD
ENDROOT
BRANCH   3   5
ATOM      5  C   UNL     1       2.597   6.040  19.973  0.00  0.00    +0.000 A 
ATOM      6  C   UNL     1       3.851   5.810  19.392  0.00  0.00    +0.000 A 
ATOM      7  C   UNL     1       4.372   4.519  19.268  0.00  0.00    +0.000 A 
ATOM      8  C   UNL     1       3.634   3.435  19.737  0.00  0.00    +0.000 A 
ATOM      9  C   UNL     1       2.382   3.638  20.334  0.00  0.00    +0.000 A 
ATOM     10  C   UNL     1       1.873   4.942  20.459  0.00  0.00    +0.000 A 
BRANCH   8  11
ATOM     11  N   UNL     1       4.183   2.079  19.610  0.00  0.00    +0.000 N 
ATOM     12  O   UNL     1       5.065   1.734  20.411  0.00  0.00    +0.000 OA
ATOM     13  O   UNL     1       3.730   1.356  18.711  0.00  0.00    +0.000 OA
ENDBRANCH   8  11
ENDBRANCH   3   5
BRANCH   1  17
ATOM     14  C   UNL     1       0.001  11.254  20.512  0.00  0.00    +0.000 A 
ATOM     15  N   UNL     1       0.653  11.761  19.490  0.00  0.00    +0.000 NA
ATOM     16  C   UNL     1       1.351  10.764  18.859  0.00  0.00    +0.000 A 
ATOM     17  C   UNL     1       1.255   9.503  19.403  0.00  0.00    +0.000 A 
ATOM     18  S   UNL     1       0.206   9.578  20.771  0.00  0.00    +0.000 S 
BRANCH  16  19
ATOM     19  N   UNL     1       2.017  11.120  17.745  0.00  0.00    +0.000 N 
ATOM     20  H   UNL     1       2.603  10.377  17.365  0.00  0.00    +0.000 HD
ATOM     21  H   UNL     1       2.526  12.001  17.740  0.00  0.00    +0.000 HD
ENDBRANCH  16  19
BRANCH  14  23
ATOM     22  C   UNL     1      -2.190  12.892  20.368  0.00  0.00    +0.000 C 
ATOM     23  S   UNL     1      -1.025  12.210  21.559  0.00  0.00    +0.000 S 
ENDBRANCH  14  23
ENDBRANCH   1  17
TORSDOF 5
ENDMDL
MODEL 6
REMARK VINA RESULT:      -6.0      2.745      3.052
REMARK  Name = 
REMARK  6 active torsions:
REMARK  status: ('A' for Active; 'I' for Inactive)
REMARK    1  A    between atoms: C_1  and  S_2
REMARK    2  A    between atoms: S_2  and  C_3
REMARK    3  A    between atoms: C_5  and  N_6
REMARK    4  A    between atoms: C_7  and  C_8
REMARK    5  A    between atoms: N_10  and  C_11
REMARK    6  A    between atoms: C_14  and  N_15
REMARK                            x       y       z     vdW  Elec       q    Type
REMARK                         _______ _______ _______ _____ _____    ______ ____
ROOT
ATOM      1  C   UNL     1       1.741   8.099  19.682  0.00  0.00    +0.000 C 
ATOM      2  O   UNL     1       2.277   8.073  18.573  0.00  0.00    +0.000 OA
ATOM      3  N   UNL     1       1.717   7.000  20.540  0.00  0.00    +0.000 N 
ATOM      4  H   UNL     1       1.084   7.060  21.333  0.00  0.00    +0.000 HD
ENDROOT
BRANCH   3   5
ATOM      5  C   UNL     1       2.353   5.759  20.295  0.00  0.00    +0.000 A 
ATOM      6  C   UNL     1       3.581   5.658  19.629  0.00  0.00    +0.000 A 
ATOM      7  C   UNL     1       4.181   4.419  19.387  0.00  0.00    +0.000 A 
ATOM      8  C   UNL     1       3.549   3.256  19.823  0.00  0.00    +0.000 A 
ATOM      9  C   UNL     1       2.326   3.330  20.503  0.00  0.00    +0.000 A 
ATOM     10  C   UNL     1       1.738   4.582  20.746  0.00  0.00    +0.000 A 
BRANCH   8  11
ATOM     11  N   UNL     1       4.181   1.954  19.572  0.00  0.00    +0.000 N 
ATOM     12  O   UNL     1       3.758   1.281  18.619  0.00  0.00    +0.000 OA
ATOM     13  O   UNL     1       5.102   1.606  20.324  0.00  0.00    +0.000 OA
ENDBRANCH   8  11
ENDBRANCH   3   5
BRANCH   1  17
ATOM     14  C   UNL     1      -0.234  10.828  21.499  0.00  0.00    +0.000 A 
ATOM     15  N   UNL     1       0.042  11.382  20.339  0.00  0.00    +0.000 NA
ATOM     16  C   UNL     1       0.754  10.495  19.573  0.00  0.00    +0.000 A 
ATOM     17  C   UNL     1       1.043   9.277  20.146  0.00  0.00    +0.000 A 
ATOM     18  S   UNL     1       0.356   9.242  21.728  0.00  0.00    +0.000 S 
BRANCH  16  19
ATOM     19  N   UNL     1       1.051  10.897  18.324  0.00  0.00    +0.000 N 
ATOM     20  H   UNL     1       0.268  10.825  17.675  0.00  0.00    +0.000 HD
ATOM     21  H   UNL     1       1.899  10.546  17.886  0.00  0.00    +0.000 HD
ENDBRANCH  16  19
BRANCH  14  23
ATOM     22  C   UNL     1      -1.555  13.190  21.927  0.00  0.00    +0.000 C 
ATOM     23  S   UNL     1      -1.151  11.640  22.750  0.00  0.00    +0.000 S 
ENDBRANCH  14  23
ENDBRANCH   1  17
TORSDOF 5
ENDMDL
MODEL 7
REMARK VINA RESULT:      -6.0      3.620      8.260
REMARK  Name = 
REMARK  6 active torsions:
REMARK  status: ('A' for Active; 'I' for Inactive)
REMARK    1  A    between atoms: C_1  and  S_2
REMARK    2  A    between atoms: S_2  and  C_3
REMARK    3  A    between atoms: C_5  and  N_6
REMARK    4  A    between atoms: C_7  and  C_8
REMARK    5  A    between atoms: N_10  and  C_11
REMARK    6  A    between atoms: C_14  and  N_15
REMARK                            x       y       z     vdW  Elec       q    Type
REMARK                         _______ _______ _______ _____ _____    ______ ____
ROOT
ATOM      1  C   UNL     1       2.546   5.986  18.867  0.00  0.00    +0.000 C 
ATOM      2  O   UNL     1       1.774   5.370  19.603  0.00  0.00    +0.000 OA
ATOM      3  N   UNL     1       2.565   7.378  18.778  0.00  0.00    +0.000 N 
ATOM      4  H   UNL     1       3.090   7.774  18.004  0.00  0.00    +0.000 HD
ENDROOT
BRANCH   3   5
ATOM      5  C   UNL     1       1.773   8.256  19.558  0.00  0.00    +0.000 A 
ATOM      6  C   UNL     1       1.109   9.362  19.013  0.00  0.00    +0.000 A 
ATOM      7  C   UNL     1       0.346  10.221  19.808  0.00  0.00    +0.000 A 
ATOM      8  C   UNL     1       0.235   9.971  21.175  0.00  0.00    +0.000 A 
ATOM      9  C   UNL     1       0.880   8.864  21.744  0.00  0.00    +0.000 A 
ATOM     10  C   UNL     1       1.638   8.005  20.931  0.00  0.00    +0.000 A 
BRANCH   8  11
ATOM     11  N   UNL     1      -0.570  10.871  22.010  0.00  0.00    +0.000 N 
ATOM     12  O   UNL     1      -1.347  11.650  21.437  0.00  0.00    +0.000 OA
ATOM     13  O   UNL     1      -0.428  10.798  23.239  0.00  0.00    +0.000 OA
ENDBRANCH   8  11
ENDBRANCH   3   5
BRANCH   1  17
ATOM     14  C   UNL     1       5.341   4.743  16.567  0.00  0.00    +0.000 A 
ATOM     15  N   UNL     1       4.508   3.727  16.600  0.00  0.00    +0.000 NA
ATOM     16  C   UNL     1       3.439   4.044  17.397  0.00  0.00    +0.000 A 
ATOM     17  C   UNL     1       3.459   5.287  17.991  0.00  0.00    +0.000 A 
ATOM     18  S   UNL     1       4.894   6.105  17.494  0.00  0.00    +0.000 S 
BRANCH  16  19
ATOM     19  N   UNL     1       2.462   3.122  17.474  0.00  0.00    +0.000 N 
ATOM     20  H   UNL     1       2.358   2.715  18.403  0.00  0.00    +0.000 HD
ATOM     21  H   UNL     1       2.423   2.392  16.768  0.00  0.00    +0.000 HD
ENDBRANCH  16  19
BRANCH  14  23
ATOM     22  C   UNL     1       6.263   3.961  14.108  0.00  0.00    +0.000 C 
ATOM     23  S   UNL     1       6.824   4.731  15.635  0.00  0.00    +0.000 S 
ENDBRANCH  14  23
ENDBRANCH   1  17
TORSDOF 5
ENDMDL
MODEL 8
REMARK VINA RESULT:      -5.9      3.591      8.308
REMARK  Name = 
REMARK  6 active torsions:
REMARK  status: ('A' for Active; 'I' for Inactive)
REMARK    1  A    between atoms: C_1  and  S_2
REMARK    2  A    between atoms: S_2  and  C_3
REMARK    3  A    between atoms: C_5  and  N_6
REMARK    4  A    between atoms: C_7  and  C_8
REMARK    5  A    between atoms: N_10  and  C_11
REMARK    6  A    between atoms: C_14  and  N_15
REMARK                            x       y       z     vdW  Elec       q    Type
REMARK                         _______ _______ _______ _____ _____    ______ ____
ROOT
ATOM      1  C   UNL     1       2.705   5.816  18.308  0.00  0.00    +0.000 C 
ATOM      2  O   UNL     1       1.736   5.202  18.757  0.00  0.00    +0.000 OA
ATOM      3  N   UNL     1       2.877   7.190  18.472  0.00  0.00    +0.000 N 
ATOM      4  H   UNL     1       3.593   7.627  17.898  0.00  0.00    +0.000 HD
ENDROOT
BRANCH   3   5
ATOM      5  C   UNL     1       2.024   8.035  19.222  0.00  0.00    +0.000 A 
ATOM      6  C   UNL     1       1.767   7.834  20.584  0.00  0.00    +0.000 A 
ATOM      7  C   UNL     1       0.909   8.675  21.298  0.00  0.00    +0.000 A 
ATOM      8  C   UNL     1       0.298   9.744  20.644  0.00  0.00    +0.000 A 
ATOM      9  C   UNL     1       0.548   9.975  19.285  0.00  0.00    +0.000 A 
ATOM     10  C   UNL     1       1.418   9.126  18.581  0.00  0.00    +0.000 A 
BRANCH   8  11
ATOM     11  N   UNL     1      -0.601  10.630  21.395  0.00  0.00    +0.000 N 
ATOM     12  O   UNL     1      -1.244  11.477  20.755  0.00  0.00    +0.000 OA
ATOM     13  O   UNL     1      -0.668  10.477  22.622  0.00  0.00    +0.000 OA
ENDBRANCH   8  11
ENDBRANCH   3   5
BRANCH   1  17
ATOM     14  C   UNL     1       5.581   4.698  16.042  0.00  0.00    +0.000 A 
ATOM     15  N   UNL     1       5.049   3.562  16.432  0.00  0.00    +0.000 NA
ATOM     16  C   UNL     1       3.986   3.819  17.258  0.00  0.00    +0.000 A 
ATOM     17  C   UNL     1       3.714   5.144  17.521  0.00  0.00    +0.000 A 
ATOM     18  S   UNL     1       4.849   6.114  16.656  0.00  0.00    +0.000 S 
BRANCH  16  19
ATOM     19  N   UNL     1       3.294   2.747  17.685  0.00  0.00    +0.000 N 
ATOM     20  H   UNL     1       2.338   2.965  17.966  0.00  0.00    +0.000 HD
ATOM     21  H   UNL     1       3.724   2.126  18.366  0.00  0.00    +0.000 HD
ENDBRANCH  16  19
BRANCH  14  23
ATOM     22  C   UNL     1       6.307   3.928  13.516  0.00  0.00    +0.000 C 
ATOM     23  S   UNL     1       6.953   4.789  14.959  0.00  0.00    +0.000 S 
ENDBRANCH  14  23
ENDBRANCH   1  17
TORSDOF 5
ENDMDL
MODEL 9
REMARK VINA RESULT:      -5.9      3.904      8.431
REMARK  Name = 
REMARK  6 active torsions:
REMARK  status: ('A' for Active; 'I' for Inactive)
REMARK    1  A    between atoms: C_1  and  S_2
REMARK    2  A    between atoms: S_2  and  C_3
REMARK    3  A    between atoms: C_5  and  N_6
REMARK    4  A    between atoms: C_7  and  C_8
REMARK    5  A    between atoms: N_10  and  C_11
REMARK    6  A    between atoms: C_14  and  N_15
REMARK                            x       y       z     vdW  Elec       q    Type
REMARK                         _______ _______ _______ _____ _____    ______ ____
ROOT
ATOM      1  C   UNL     1       2.168   6.111  20.128  0.00  0.00    +0.000 C 
ATOM      2  O   UNL     1       1.260   5.582  20.770  0.00  0.00    +0.000 OA
ATOM      3  N   UNL     1       2.278   7.491  19.962  0.00  0.00    +0.000 N 
ATOM      4  H   UNL     1       2.936   7.810  19.257  0.00  0.00    +0.000 HD
ENDROOT
BRANCH   3   5
ATOM      5  C   UNL     1       1.428   8.455  20.558  0.00  0.00    +0.000 A 
ATOM      6  C   UNL     1       1.284   8.582  21.945  0.00  0.00    +0.000 A 
ATOM      7  C   UNL     1       0.426   9.532  22.506  0.00  0.00    +0.000 A 
ATOM      8  C   UNL     1      -0.299  10.378  21.669  0.00  0.00    +0.000 A 
ATOM      9  C   UNL     1      -0.165  10.280  20.278  0.00  0.00    +0.000 A 
ATOM     10  C   UNL     1       0.706   9.325  19.727  0.00  0.00    +0.000 A 
BRANCH   8  11
ATOM     11  N   UNL     1      -1.198  11.379  22.259  0.00  0.00    +0.000 N 
ATOM     12  O   UNL     1      -1.353  12.447  21.649  0.00  0.00    +0.000 OA
ATOM     13  O   UNL     1      -1.753  11.095  23.330  0.00  0.00    +0.000 OA
ENDBRANCH   8  11
ENDBRANCH   3   5
BRANCH   1  17
ATOM     14  C   UNL     1       4.880   4.575  17.906  0.00  0.00    +0.000 A 
ATOM     15  N   UNL     1       4.578   3.595  18.728  0.00  0.00    +0.000 NA
ATOM     16  C   UNL     1       3.597   4.014  19.589  0.00  0.00    +0.000 A 
ATOM     17  C   UNL     1       3.163   5.313  19.447  0.00  0.00    +0.000 A 
ATOM     18  S   UNL     1       4.024   6.034  18.137  0.00  0.00    +0.000 S 
BRANCH  16  19
ATOM     19  N   UNL     1       3.132   3.091  20.451  0.00  0.00    +0.000 N 
ATOM     20  H   UNL     1       2.259   3.361  20.904  0.00  0.00    +0.000 HD
ATOM     21  H   UNL     1       3.771   2.694  21.135  0.00  0.00    +0.000 HD
ENDBRANCH  16  19
BRANCH  14  23
ATOM     22  C   UNL     1       7.600   4.623  17.583  0.00  0.00    +0.000 C 
ATOM     23  S   UNL     1       6.080   4.423  16.640  0.00  0.00    +0.000 S 
ENDBRANCH  14  23
ENDBRANCH   1  17
TORSDOF 5
ENDMDL
