MODEL 1
REMARK VINA RESULT:      -9.6      0.000      0.000
REMARK  Name = 
REMARK  8 active torsions:
REMARK  status: ('A' for Active; 'I' for Inactive)
REMARK    1  A    between atoms: O_1  and  C_2
REMARK    2  A    between atoms: C_2  and  C_3
REMARK    3  A    between atoms: C_2  and  C_22
REMARK    4  A    between atoms: C_2  and  C_28
REMARK    5  A    between atoms: C_3  and  N_4
REMARK    6  A    between atoms: C_7  and  C_8
REMARK    7  A    between atoms: C_10  and  C_11
REMARK    8  A    between atoms: C_22  and  N_23
REMARK                            x       y       z     vdW  Elec       q    Type
REMARK                         _______ _______ _______ _____ _____    ______ ____
ROOT
ATOM      1  C   UNL     1       3.582   6.139  17.693  0.00  0.00    +0.000 C 
ENDROOT
BRANCH   1   2
ATOM      2  N   UNL     1       4.827   5.309  17.842  0.00  0.00    +0.000 NA
ATOM      3  C   UNL     1       5.739   5.566  16.723  0.00  0.00    +0.000 C 
ATOM      4  C   UNL     1       7.189   5.162  16.947  0.00  0.00    +0.000 C 
ATOM      5  C   UNL     1       7.764   5.732  18.227  0.00  0.00    +0.000 C 
ATOM      6  C   UNL     1       6.885   5.303  19.402  0.00  0.00    +0.000 C 
ATOM      7  C   UNL     1       5.387   5.529  19.183  0.00  0.00    +0.000 C 
BRANCH   5   8
ATOM      8  C   UNL     1       8.034   7.206  18.219  0.00  0.00    +0.000 A 
ATOM      9  N   UNL     1       8.770   7.979  18.987  0.00  0.00    +0.000 NA
ATOM     10  C   UNL     1       8.607   9.231  18.410  0.00  0.00    +0.000 A 
ATOM     11  N   UNL     1       7.787   9.227  17.349  0.00  0.00    +0.000 NA
ATOM     12  O   UNL     1       7.410   7.898  17.220  0.00  0.00    +0.000 OA
BRANCH  10  13
ATOM     13  C   UNL     1       9.291  10.438  18.886  0.00  0.00    +0.000 A 
ATOM     14  C   UNL     1       9.340  10.737  20.258  0.00  0.00    +0.000 A 
ATOM     15  C   UNL     1      10.018  11.872  20.716  0.00  0.00    +0.000 A 
ATOM     16  C   UNL     1      10.655  12.709  19.806  0.00  0.00    +0.000 A 
ATOM     17  F   UNL     1      11.313  13.791  20.252  0.00  0.00    +0.000 F 
ATOM     18  C   UNL     1      10.619  12.448  18.441  0.00  0.00    +0.000 A 
ATOM     19  C   UNL     1       9.930  11.311  17.984  0.00  0.00    +0.000 A 
ENDBRANCH  10  13
ENDBRANCH   5   8
ENDBRANCH   1   2
BRANCH   1  20
ATOM     20  C   UNL     1       2.608   6.278  18.938  0.00  0.00    +0.000 C 
BRANCH  20  21
ATOM     21  C   UNL     1       2.150   7.733  19.083  0.00  0.00    +0.000 A 
ATOM     22  C   UNL     1       2.245   8.647  18.017  0.00  0.00    +0.000 A 
ATOM     23  C   UNL     1       1.517   9.837  18.041  0.00  0.00    +0.000 A 
ATOM     24  C   UNL     1       0.708  10.126  19.132  0.00  0.00    +0.000 A 
ATOM     25  F   UNL     1      -0.093  11.198  19.097  0.00  0.00    +0.000 F 
ATOM     26  C   UNL     1       0.712   9.314  20.255  0.00  0.00    +0.000 A 
ATOM     27  C   UNL     1       1.467   8.151  20.236  0.00  0.00    +0.000 A 
ATOM     28  F   UNL     1       1.504   7.400  21.346  0.00  0.00    +0.000 F 
ENDBRANCH  20  21
BRANCH  20  29
ATOM     29  O   UNL     1       3.314   5.916  20.147  0.00  0.00    +0.000 OA
ATOM     30  H   UNL     1       3.997   6.610  20.283  0.00  0.00    +0.000 HD
ENDBRANCH  20  29
BRANCH  20  31
ATOM     31  C   UNL     1       1.388   5.327  18.813  0.00  0.00    +0.000 C 
BRANCH  31  32
ATOM     32  N   UNL     1       1.511   4.080  19.553  0.00  0.00    +0.000 N 
ATOM     33  C   UNL     1       1.861   2.859  19.075  0.00  0.00    +0.000 A 
ATOM     34  N   UNL     1       1.832   1.975  20.046  0.00  0.00    +0.000 NA
ATOM     35  C   UNL     1       1.431   2.713  21.118  0.00  0.00    +0.000 A 
ATOM     36  N   UNL     1       1.210   4.007  20.870  0.00  0.00    +0.000 NA
ENDBRANCH  31  32
ENDBRANCH  20  31
ENDBRANCH   1  20
TORSDOF 8
ENDMDL
MODEL 2
REMARK VINA RESULT:      -9.5      1.183      1.616
REMARK  Name = 
REMARK  8 active torsions:
REMARK  status: ('A' for Active; 'I' for Inactive)
REMARK    1  A    between atoms: O_1  and  C_2
REMARK    2  A    between atoms: C_2  and  C_3
REMARK    3  A    between atoms: C_2  and  C_22
REMARK    4  A    between atoms: C_2  and  C_28
REMARK    5  A    between atoms: C_3  and  N_4
REMARK    6  A    between atoms: C_7  and  C_8
REMARK    7  A    between atoms: C_10  and  C_11
REMARK    8  A    between atoms: C_22  and  N_23
REMARK                            x       y       z     vdW  Elec       q    Type
REMARK                         _______ _______ _______ _____ _____    ______ ____
ROOT
ATOM      1  C   UNL     1       3.893   5.941  19.523  0.00  0.00    +0.000 C 
ENDROOT
BRANCH   1   2
ATOM      2  N   UNL     1       4.665   5.479  18.318  0.00  0.00    +0.000 NA
ATOM      3  C   UNL     1       4.716   6.546  17.314  0.00  0.00    +0.000 C 
ATOM      4  C   UNL     1       5.804   6.410  16.260  0.00  0.00    +0.000 C 
ATOM      5  C   UNL     1       7.178   6.197  16.861  0.00  0.00    +0.000 C 
ATOM      6  C   UNL     1       7.138   4.971  17.773  0.00  0.00    +0.000 C 
ATOM      7  C   UNL     1       5.966   4.957  18.758  0.00  0.00    +0.000 C 
BRANCH   5   8
ATOM      8  C   UNL     1       7.787   7.391  17.532  0.00  0.00    +0.000 A 
ATOM      9  N   UNL     1       7.855   8.661  17.195  0.00  0.00    +0.000 NA
ATOM     10  C   UNL     1       8.520   9.230  18.272  0.00  0.00    +0.000 A 
ATOM     11  N   UNL     1       8.865   8.342  19.216  0.00  0.00    +0.000 NA
ATOM     12  O   UNL     1       8.383   7.134  18.733  0.00  0.00    +0.000 OA
BRANCH  10  13
ATOM     13  C   UNL     1       8.790  10.667  18.390  0.00  0.00    +0.000 A 
ATOM     14  C   UNL     1       8.179  11.582  17.516  0.00  0.00    +0.000 A 
ATOM     15  C   UNL     1       8.412  12.955  17.647  0.00  0.00    +0.000 A 
ATOM     16  C   UNL     1       9.251  13.420  18.654  0.00  0.00    +0.000 A 
ATOM     17  F   UNL     1       9.462  14.740  18.781  0.00  0.00    +0.000 F 
ATOM     18  C   UNL     1       9.879  12.542  19.529  0.00  0.00    +0.000 A 
ATOM     19  C   UNL     1       9.649  11.162  19.390  0.00  0.00    +0.000 A 
ENDBRANCH  10  13
ENDBRANCH   5   8
ENDBRANCH   1   2
BRANCH   1  20
ATOM     20  C   UNL     1       2.323   6.133  19.390  0.00  0.00    +0.000 C 
BRANCH  20  21
ATOM     21  C   UNL     1       1.986   7.626  19.303  0.00  0.00    +0.000 A 
ATOM     22  C   UNL     1       2.011   8.319  18.079  0.00  0.00    +0.000 A 
ATOM     23  C   UNL     1       1.374   9.555  17.954  0.00  0.00    +0.000 A 
ATOM     24  C   UNL     1       0.727  10.108  19.052  0.00  0.00    +0.000 A 
ATOM     25  F   UNL     1       0.003  11.223  18.899  0.00  0.00    +0.000 F 
ATOM     26  C   UNL     1       0.813   9.516  20.301  0.00  0.00    +0.000 A 
ATOM     27  C   UNL     1       1.479   8.305  20.423  0.00  0.00    +0.000 A 
ATOM     28  F   UNL     1       1.601   7.767  21.645  0.00  0.00    +0.000 F 
ENDBRANCH  20  21
BRANCH  20  29
ATOM     29  O   UNL     1       1.669   5.601  20.564  0.00  0.00    +0.000 OA
ATOM     30  H   UNL     1       1.314   6.376  21.054  0.00  0.00    +0.000 HD
ENDBRANCH  20  29
BRANCH  20  31
ATOM     31  C   UNL     1       1.760   5.370  18.160  0.00  0.00    +0.000 C 
BRANCH  31  32
ATOM     32  N   UNL     1       1.830   3.920  18.262  0.00  0.00    +0.000 N 
ATOM     33  C   UNL     1       2.544   3.064  17.487  0.00  0.00    +0.000 A 
ATOM     34  N   UNL     1       2.325   1.828  17.871  0.00  0.00    +0.000 NA
ATOM     35  C   UNL     1       1.435   1.978  18.892  0.00  0.00    +0.000 A 
ATOM     36  N   UNL     1       1.089   3.239  19.167  0.00  0.00    +0.000 NA
ENDBRANCH  31  32
ENDBRANCH  20  31
ENDBRANCH   1  20
TORSDOF 8
ENDMDL
MODEL 3
REMARK VINA RESULT:      -9.2      0.626      1.095
REMARK  Name = 
REMARK  8 active torsions:
REMARK  status: ('A' for Active; 'I' for Inactive)
REMARK    1  A    between atoms: O_1  and  C_2
REMARK    2  A    between atoms: C_2  and  C_3
REMARK    3  A    between atoms: C_2  and  C_22
REMARK    4  A    between atoms: C_2  and  C_28
REMARK    5  A    between atoms: C_3  and  N_4
REMARK    6  A    between atoms: C_7  and  C_8
REMARK    7  A    between atoms: C_10  and  C_11
REMARK    8  A    between atoms: C_22  and  N_23
REMARK                            x       y       z     vdW  Elec       q    Type
REMARK                         _______ _______ _______ _____ _____    ______ ____
ROOT
ATOM      1  C   UNL     1       3.463   5.779  17.731  0.00  0.00    +0.000 C 
ENDROOT
BRANCH   1   2
ATOM      2  N   UNL     1       4.755   5.014  17.815  0.00  0.00    +0.000 NA
ATOM      3  C   UNL     1       5.598   5.323  16.655  0.00  0.00    +0.000 C 
ATOM      4  C   UNL     1       7.075   4.996  16.806  0.00  0.00    +0.000 C 
ATOM      5  C   UNL     1       7.682   5.589  18.061  0.00  0.00    +0.000 C 
ATOM      6  C   UNL     1       6.884   5.110  19.274  0.00  0.00    +0.000 C 
ATOM      7  C   UNL     1       5.367   5.258  19.129  0.00  0.00    +0.000 C 
BRANCH   5   8
ATOM      8  C   UNL     1       7.873   7.076  18.050  0.00  0.00    +0.000 A 
ATOM      9  N   UNL     1       8.569   7.888  18.815  0.00  0.00    +0.000 NA
ATOM     10  C   UNL     1       8.339   9.128  18.237  0.00  0.00    +0.000 A 
ATOM     11  N   UNL     1       7.519   9.079  17.177  0.00  0.00    +0.000 NA
ATOM     12  O   UNL     1       7.212   7.732  17.051  0.00  0.00    +0.000 OA
BRANCH  10  13
ATOM     13  C   UNL     1       8.960  10.370  18.710  0.00  0.00    +0.000 A 
ATOM     14  C   UNL     1       8.971  11.517  17.899  0.00  0.00    +0.000 A 
ATOM     15  C   UNL     1       9.538  12.710  18.361  0.00  0.00    +0.000 A 
ATOM     16  C   UNL     1      10.089  12.764  19.637  0.00  0.00    +0.000 A 
ATOM     17  F   UNL     1      10.621  13.915  20.078  0.00  0.00    +0.000 F 
ATOM     18  C   UNL     1      10.103  11.646  20.462  0.00  0.00    +0.000 A 
ATOM     19  C   UNL     1       9.540  10.447  19.991  0.00  0.00    +0.000 A 
ENDBRANCH  10  13
ENDBRANCH   5   8
ENDBRANCH   1   2
BRANCH   1  20
ATOM     20  C   UNL     1       2.695   6.120  19.077  0.00  0.00    +0.000 C 
BRANCH  20  21
ATOM     21  C   UNL     1       2.251   7.587  19.067  0.00  0.00    +0.000 A 
ATOM     22  C   UNL     1       2.415   8.401  17.931  0.00  0.00    +0.000 A 
ATOM     23  C   UNL     1       1.704   9.596  17.810  0.00  0.00    +0.000 A 
ATOM     24  C   UNL     1       0.845   9.989  18.828  0.00  0.00    +0.000 A 
ATOM     25  F   UNL     1       0.063  11.062  18.654  0.00  0.00    +0.000 F 
ATOM     26  C   UNL     1       0.777   9.281  20.016  0.00  0.00    +0.000 A 
ATOM     27  C   UNL     1       1.515   8.113  20.141  0.00  0.00    +0.000 A 
ATOM     28  F   UNL     1       1.483   7.464  21.314  0.00  0.00    +0.000 F 
ENDBRANCH  20  21
BRANCH  20  29
ATOM     29  O   UNL     1       3.584   5.936  20.202  0.00  0.00    +0.000 OA
ATOM     30  H   UNL     1       3.134   6.343  20.975  0.00  0.00    +0.000 HD
ENDBRANCH  20  29
BRANCH  20  31
ATOM     31  C   UNL     1       1.478   5.179  19.290  0.00  0.00    +0.000 C 
BRANCH  31  32
ATOM     32  N   UNL     1       1.763   3.986  20.072  0.00  0.00    +0.000 N 
ATOM     33  C   UNL     1       1.560   3.792  21.400  0.00  0.00    +0.000 A 
ATOM     34  N   UNL     1       1.971   2.593  21.743  0.00  0.00    +0.000 NA
ATOM     35  C   UNL     1       2.446   2.086  20.571  0.00  0.00    +0.000 A 
ATOM     36  N   UNL     1       2.353   2.901  19.517  0.00  0.00    +0.000 NA
ENDBRANCH  31  32
ENDBRANCH  20  31
ENDBRANCH   1  20
TORSDOF 8
ENDMDL
MODEL 4
REMARK VINA RESULT:      -9.2      4.143      6.344
REMARK  Name = 
REMARK  8 active torsions:
REMARK  status: ('A' for Active; 'I' for Inactive)
REMARK    1  A    between atoms: O_1  and  C_2
REMARK    2  A    between atoms: C_2  and  C_3
REMARK    3  A    between atoms: C_2  and  C_22
REMARK    4  A    between atoms: C_2  and  C_28
REMARK    5  A    between atoms: C_3  and  N_4
REMARK    6  A    between atoms: C_7  and  C_8
REMARK    7  A    between atoms: C_10  and  C_11
REMARK    8  A    between atoms: C_22  and  N_23
REMARK                            x       y       z     vdW  Elec       q    Type
REMARK                         _______ _______ _______ _____ _____    ______ ____
ROOT
ATOM      1  C   UNL     1       2.848   7.690  18.532  0.00  0.00    +0.000 C 
ENDROOT
BRANCH   1   2
ATOM      2  N   UNL     1       1.444   8.148  18.820  0.00  0.00    +0.000 NA
ATOM      3  C   UNL     1       1.321   8.535  20.229  0.00  0.00    +0.000 C 
ATOM      4  C   UNL     1       0.130   9.418  20.569  0.00  0.00    +0.000 C 
ATOM      5  C   UNL     1       0.039  10.644  19.684  0.00  0.00    +0.000 C 
ATOM      6  C   UNL     1      -0.004  10.201  18.222  0.00  0.00    +0.000 C 
ATOM      7  C   UNL     1       1.071   9.179  17.841  0.00  0.00    +0.000 C 
BRANCH   5   8
ATOM      8  C   UNL     1       1.070  11.703  19.933  0.00  0.00    +0.000 A 
ATOM      9  N   UNL     1       1.790  12.451  19.125  0.00  0.00    +0.000 NA
ATOM     10  C   UNL     1       2.515  13.244  20.003  0.00  0.00    +0.000 A 
ATOM     11  N   UNL     1       2.267  12.977  21.293  0.00  0.00    +0.000 NA
ATOM     12  O   UNL     1       1.317  11.967  21.250  0.00  0.00    +0.000 OA
BRANCH  10  13
ATOM     13  C   UNL     1       3.437  14.299  19.568  0.00  0.00    +0.000 A 
ATOM     14  C   UNL     1       3.372  14.810  18.262  0.00  0.00    +0.000 A 
ATOM     15  C   UNL     1       4.231  15.837  17.855  0.00  0.00    +0.000 A 
ATOM     16  C   UNL     1       5.154  16.361  18.754  0.00  0.00    +0.000 A 
ATOM     17  F   UNL     1       5.968  17.354  18.362  0.00  0.00    +0.000 F 
ATOM     18  C   UNL     1       5.251  15.873  20.052  0.00  0.00    +0.000 A 
ATOM     19  C   UNL     1       4.392  14.835  20.454  0.00  0.00    +0.000 A 
ENDBRANCH  10  13
ENDBRANCH   5   8
ENDBRANCH   1   2
BRANCH   1  20
ATOM     20  C   UNL     1       3.127   6.132  18.409  0.00  0.00    +0.000 C 
BRANCH  20  21
ATOM     21  C   UNL     1       4.186   5.876  17.331  0.00  0.00    +0.000 A 
ATOM     22  C   UNL     1       5.148   6.846  16.994  0.00  0.00    +0.000 A 
ATOM     23  C   UNL     1       6.297   6.486  16.289  0.00  0.00    +0.000 A 
ATOM     24  C   UNL     1       6.479   5.164  15.903  0.00  0.00    +0.000 A 
ATOM     25  F   UNL     1       7.639   4.792  15.347  0.00  0.00    +0.000 F 
ATOM     26  C   UNL     1       5.481   4.222  16.094  0.00  0.00    +0.000 A 
ATOM     27  C   UNL     1       4.327   4.598  16.765  0.00  0.00    +0.000 A 
ATOM     28  F   UNL     1       3.347   3.693  16.899  0.00  0.00    +0.000 F 
ENDBRANCH  20  21
BRANCH  20  29
ATOM     29  O   UNL     1       1.915   5.453  18.008  0.00  0.00    +0.000 OA
ATOM     30  H   UNL     1       2.117   4.492  18.043  0.00  0.00    +0.000 HD
ENDBRANCH  20  29
BRANCH  20  31
ATOM     31  C   UNL     1       3.568   5.526  19.769  0.00  0.00    +0.000 C 
BRANCH  31  32
ATOM     32  N   UNL     1       2.768   4.398  20.219  0.00  0.00    +0.000 N 
ATOM     33  C   UNL     1       3.093   3.080  20.189  0.00  0.00    +0.000 A 
ATOM     34  N   UNL     1       2.097   2.365  20.657  0.00  0.00    +0.000 NA
ATOM     35  C   UNL     1       1.155   3.305  20.949  0.00  0.00    +0.000 A 
ATOM     36  N   UNL     1       1.510   4.567  20.690  0.00  0.00    +0.000 NA
ENDBRANCH  31  32
ENDBRANCH  20  31
ENDBRANCH   1  20
TORSDOF 8
ENDMDL
MODEL 5
REMARK VINA RESULT:      -9.2      3.906      6.538
REMARK  Name = 
REMARK  8 active torsions:
REMARK  status: ('A' for Active; 'I' for Inactive)
REMARK    1  A    between atoms: O_1  and  C_2
REMARK    2  A    between atoms: C_2  and  C_3
REMARK    3  A    between atoms: C_2  and  C_22
REMARK    4  A    between atoms: C_2  and  C_28
REMARK    5  A    between atoms: C_3  and  N_4
REMARK    6  A    between atoms: C_7  and  C_8
REMARK    7  A    between atoms: C_10  and  C_11
REMARK    8  A    between atoms: C_22  and  N_23
REMARK                            x       y       z     vdW  Elec       q    Type
REMARK                         _______ _______ _______ _____ _____    ______ ____
ROOT
ATOM      1  C   UNL     1       3.171   7.525  19.386  0.00  0.00    +0.000 C 
ENDROOT
BRANCH   1   2
ATOM      2  N   UNL     1       1.723   7.926  19.324  0.00  0.00    +0.000 NA
ATOM      3  C   UNL     1       1.300   8.480  20.614  0.00  0.00    +0.000 C 
ATOM      4  C   UNL     1       0.033   9.322  20.588  0.00  0.00    +0.000 C 
ATOM      5  C   UNL     1       0.080  10.417  19.543  0.00  0.00    +0.000 C 
ATOM      6  C   UNL     1       0.354   9.791  18.176  0.00  0.00    +0.000 C 
ATOM      7  C   UNL     1       1.520   8.799  18.160  0.00  0.00    +0.000 C 
BRANCH   5   8
ATOM      8  C   UNL     1       0.999  11.563  19.844  0.00  0.00    +0.000 A 
ATOM      9  N   UNL     1       1.753  12.322  19.079  0.00  0.00    +0.000 NA
ATOM     10  C   UNL     1       2.315  13.210  19.985  0.00  0.00    +0.000 A 
ATOM     11  N   UNL     1       1.937  12.990  21.253  0.00  0.00    +0.000 NA
ATOM     12  O   UNL     1       1.072  11.910  21.163  0.00  0.00    +0.000 OA
BRANCH  10  13
ATOM     13  C   UNL     1       3.205  14.310  19.596  0.00  0.00    +0.000 A 
ATOM     14  C   UNL     1       3.617  15.264  20.541  0.00  0.00    +0.000 A 
ATOM     15  C   UNL     1       4.488  16.296  20.177  0.00  0.00    +0.000 A 
ATOM     16  C   UNL     1       4.957  16.375  18.870  0.00  0.00    +0.000 A 
ATOM     17  F   UNL     1       5.802  17.361  18.530  0.00  0.00    +0.000 F 
ATOM     18  C   UNL     1       4.562  15.454  17.908  0.00  0.00    +0.000 A 
ATOM     19  C   UNL     1       3.680  14.423  18.275  0.00  0.00    +0.000 A 
ENDBRANCH  10  13
ENDBRANCH   5   8
ENDBRANCH   1   2
BRANCH   1  20
ATOM     20  C   UNL     1       3.597   6.122  18.779  0.00  0.00    +0.000 C 
BRANCH  20  21
ATOM     21  C   UNL     1       2.433   5.130  18.892  0.00  0.00    +0.000 A 
ATOM     22  C   UNL     1       1.851   4.541  17.755  0.00  0.00    +0.000 A 
ATOM     23  C   UNL     1       1.056   3.401  17.880  0.00  0.00    +0.000 A 
ATOM     24  C   UNL     1       0.825   2.859  19.138  0.00  0.00    +0.000 A 
ATOM     25  F   UNL     1       0.178   1.692  19.246  0.00  0.00    +0.000 F 
ATOM     26  C   UNL     1       1.265   3.504  20.282  0.00  0.00    +0.000 A 
ATOM     27  C   UNL     1       2.025   4.656  20.149  0.00  0.00    +0.000 A 
ATOM     28  F   UNL     1       2.401   5.301  21.264  0.00  0.00    +0.000 F 
ENDBRANCH  20  21
BRANCH  20  29
ATOM     29  O   UNL     1       4.708   5.586  19.531  0.00  0.00    +0.000 OA
ATOM     30  H   UNL     1       5.206   6.362  19.873  0.00  0.00    +0.000 HD
ENDBRANCH  20  29
BRANCH  20  31
ATOM     31  C   UNL     1       4.060   6.259  17.303  0.00  0.00    +0.000 C 
BRANCH  31  32
ATOM     32  N   UNL     1       5.458   5.929  17.073  0.00  0.00    +0.000 N 
ATOM     33  C   UNL     1       6.492   6.783  16.865  0.00  0.00    +0.000 A 
ATOM     34  N   UNL     1       7.598   6.103  16.667  0.00  0.00    +0.000 NA
ATOM     35  C   UNL     1       7.180   4.809  16.744  0.00  0.00    +0.000 A 
ATOM     36  N   UNL     1       5.875   4.645  16.980  0.00  0.00    +0.000 NA
ENDBRANCH  31  32
ENDBRANCH  20  31
ENDBRANCH   1  20
TORSDOF 8
ENDMDL
MODEL 6
REMARK VINA RESULT:      -9.2      0.928      1.071
REMARK  Name = 
REMARK  8 active torsions:
REMARK  status: ('A' for Active; 'I' for Inactive)
REMARK    1  A    between atoms: O_1  and  C_2
REMARK    2  A    between atoms: C_2  and  C_3
REMARK    3  A    between atoms: C_2  and  C_22
REMARK    4  A    between atoms: C_2  and  C_28
REMARK    5  A    between atoms: C_3  and  N_4
REMARK    6  A    between atoms: C_7  and  C_8
REMARK    7  A    between atoms: C_10  and  C_11
REMARK    8  A    between atoms: C_22  and  N_23
REMARK                            x       y       z     vdW  Elec       q    Type
REMARK                         _______ _______ _______ _____ _____    ______ ____
ROOT
ATOM      1  C   UNL     1       4.039   5.902  19.846  0.00  0.00    +0.000 C 
ENDROOT
BRANCH   1   2
ATOM      2  N   UNL     1       4.967   5.282  18.838  0.00  0.00    +0.000 NA
ATOM      3  C   UNL     1       4.891   6.014  17.569  0.00  0.00    +0.000 C 
ATOM      4  C   UNL     1       6.058   5.805  16.616  0.00  0.00    +0.000 C 
ATOM      5  C   UNL     1       7.401   6.044  17.274  0.00  0.00    +0.000 C 
ATOM      6  C   UNL     1       7.523   5.140  18.501  0.00  0.00    +0.000 C 
ATOM      7  C   UNL     1       6.307   5.173  19.431  0.00  0.00    +0.000 C 
BRANCH   5   8
ATOM      8  C   UNL     1       7.730   7.474  17.580  0.00  0.00    +0.000 A 
ATOM      9  N   UNL     1       8.627   8.033  18.363  0.00  0.00    +0.000 NA
ATOM     10  C   UNL     1       8.417   9.389  18.154  0.00  0.00    +0.000 A 
ATOM     11  N   UNL     1       7.420   9.648  17.297  0.00  0.00    +0.000 NA
ATOM     12  O   UNL     1       6.967   8.393  16.917  0.00  0.00    +0.000 OA
BRANCH  10  13
ATOM     13  C   UNL     1       9.230  10.439  18.777  0.00  0.00    +0.000 A 
ATOM     14  C   UNL     1       9.232  10.607  20.171  0.00  0.00    +0.000 A 
ATOM     15  C   UNL     1      10.029  11.590  20.768  0.00  0.00    +0.000 A 
ATOM     16  C   UNL     1      10.831  12.404  19.976  0.00  0.00    +0.000 A 
ATOM     17  F   UNL     1      11.602  13.338  20.555  0.00  0.00    +0.000 F 
ATOM     18  C   UNL     1      10.846  12.271  18.592  0.00  0.00    +0.000 A 
ATOM     19  C   UNL     1      10.037  11.288  17.995  0.00  0.00    +0.000 A 
ENDBRANCH  10  13
ENDBRANCH   5   8
ENDBRANCH   1   2
BRANCH   1  20
ATOM     20  C   UNL     1       2.497   6.018  19.488  0.00  0.00    +0.000 C 
BRANCH  20  21
ATOM     21  C   UNL     1       2.121   7.488  19.268  0.00  0.00    +0.000 A 
ATOM     22  C   UNL     1       2.194   8.086  17.997  0.00  0.00    +0.000 A 
ATOM     23  C   UNL     1       1.528   9.287  17.742  0.00  0.00    +0.000 A 
ATOM     24  C   UNL     1       0.806   9.900  18.759  0.00  0.00    +0.000 A 
ATOM     25  F   UNL     1       0.059  10.975  18.482  0.00  0.00    +0.000 F 
ATOM     26  C   UNL     1       0.841   9.408  20.053  0.00  0.00    +0.000 A 
ATOM     27  C   UNL     1       1.535   8.233  20.303  0.00  0.00    +0.000 A 
ATOM     28  F   UNL     1       1.605   7.794  21.568  0.00  0.00    +0.000 F 
ENDBRANCH  20  21
BRANCH  20  29
ATOM     29  O   UNL     1       1.705   5.520  20.590  0.00  0.00    +0.000 OA
ATOM     30  H   UNL     1       2.298   4.933  21.109  0.00  0.00    +0.000 HD
ENDBRANCH  20  29
BRANCH  20  31
ATOM     31  C   UNL     1       2.140   5.167  18.239  0.00  0.00    +0.000 C 
BRANCH  31  32
ATOM     32  N   UNL     1       1.735   3.800  18.532  0.00  0.00    +0.000 N 
ATOM     33  C   UNL     1       0.482   3.277  18.500  0.00  0.00    +0.000 A 
ATOM     34  N   UNL     1       0.518   2.014  18.856  0.00  0.00    +0.000 NA
ATOM     35  C   UNL     1       1.838   1.808  19.122  0.00  0.00    +0.000 A 
ATOM     36  N   UNL     1       2.627   2.872  18.951  0.00  0.00    +0.000 NA
ENDBRANCH  31  32
ENDBRANCH  20  31
ENDBRANCH   1  20
TORSDOF 8
ENDMDL
MODEL 7
REMARK VINA RESULT:      -9.1      2.376      3.998
REMARK  Name = 
REMARK  8 active torsions:
REMARK  status: ('A' for Active; 'I' for Inactive)
REMARK    1  A    between atoms: O_1  and  C_2
REMARK    2  A    between atoms: C_2  and  C_3
REMARK    3  A    between atoms: C_2  and  C_22
REMARK    4  A    between atoms: C_2  and  C_28
REMARK    5  A    between atoms: C_3  and  N_4
REMARK    6  A    between atoms: C_7  and  C_8
REMARK    7  A    between atoms: C_10  and  C_11
REMARK    8  A    between atoms: C_22  and  N_23
REMARK                            x       y       z     vdW  Elec       q    Type
REMARK                         _______ _______ _______ _____ _____    ______ ____
ROOT
ATOM      1  C   UNL     1       3.729   5.067  17.087  0.00  0.00    +0.000 C 
ENDROOT
BRANCH   1   2
ATOM      2  N   UNL     1       5.018   4.451  17.560  0.00  0.00    +0.000 NA
ATOM      3  C   UNL     1       6.081   4.696  16.581  0.00  0.00    +0.000 C 
ATOM      4  C   UNL     1       7.503   4.538  17.097  0.00  0.00    +0.000 C 
ATOM      5  C   UNL     1       7.762   5.340  18.356  0.00  0.00    +0.000 C 
ATOM      6  C   UNL     1       6.741   4.938  19.420  0.00  0.00    +0.000 C 
ATOM      7  C   UNL     1       5.292   4.915  18.927  0.00  0.00    +0.000 C 
BRANCH   5   8
ATOM      8  C   UNL     1       7.848   6.825  18.174  0.00  0.00    +0.000 A 
ATOM      9  N   UNL     1       8.531   7.759  18.799  0.00  0.00    +0.000 NA
ATOM     10  C   UNL     1       8.179   8.911  18.109  0.00  0.00    +0.000 A 
ATOM     11  N   UNL     1       7.302   8.694  17.119  0.00  0.00    +0.000 NA
ATOM     12  O   UNL     1       7.083   7.325  17.158  0.00  0.00    +0.000 OA
BRANCH  10  13
ATOM     13  C   UNL     1       8.740  10.234  18.405  0.00  0.00    +0.000 A 
ATOM     14  C   UNL     1       9.667  10.401  19.447  0.00  0.00    +0.000 A 
ATOM     15  C   UNL     1      10.224  11.657  19.710  0.00  0.00    +0.000 A 
ATOM     16  C   UNL     1       9.862  12.750  18.931  0.00  0.00    +0.000 A 
ATOM     17  F   UNL     1      10.408  13.950  19.181  0.00  0.00    +0.000 F 
ATOM     18  C   UNL     1       8.941  12.623  17.898  0.00  0.00    +0.000 A 
ATOM     19  C   UNL     1       8.377  11.361  17.641  0.00  0.00    +0.000 A 
ENDBRANCH  10  13
ENDBRANCH   5   8
ENDBRANCH   1   2
BRANCH   1  20
ATOM     20  C   UNL     1       2.720   5.639  18.169  0.00  0.00    +0.000 C 
BRANCH  20  21
ATOM     21  C   UNL     1       2.473   4.589  19.259  0.00  0.00    +0.000 A 
ATOM     22  C   UNL     1       2.698   4.869  20.619  0.00  0.00    +0.000 A 
ATOM     23  C   UNL     1       2.146   4.054  21.609  0.00  0.00    +0.000 A 
ATOM     24  C   UNL     1       1.386   2.950  21.243  0.00  0.00    +0.000 A 
ATOM     25  F   UNL     1       0.746   2.248  22.186  0.00  0.00    +0.000 F 
ATOM     26  C   UNL     1       1.273   2.571  19.916  0.00  0.00    +0.000 A 
ATOM     27  C   UNL     1       1.855   3.369  18.942  0.00  0.00    +0.000 A 
ATOM     28  F   UNL     1       1.784   2.965  17.665  0.00  0.00    +0.000 F 
ENDBRANCH  20  21
BRANCH  20  29
ATOM     29  O   UNL     1       1.451   5.930  17.541  0.00  0.00    +0.000 OA
ATOM     30  H   UNL     1       0.980   6.544  18.148  0.00  0.00    +0.000 HD
ENDBRANCH  20  29
BRANCH  20  31
ATOM     31  C   UNL     1       3.244   6.962  18.790  0.00  0.00    +0.000 C 
BRANCH  31  32
ATOM     32  N   UNL     1       2.273   8.046  18.816  0.00  0.00    +0.000 N 
ATOM     33  C   UNL     1       1.524   8.468  19.866  0.00  0.00    +0.000 A 
ATOM     34  N   UNL     1       0.743   9.454  19.489  0.00  0.00    +0.000 NA
ATOM     35  C   UNL     1       1.041   9.591  18.167  0.00  0.00    +0.000 A 
ATOM     36  N   UNL     1       1.964   8.746  17.700  0.00  0.00    +0.000 NA
ENDBRANCH  31  32
ENDBRANCH  20  31
ENDBRANCH   1  20
TORSDOF 8
ENDMDL
MODEL 8
REMARK VINA RESULT:      -9.1      1.419      1.910
REMARK  Name = 
REMARK  8 active torsions:
REMARK  status: ('A' for Active; 'I' for Inactive)
REMARK    1  A    between atoms: O_1  and  C_2
REMARK    2  A    between atoms: C_2  and  C_3
REMARK    3  A    between atoms: C_2  and  C_22
REMARK    4  A    between atoms: C_2  and  C_28
REMARK    5  A    between atoms: C_3  and  N_4
REMARK    6  A    between atoms: C_7  and  C_8
REMARK    7  A    between atoms: C_10  and  C_11
REMARK    8  A    between atoms: C_22  and  N_23
REMARK                            x       y       z     vdW  Elec       q    Type
REMARK                         _______ _______ _______ _____ _____    ______ ____
ROOT
ATOM      1  C   UNL     1       3.822   6.238  19.604  0.00  0.00    +0.000 C 
ENDROOT
BRANCH   1   2
ATOM      2  N   UNL     1       4.556   5.720  18.397  0.00  0.00    +0.000 NA
ATOM      3  C   UNL     1       4.644   6.767  17.375  0.00  0.00    +0.000 C 
ATOM      4  C   UNL     1       5.711   6.563  16.311  0.00  0.00    +0.000 C 
ATOM      5  C   UNL     1       7.081   6.294  16.898  0.00  0.00    +0.000 C 
ATOM      6  C   UNL     1       6.995   5.086  17.831  0.00  0.00    +0.000 C 
ATOM      7  C   UNL     1       5.837   5.144  18.831  0.00  0.00    +0.000 C 
BRANCH   5   8
ATOM      8  C   UNL     1       7.754   7.469  17.541  0.00  0.00    +0.000 A 
ATOM      9  N   UNL     1       7.895   8.724  17.171  0.00  0.00    +0.000 NA
ATOM     10  C   UNL     1       8.588   9.282  18.237  0.00  0.00    +0.000 A 
ATOM     11  N   UNL     1       8.877   8.401  19.205  0.00  0.00    +0.000 NA
ATOM     12  O   UNL     1       8.330   7.210  18.752  0.00  0.00    +0.000 OA
BRANCH  10  13
ATOM     13  C   UNL     1       8.938  10.704  18.319  0.00  0.00    +0.000 A 
ATOM     14  C   UNL     1      10.031  11.127  19.093  0.00  0.00    +0.000 A 
ATOM     15  C   UNL     1      10.383  12.480  19.148  0.00  0.00    +0.000 A 
ATOM     16  C   UNL     1       9.650  13.414  18.426  0.00  0.00    +0.000 A 
ATOM     17  F   UNL     1       9.999  14.709  18.475  0.00  0.00    +0.000 F 
ATOM     18  C   UNL     1       8.556  13.032  17.658  0.00  0.00    +0.000 A 
ATOM     19  C   UNL     1       8.200  11.673  17.611  0.00  0.00    +0.000 A 
ENDBRANCH  10  13
ENDBRANCH   5   8
ENDBRANCH   1   2
BRANCH   1  20
ATOM     20  C   UNL     1       2.244   6.083  19.656  0.00  0.00    +0.000 C 
BRANCH  20  21
ATOM     21  C   UNL     1       1.593   7.452  19.887  0.00  0.00    +0.000 A 
ATOM     22  C   UNL     1       1.131   7.846  21.156  0.00  0.00    +0.000 A 
ATOM     23  C   UNL     1       0.873   9.190  21.428  0.00  0.00    +0.000 A 
ATOM     24  C   UNL     1       1.059  10.140  20.431  0.00  0.00    +0.000 A 
ATOM     25  F   UNL     1       0.944  11.440  20.728  0.00  0.00    +0.000 F 
ATOM     26  C   UNL     1       1.372   9.761  19.136  0.00  0.00    +0.000 A 
ATOM     27  C   UNL     1       1.590   8.418  18.867  0.00  0.00    +0.000 A 
ATOM     28  F   UNL     1       1.840   8.056  17.600  0.00  0.00    +0.000 F 
ENDBRANCH  20  21
BRANCH  20  29
ATOM     29  O   UNL     1       1.877   5.228  20.762  0.00  0.00    +0.000 OA
ATOM     30  H   UNL     1       1.598   4.373  20.365  0.00  0.00    +0.000 HD
ENDBRANCH  20  29
BRANCH  20  31
ATOM     31  C   UNL     1       1.695   5.426  18.361  0.00  0.00    +0.000 C 
BRANCH  31  32
ATOM     32  N   UNL     1       1.783   3.973  18.334  0.00  0.00    +0.000 N 
ATOM     33  C   UNL     1       2.599   3.202  17.570  0.00  0.00    +0.000 A 
ATOM     34  N   UNL     1       2.363   1.933  17.809  0.00  0.00    +0.000 NA
ATOM     35  C   UNL     1       1.361   1.976  18.730  0.00  0.00    +0.000 A 
ATOM     36  N   UNL     1       0.960   3.201  19.080  0.00  0.00    +0.000 NA
ENDBRANCH  31  32
ENDBRANCH  20  31
ENDBRANCH   1  20
TORSDOF 8
ENDMDL
MODEL 9
REMARK VINA RESULT:      -9.0      3.900      6.507
REMARK  Name = 
REMARK  8 active torsions:
REMARK  status: ('A' for Active; 'I' for Inactive)
REMARK    1  A    between atoms: O_1  and  C_2
REMARK    2  A    between atoms: C_2  and  C_3
REMARK    3  A    between atoms: C_2  and  C_22
REMARK    4  A    between atoms: C_2  and  C_28
REMARK    5  A    between atoms: C_3  and  N_4
REMARK    6  A    between atoms: C_7  and  C_8
REMARK    7  A    between atoms: C_10  and  C_11
REMARK    8  A    between atoms: C_22  and  N_23
REMARK                            x       y       z     vdW  Elec       q    Type
REMARK                         _______ _______ _______ _____ _____    ______ ____
ROOT
ATOM      1  C   UNL     1       3.123   7.491  19.722  0.00  0.00    +0.000 C 
ENDROOT
BRANCH   1   2
ATOM      2  N   UNL     1       1.692   7.913  19.527  0.00  0.00    +0.000 NA
ATOM      3  C   UNL     1       1.181   8.536  20.752  0.00  0.00    +0.000 C 
ATOM      4  C   UNL     1      -0.061   9.398  20.586  0.00  0.00    +0.000 C 
ATOM      5  C   UNL     1       0.091  10.441  19.498  0.00  0.00    +0.000 C 
ATOM      6  C   UNL     1       0.458   9.744  18.188  0.00  0.00    +0.000 C 
ATOM      7  C   UNL     1       1.601   8.733  18.310  0.00  0.00    +0.000 C 
BRANCH   5   8
ATOM      8  C   UNL     1       1.008  11.584  19.817  0.00  0.00    +0.000 A 
ATOM      9  N   UNL     1       1.817  12.308  19.075  0.00  0.00    +0.000 NA
ATOM     10  C   UNL     1       2.338  13.217  19.985  0.00  0.00    +0.000 A 
ATOM     11  N   UNL     1       1.884  13.042  21.234  0.00  0.00    +0.000 NA
ATOM     12  O   UNL     1       1.009  11.970  21.127  0.00  0.00    +0.000 OA
BRANCH  10  13
ATOM     13  C   UNL     1       3.265  14.292  19.615  0.00  0.00    +0.000 A 
ATOM     14  C   UNL     1       3.457  14.637  18.267  0.00  0.00    +0.000 A 
ATOM     15  C   UNL     1       4.319  15.681  17.915  0.00  0.00    +0.000 A 
ATOM     16  C   UNL     1       4.987  16.389  18.908  0.00  0.00    +0.000 A 
ATOM     17  F   UNL     1       5.805  17.397  18.565  0.00  0.00    +0.000 F 
ATOM     18  C   UNL     1       4.828  16.068  20.251  0.00  0.00    +0.000 A 
ATOM     19  C   UNL     1       3.968  15.013  20.600  0.00  0.00    +0.000 A 
ENDBRANCH  10  13
ENDBRANCH   5   8
ENDBRANCH   1   2
BRANCH   1  20
ATOM     20  C   UNL     1       3.611   6.137  19.055  0.00  0.00    +0.000 C 
BRANCH  20  21
ATOM     21  C   UNL     1       2.448   5.141  18.983  0.00  0.00    +0.000 A 
ATOM     22  C   UNL     1       1.952   4.672  17.752  0.00  0.00    +0.000 A 
ATOM     23  C   UNL     1       1.156   3.527  17.702  0.00  0.00    +0.000 A 
ATOM     24  C   UNL     1       0.839   2.859  18.879  0.00  0.00    +0.000 A 
ATOM     25  F   UNL     1       0.191   1.689  18.821  0.00  0.00    +0.000 F 
ATOM     26  C   UNL     1       1.192   3.383  20.112  0.00  0.00    +0.000 A 
ATOM     27  C   UNL     1       1.953   4.542  20.152  0.00  0.00    +0.000 A 
ATOM     28  F   UNL     1       2.245   5.068  21.350  0.00  0.00    +0.000 F 
ENDBRANCH  20  21
BRANCH  20  29
ATOM     29  O   UNL     1       4.650   5.543  19.867  0.00  0.00    +0.000 OA
ATOM     30  H   UNL     1       5.114   4.899  19.288  0.00  0.00    +0.000 HD
ENDBRANCH  20  29
BRANCH  20  31
ATOM     31  C   UNL     1       4.211   6.384  17.644  0.00  0.00    +0.000 C 
BRANCH  31  32
ATOM     32  N   UNL     1       5.490   5.732  17.406  0.00  0.00    +0.000 N 
ATOM     33  C   UNL     1       5.732   4.617  16.670  0.00  0.00    +0.000 A 
ATOM     34  N   UNL     1       7.010   4.322  16.716  0.00  0.00    +0.000 NA
ATOM     35  C   UNL     1       7.519   5.292  17.526  0.00  0.00    +0.000 A 
ATOM     36  N   UNL     1       6.629   6.176  17.985  0.00  0.00    +0.000 NA
ENDBRANCH  31  32
ENDBRANCH  20  31
ENDBRANCH   1  20
TORSDOF 8
ENDMDL
