MODEL 1
REMARK VINA RESULT:      -4.9      0.000      0.000
REMARK  Name = 
REMARK  3 active torsions:
REMARK  status: ('A' for Active; 'I' for Inactive)
REMARK    1  A    between atoms: C_1  and  N_2
REMARK    2  A    between atoms: C_7  and  C_8
REMARK    3  A    between atoms: C_8  and  N_9
REMARK                            x       y       z     vdW  Elec       q    Type
REMARK                         _______ _______ _______ _____ _____    ______ ____
ROOT
ATOM      1  C   UNL     1       3.462   1.657  18.439  0.00  0.00    +0.000 C 
ATOM      2  N   UNL     1       2.894   2.767  19.239  0.00  0.00    +0.000 N 
ATOM      3  C   UNL     1       1.781   2.516  19.975  0.00  0.00    +0.000 A 
ATOM      4  C   UNL     1       1.157   3.517  20.705  0.00  0.00    +0.000 A 
ATOM      5  C   UNL     1       1.668   4.801  20.674  0.00  0.00    +0.000 A 
ATOM      6  C   UNL     1       2.813   5.053  19.934  0.00  0.00    +0.000 A 
ATOM      7  C   UNL     1       3.451   4.017  19.220  0.00  0.00    +0.000 A 
ENDROOT
BRANCH   7   8
ATOM      8  C   UNL     1       4.703   4.336  18.437  0.00  0.00    +0.000 C 
BRANCH   8   9
ATOM      9  N   UNL     1       5.908   4.114  19.278  0.00  0.00    +0.000 NA
ATOM     10  O   UNL     1       6.415   5.179  19.649  0.00  0.00    +0.000 OA
ENDBRANCH   8   9
ENDBRANCH   7   8
TORSDOF 2
ENDMDL
MODEL 2
REMARK VINA RESULT:      -4.8      2.566      3.807
REMARK  Name = 
REMARK  3 active torsions:
REMARK  status: ('A' for Active; 'I' for Inactive)
REMARK    1  A    between atoms: C_1  and  N_2
REMARK    2  A    between atoms: C_7  and  C_8
REMARK    3  A    between atoms: C_8  and  N_9
REMARK                            x       y       z     vdW  Elec       q    Type
REMARK                         _______ _______ _______ _____ _____    ______ ____
ROOT
ATOM      1  C   UNL     1       6.704   5.508  19.455  0.00  0.00    +0.000 C 
ATOM      2  N   UNL     1       5.606   4.972  18.618  0.00  0.00    +0.000 N 
ATOM      3  C   UNL     1       4.359   4.933  19.154  0.00  0.00    +0.000 A 
ATOM      4  C   UNL     1       3.289   4.393  18.456  0.00  0.00    +0.000 A 
ATOM      5  C   UNL     1       3.495   3.871  17.193  0.00  0.00    +0.000 A 
ATOM      6  C   UNL     1       4.766   3.924  16.640  0.00  0.00    +0.000 A 
ATOM      7  C   UNL     1       5.836   4.502  17.353  0.00  0.00    +0.000 A 
ENDROOT
BRANCH   7   8
ATOM      8  C   UNL     1       7.201   4.549  16.707  0.00  0.00    +0.000 C 
BRANCH   8   9
ATOM      9  N   UNL     1       7.292   5.704  15.776  0.00  0.00    +0.000 NA
ATOM     10  O   UNL     1       7.636   6.740  16.357  0.00  0.00    +0.000 OA
ENDBRANCH   8   9
ENDBRANCH   7   8
TORSDOF 2
ENDMDL
MODEL 3
REMARK VINA RESULT:      -4.7      1.486      1.646
REMARK  Name = 
REMARK  3 active torsions:
REMARK  status: ('A' for Active; 'I' for Inactive)
REMARK    1  A    between atoms: C_1  and  N_2
REMARK    2  A    between atoms: C_7  and  C_8
REMARK    3  A    between atoms: C_8  and  N_9
REMARK                            x       y       z     vdW  Elec       q    Type
REMARK                         _______ _______ _______ _____ _____    ______ ____
ROOT
ATOM      1  C   UNL     1       4.402   2.201  20.167  0.00  0.00    +0.000 C 
ATOM      2  N   UNL     1       3.508   3.042  19.339  0.00  0.00    +0.000 N 
ATOM      3  C   UNL     1       2.176   2.783  19.375  0.00  0.00    +0.000 A 
ATOM      4  C   UNL     1       1.280   3.488  18.586  0.00  0.00    +0.000 A 
ATOM      5  C   UNL     1       1.751   4.468  17.732  0.00  0.00    +0.000 A 
ATOM      6  C   UNL     1       3.110   4.743  17.706  0.00  0.00    +0.000 A 
ATOM      7  C   UNL     1       4.003   4.035  18.537  0.00  0.00    +0.000 A 
ENDROOT
BRANCH   7   8
ATOM      8  C   UNL     1       5.474   4.376  18.484  0.00  0.00    +0.000 C 
BRANCH   8   9
ATOM      9  N   UNL     1       5.806   5.389  19.519  0.00  0.00    +0.000 NA
ATOM     10  O   UNL     1       6.989   5.318  19.872  0.00  0.00    +0.000 OA
ENDBRANCH   8   9
ENDBRANCH   7   8
TORSDOF 2
ENDMDL
MODEL 4
REMARK VINA RESULT:      -4.7      2.194      2.629
REMARK  Name = 
REMARK  3 active torsions:
REMARK  status: ('A' for Active; 'I' for Inactive)
REMARK    1  A    between atoms: C_1  and  N_2
REMARK    2  A    between atoms: C_7  and  C_8
REMARK    3  A    between atoms: C_8  and  N_9
REMARK                            x       y       z     vdW  Elec       q    Type
REMARK                         _______ _______ _______ _____ _____    ______ ____
ROOT
ATOM      1  C   UNL     1       4.281   3.917  18.048  0.00  0.00    +0.000 C 
ATOM      2  N   UNL     1       3.270   3.684  19.104  0.00  0.00    +0.000 N 
ATOM      3  C   UNL     1       2.106   4.380  19.035  0.00  0.00    +0.000 A 
ATOM      4  C   UNL     1       1.132   4.261  20.016  0.00  0.00    +0.000 A 
ATOM      5  C   UNL     1       1.354   3.426  21.096  0.00  0.00    +0.000 A 
ATOM      6  C   UNL     1       2.536   2.704  21.158  0.00  0.00    +0.000 A 
ATOM      7  C   UNL     1       3.503   2.817  20.137  0.00  0.00    +0.000 A 
ENDROOT
BRANCH   7   8
ATOM      8  C   UNL     1       4.771   2.002  20.241  0.00  0.00    +0.000 C 
BRANCH   8   9
ATOM      9  N   UNL     1       4.911   1.436  21.608  0.00  0.00    +0.000 NA
ATOM     10  O   UNL     1       6.021   0.920  21.783  0.00  0.00    +0.000 OA
ENDBRANCH   8   9
ENDBRANCH   7   8
TORSDOF 2
ENDMDL
MODEL 5
REMARK VINA RESULT:      -4.7      2.637      3.536
REMARK  Name = 
REMARK  3 active torsions:
REMARK  status: ('A' for Active; 'I' for Inactive)
REMARK    1  A    between atoms: C_1  and  N_2
REMARK    2  A    between atoms: C_7  and  C_8
REMARK    3  A    between atoms: C_8  and  N_9
REMARK                            x       y       z     vdW  Elec       q    Type
REMARK                         _______ _______ _______ _____ _____    ______ ____
ROOT
ATOM      1  C   UNL     1       3.901   2.923  17.601  0.00  0.00    +0.000 C 
ATOM      2  N   UNL     1       4.058   4.391  17.482  0.00  0.00    +0.000 N 
ATOM      3  C   UNL     1       3.188   5.181  18.163  0.00  0.00    +0.000 A 
ATOM      4  C   UNL     1       3.233   6.563  18.058  0.00  0.00    +0.000 A 
ATOM      5  C   UNL     1       4.174   7.152  17.233  0.00  0.00    +0.000 A 
ATOM      6  C   UNL     1       5.071   6.346  16.551  0.00  0.00    +0.000 A 
ATOM      7  C   UNL     1       5.029   4.943  16.691  0.00  0.00    +0.000 A 
ENDROOT
BRANCH   7   8
ATOM      8  C   UNL     1       6.034   4.104  15.937  0.00  0.00    +0.000 C 
BRANCH   8   9
ATOM      9  N   UNL     1       7.389   4.707  16.038  0.00  0.00    +0.000 NA
ATOM     10  O   UNL     1       7.972   4.361  17.071  0.00  0.00    +0.000 OA
ENDBRANCH   8   9
ENDBRANCH   7   8
TORSDOF 2
ENDMDL
MODEL 6
REMARK VINA RESULT:      -4.7      1.190      1.263
REMARK  Name = 
REMARK  3 active torsions:
REMARK  status: ('A' for Active; 'I' for Inactive)
REMARK    1  A    between atoms: C_1  and  N_2
REMARK    2  A    between atoms: C_7  and  C_8
REMARK    3  A    between atoms: C_8  and  N_9
REMARK                            x       y       z     vdW  Elec       q    Type
REMARK                         _______ _______ _______ _____ _____    ______ ____
ROOT
ATOM      1  C   UNL     1       3.170   3.653  17.052  0.00  0.00    +0.000 C 
ATOM      2  N   UNL     1       2.601   3.710  18.418  0.00  0.00    +0.000 N 
ATOM      3  C   UNL     1       1.431   3.060  18.649  0.00  0.00    +0.000 A 
ATOM      4  C   UNL     1       0.806   3.113  19.886  0.00  0.00    +0.000 A 
ATOM      5  C   UNL     1       1.375   3.854  20.904  0.00  0.00    +0.000 A 
ATOM      6  C   UNL     1       2.577   4.506  20.673  0.00  0.00    +0.000 A 
ATOM      7  C   UNL     1       3.213   4.418  19.417  0.00  0.00    +0.000 A 
ENDROOT
BRANCH   7   8
ATOM      8  C   UNL     1       4.527   5.135  19.214  0.00  0.00    +0.000 C 
BRANCH   8   9
ATOM      9  N   UNL     1       5.664   4.200  19.426  0.00  0.00    +0.000 NA
ATOM     10  O   UNL     1       6.592   4.417  18.640  0.00  0.00    +0.000 OA
ENDBRANCH   8   9
ENDBRANCH   7   8
TORSDOF 2
ENDMDL
MODEL 7
REMARK VINA RESULT:      -4.6      3.107      4.182
REMARK  Name = 
REMARK  3 active torsions:
REMARK  status: ('A' for Active; 'I' for Inactive)
REMARK    1  A    between atoms: C_1  and  N_2
REMARK    2  A    between atoms: C_7  and  C_8
REMARK    3  A    between atoms: C_8  and  N_9
REMARK                            x       y       z     vdW  Elec       q    Type
REMARK                         _______ _______ _______ _____ _____    ______ ____
ROOT
ATOM      1  C   UNL     1       7.748   4.637  17.893  0.00  0.00    +0.000 C 
ATOM      2  N   UNL     1       6.268   4.684  17.908  0.00  0.00    +0.000 N 
ATOM      3  C   UNL     1       5.653   4.994  19.078  0.00  0.00    +0.000 A 
ATOM      4  C   UNL     1       4.270   5.003  19.188  0.00  0.00    +0.000 A 
ATOM      5  C   UNL     1       3.498   4.676  18.088  0.00  0.00    +0.000 A 
ATOM      6  C   UNL     1       4.127   4.375  16.890  0.00  0.00    +0.000 A 
ATOM      7  C   UNL     1       5.533   4.398  16.789  0.00  0.00    +0.000 A 
ENDROOT
BRANCH   7   8
ATOM      8  C   UNL     1       6.174   4.073  15.460  0.00  0.00    +0.000 C 
BRANCH   8   9
ATOM      9  N   UNL     1       6.471   5.323  14.711  0.00  0.00    +0.000 NA
ATOM     10  O   UNL     1       7.674   5.426  14.446  0.00  0.00    +0.000 OA
ENDBRANCH   8   9
ENDBRANCH   7   8
TORSDOF 2
ENDMDL
MODEL 8
REMARK VINA RESULT:      -4.6      2.539      3.554
REMARK  Name = 
REMARK  3 active torsions:
REMARK  status: ('A' for Active; 'I' for Inactive)
REMARK    1  A    between atoms: C_1  and  N_2
REMARK    2  A    between atoms: C_7  and  C_8
REMARK    3  A    between atoms: C_8  and  N_9
REMARK                            x       y       z     vdW  Elec       q    Type
REMARK                         _______ _______ _______ _____ _____    ______ ____
ROOT
ATOM      1  C   UNL     1       0.825   2.513  18.704  0.00  0.00    +0.000 C 
ATOM      2  N   UNL     1       2.074   3.302  18.601  0.00  0.00    +0.000 N 
ATOM      3  C   UNL     1       2.804   3.193  17.461  0.00  0.00    +0.000 A 
ATOM      4  C   UNL     1       4.014   3.855  17.311  0.00  0.00    +0.000 A 
ATOM      5  C   UNL     1       4.496   4.634  18.346  0.00  0.00    +0.000 A 
ATOM      6  C   UNL     1       3.743   4.758  19.504  0.00  0.00    +0.000 A 
ATOM      7  C   UNL     1       2.502   4.099  19.629  0.00  0.00    +0.000 A 
ENDROOT
BRANCH   7   8
ATOM      8  C   UNL     1       1.710   4.272  20.903  0.00  0.00    +0.000 C 
BRANCH   8   9
ATOM      9  N   UNL     1       2.263   3.406  21.977  0.00  0.00    +0.000 NA
ATOM     10  O   UNL     1       1.545   2.423  22.192  0.00  0.00    +0.000 OA
ENDBRANCH   8   9
ENDBRANCH   7   8
TORSDOF 2
ENDMDL
MODEL 9
REMARK VINA RESULT:      -4.6      1.374      1.770
REMARK  Name = 
REMARK  3 active torsions:
REMARK  status: ('A' for Active; 'I' for Inactive)
REMARK    1  A    between atoms: C_1  and  N_2
REMARK    2  A    between atoms: C_7  and  C_8
REMARK    3  A    between atoms: C_8  and  N_9
REMARK                            x       y       z     vdW  Elec       q    Type
REMARK                         _______ _______ _______ _____ _____    ______ ____
ROOT
ATOM      1  C   UNL     1       1.586   4.336  17.734  0.00  0.00    +0.000 C 
ATOM      2  N   UNL     1       1.931   3.688  19.020  0.00  0.00    +0.000 N 
ATOM      3  C   UNL     1       0.936   3.496  19.924  0.00  0.00    +0.000 A 
ATOM      4  C   UNL     1       1.188   2.948  21.173  0.00  0.00    +0.000 A 
ATOM      5  C   UNL     1       2.483   2.601  21.513  0.00  0.00    +0.000 A 
ATOM      6  C   UNL     1       3.496   2.782  20.585  0.00  0.00    +0.000 A 
ATOM      7  C   UNL     1       3.216   3.315  19.309  0.00  0.00    +0.000 A 
ENDROOT
BRANCH   7   8
ATOM      8  C   UNL     1       4.350   3.484  18.325  0.00  0.00    +0.000 C 
BRANCH   8   9
ATOM      9  N   UNL     1       5.206   4.634  18.717  0.00  0.00    +0.000 NA
ATOM     10  O   UNL     1       6.376   4.290  18.921  0.00  0.00    +0.000 OA
ENDBRANCH   8   9
ENDBRANCH   7   8
TORSDOF 2
ENDMDL
