MODEL 1
REMARK VINA RESULT:      -5.9      0.000      0.000
REMARK  Name = 
REMARK  9 active torsions:
REMARK  status: ('A' for Active; 'I' for Inactive)
REMARK    1  A    between atoms: C_1  and  C_2
REMARK    2  A    between atoms: C_2  and  C_3
REMARK    3  A    between atoms: C_3  and  C_4
REMARK    4  A    between atoms: C_4  and  C_5
REMARK    5  A    between atoms: C_5  and  O_7
REMARK    6  A    between atoms: C_9  and  CA_10
REMARK    7  A    between atoms: CA_10  and  N_11
REMARK    8  A    between atoms: CA_10  and  C_12
REMARK    9  A    between atoms: C_12  and  OXT_14
REMARK                            x       y       z     vdW  Elec       q    Type
REMARK                         _______ _______ _______ _____ _____    ______ ____
ROOT
ATOM      1  C   UNL     1       3.842   3.865  17.534  0.00  0.00    +0.000 C 
ATOM      2  C   UNL     1       4.305   5.302  17.324  0.00  0.00    +0.000 C 
ATOM      3  C   UNL     1       4.655   4.271  16.288  0.00  0.00    +0.000 C 
ENDROOT
BRANCH   1   4
ATOM      4  C   UNL     1       4.507   3.103  18.643  0.00  0.00    +0.000 C 
ATOM      5  O   UNL     1       5.233   3.653  19.457  0.00  0.00    +0.000 OA
BRANCH   4   6
ATOM      6  O   UNL     1       4.262   1.776  18.620  0.00  0.00    +0.000 OA
ATOM      7  H   UNL     1       3.663   1.518  17.894  0.00  0.00    +0.000 HD
ENDBRANCH   4   6
ENDBRANCH   1   4
BRANCH   1   8
ATOM      8  C   UNL     1       2.406   3.460  17.251  0.00  0.00    +0.000 C 
BRANCH   8  10
ATOM      9  C   UNL     1       0.798   2.621  18.979  0.00  0.00    +0.000 C 
ATOM     10  C   UNL     1       1.425   3.858  18.352  0.00  0.00    +0.000 C 
ENDBRANCH   8  10
ENDBRANCH   1   8
BRANCH   3  11
ATOM     11  CA  UNL     1       6.063   3.787  16.058  0.00  0.00    +0.000 C 
BRANCH  11  12
ATOM     12  N   UNL     1       6.261   3.640  14.591  0.00  0.00    +0.000 NA
ATOM     13  H1  UNL     1       6.848   2.820  14.419  0.00  0.00    +0.000 HD
ATOM     14  H2  UNL     1       6.818   4.441  14.273  0.00  0.00    +0.000 HD
ENDBRANCH  11  12
BRANCH  11  15
ATOM     15  C   UNL     1       7.159   4.733  16.583  0.00  0.00    +0.000 C 
ATOM     16  O   UNL     1       7.510   5.785  16.070  0.00  0.00    +0.000 OA
BRANCH  15  17
ATOM     17  OXT UNL     1       7.686   4.262  17.749  0.00  0.00    +0.000 OA
ATOM     18  HXT UNL     1       6.934   3.857  18.247  0.00  0.00    +0.000 HD
ENDBRANCH  15  17
ENDBRANCH  11  15
ENDBRANCH   3  11
TORSDOF 8
ENDMDL
MODEL 2
REMARK VINA RESULT:      -5.7      0.687      1.066
REMARK  Name = 
REMARK  9 active torsions:
REMARK  status: ('A' for Active; 'I' for Inactive)
REMARK    1  A    between atoms: C_1  and  C_2
REMARK    2  A    between atoms: C_2  and  C_3
REMARK    3  A    between atoms: C_3  and  C_4
REMARK    4  A    between atoms: C_4  and  C_5
REMARK    5  A    between atoms: C_5  and  O_7
REMARK    6  A    between atoms: C_9  and  CA_10
REMARK    7  A    between atoms: CA_10  and  N_11
REMARK    8  A    between atoms: CA_10  and  C_12
REMARK    9  A    between atoms: C_12  and  OXT_14
REMARK                            x       y       z     vdW  Elec       q    Type
REMARK                         _______ _______ _______ _____ _____    ______ ____
ROOT
ATOM      1  C   UNL     1       3.761   4.077  17.886  0.00  0.00    +0.000 C 
ATOM      2  C   UNL     1       4.613   5.281  18.273  0.00  0.00    +0.000 C 
ATOM      3  C   UNL     1       4.592   4.842  16.836  0.00  0.00    +0.000 C 
ENDROOT
BRANCH   1   4
ATOM      4  C   UNL     1       4.230   2.739  18.378  0.00  0.00    +0.000 C 
ATOM      5  O   UNL     1       3.801   1.695  17.911  0.00  0.00    +0.000 OA
BRANCH   4   6
ATOM      6  O   UNL     1       5.117   2.809  19.392  0.00  0.00    +0.000 OA
ATOM      7  H   UNL     1       5.117   3.680  19.832  0.00  0.00    +0.000 HD
ENDBRANCH   4   6
ENDBRANCH   1   4
BRANCH   1   8
ATOM      8  C   UNL     1       2.256   4.208  17.721  0.00  0.00    +0.000 C 
BRANCH   8  10
ATOM      9  C   UNL     1       0.677   2.811  19.074  0.00  0.00    +0.000 C 
ATOM     10  C   UNL     1       1.482   4.102  19.033  0.00  0.00    +0.000 C 
ENDBRANCH   8  10
ENDBRANCH   1   8
BRANCH   3  11
ATOM     11  CA  UNL     1       5.783   4.222  16.152  0.00  0.00    +0.000 C 
BRANCH  11  12
ATOM     12  N   UNL     1       5.553   4.286  14.685  0.00  0.00    +0.000 NA
ATOM     13  H1  UNL     1       4.668   3.819  14.469  0.00  0.00    +0.000 HD
ATOM     14  H2  UNL     1       6.275   3.716  14.233  0.00  0.00    +0.000 HD
ENDBRANCH  11  12
BRANCH  11  15
ATOM     15  C   UNL     1       7.124   4.922  16.442  0.00  0.00    +0.000 C 
ATOM     16  O   UNL     1       7.429   6.060  16.116  0.00  0.00    +0.000 OA
BRANCH  15  17
ATOM     17  OXT UNL     1       7.947   4.111  17.166  0.00  0.00    +0.000 OA
ATOM     18  HXT UNL     1       8.322   3.458  16.525  0.00  0.00    +0.000 HD
ENDBRANCH  15  17
ENDBRANCH  11  15
ENDBRANCH   3  11
TORSDOF 8
ENDMDL
MODEL 3
REMARK VINA RESULT:      -5.6      1.863      2.148
REMARK  Name = 
REMARK  9 active torsions:
REMARK  status: ('A' for Active; 'I' for Inactive)
REMARK    1  A    between atoms: C_1  and  C_2
REMARK    2  A    between atoms: C_2  and  C_3
REMARK    3  A    between atoms: C_3  and  C_4
REMARK    4  A    between atoms: C_4  and  C_5
REMARK    5  A    between atoms: C_5  and  O_7
REMARK    6  A    between atoms: C_9  and  CA_10
REMARK    7  A    between atoms: CA_10  and  N_11
REMARK    8  A    between atoms: CA_10  and  C_12
REMARK    9  A    between atoms: C_12  and  OXT_14
REMARK                            x       y       z     vdW  Elec       q    Type
REMARK                         _______ _______ _______ _____ _____    ______ ____
ROOT
ATOM      1  C   UNL     1       3.688   4.590  18.159  0.00  0.00    +0.000 C 
ATOM      2  C   UNL     1       5.136   4.689  18.627  0.00  0.00    +0.000 C 
ATOM      3  C   UNL     1       4.702   5.505  17.442  0.00  0.00    +0.000 C 
ENDROOT
BRANCH   1   4
ATOM      4  C   UNL     1       3.276   3.293  17.527  0.00  0.00    +0.000 C 
ATOM      5  O   UNL     1       2.216   3.176  16.931  0.00  0.00    +0.000 OA
BRANCH   4   6
ATOM      6  O   UNL     1       4.154   2.287  17.719  0.00  0.00    +0.000 OA
ATOM      7  H   UNL     1       3.722   1.413  17.749  0.00  0.00    +0.000 HD
ENDBRANCH   4   6
ENDBRANCH   1   4
BRANCH   1   8
ATOM      8  C   UNL     1       2.581   5.325  18.895  0.00  0.00    +0.000 C 
BRANCH   8  10
ATOM      9  C   UNL     1       1.015   4.058  20.385  0.00  0.00    +0.000 C 
ATOM     10  C   UNL     1       2.335   4.811  20.312  0.00  0.00    +0.000 C 
ENDBRANCH   8  10
ENDBRANCH   1   8
BRANCH   3  11
ATOM     11  CA  UNL     1       5.176   5.227  16.039  0.00  0.00    +0.000 C 
BRANCH  11  12
ATOM     12  N   UNL     1       5.436   6.534  15.378  0.00  0.00    +0.000 NA
ATOM     13  H1  UNL     1       4.556   6.892  14.999  0.00  0.00    +0.000 HD
ATOM     14  H2  UNL     1       6.028   6.354  14.560  0.00  0.00    +0.000 HD
ENDBRANCH  11  12
BRANCH  11  15
ATOM     15  C   UNL     1       6.471   4.398  15.953  0.00  0.00    +0.000 C 
ATOM     16  O   UNL     1       7.603   4.804  16.169  0.00  0.00    +0.000 OA
BRANCH  15  17
ATOM     17  OXT UNL     1       6.195   3.101  15.635  0.00  0.00    +0.000 OA
ATOM     18  HXT UNL     1       7.048   2.704  15.332  0.00  0.00    +0.000 HD
ENDBRANCH  15  17
ENDBRANCH  11  15
ENDBRANCH   3  11
TORSDOF 8
ENDMDL
MODEL 4
REMARK VINA RESULT:      -5.6      1.432      1.570
REMARK  Name = 
REMARK  9 active torsions:
REMARK  status: ('A' for Active; 'I' for Inactive)
REMARK    1  A    between atoms: C_1  and  C_2
REMARK    2  A    between atoms: C_2  and  C_3
REMARK    3  A    between atoms: C_3  and  C_4
REMARK    4  A    between atoms: C_4  and  C_5
REMARK    5  A    between atoms: C_5  and  O_7
REMARK    6  A    between atoms: C_9  and  CA_10
REMARK    7  A    between atoms: CA_10  and  N_11
REMARK    8  A    between atoms: CA_10  and  C_12
REMARK    9  A    between atoms: C_12  and  OXT_14
REMARK                            x       y       z     vdW  Elec       q    Type
REMARK                         _______ _______ _______ _____ _____    ______ ____
ROOT
ATOM      1  C   UNL     1       4.454   4.627  17.770  0.00  0.00    +0.000 C 
ATOM      2  C   UNL     1       4.403   6.144  17.628  0.00  0.00    +0.000 C 
ATOM      3  C   UNL     1       5.279   5.360  16.692  0.00  0.00    +0.000 C 
ENDROOT
BRANCH   1   4
ATOM      4  C   UNL     1       5.135   4.092  18.995  0.00  0.00    +0.000 C 
ATOM      5  O   UNL     1       5.691   4.828  19.796  0.00  0.00    +0.000 OA
BRANCH   4   6
ATOM      6  O   UNL     1       5.108   2.746  19.093  0.00  0.00    +0.000 OA
ATOM      7  H   UNL     1       5.210   2.436  20.012  0.00  0.00    +0.000 HD
ENDBRANCH   4   6
ENDBRANCH   1   4
BRANCH   1   8
ATOM      8  C   UNL     1       3.333   3.757  17.227  0.00  0.00    +0.000 C 
BRANCH   8  10
ATOM      9  C   UNL     1       1.457   3.386  18.846  0.00  0.00    +0.000 C 
ATOM     10  C   UNL     1       1.939   4.207  17.659  0.00  0.00    +0.000 C 
ENDBRANCH   8  10
ENDBRANCH   1   8
BRANCH   3  11
ATOM     11  CA  UNL     1       6.784   5.417  16.738  0.00  0.00    +0.000 C 
BRANCH  11  12
ATOM     12  N   UNL     1       7.286   5.361  15.339  0.00  0.00    +0.000 NA
ATOM     13  H1  UNL     1       8.177   5.863  15.289  0.00  0.00    +0.000 HD
ATOM     14  H2  UNL     1       6.639   5.902  14.756  0.00  0.00    +0.000 HD
ENDBRANCH  11  12
BRANCH  11  15
ATOM     15  C   UNL     1       7.357   6.691  17.387  0.00  0.00    +0.000 C 
ATOM     16  O   UNL     1       7.394   7.803  16.882  0.00  0.00    +0.000 OA
BRANCH  15  17
ATOM     17  OXT UNL     1       7.799   6.433  18.651  0.00  0.00    +0.000 OA
ATOM     18  HXT UNL     1       8.786   6.405  18.597  0.00  0.00    +0.000 HD
ENDBRANCH  15  17
ENDBRANCH  11  15
ENDBRANCH   3  11
TORSDOF 8
ENDMDL
MODEL 5
REMARK VINA RESULT:      -5.6      1.042      1.650
REMARK  Name = 
REMARK  9 active torsions:
REMARK  status: ('A' for Active; 'I' for Inactive)
REMARK    1  A    between atoms: C_1  and  C_2
REMARK    2  A    between atoms: C_2  and  C_3
REMARK    3  A    between atoms: C_3  and  C_4
REMARK    4  A    between atoms: C_4  and  C_5
REMARK    5  A    between atoms: C_5  and  O_7
REMARK    6  A    between atoms: C_9  and  CA_10
REMARK    7  A    between atoms: CA_10  and  N_11
REMARK    8  A    between atoms: CA_10  and  C_12
REMARK    9  A    between atoms: C_12  and  OXT_14
REMARK                            x       y       z     vdW  Elec       q    Type
REMARK                         _______ _______ _______ _____ _____    ______ ____
ROOT
ATOM      1  C   UNL     1       3.807   4.210  18.083  0.00  0.00    +0.000 C 
ATOM      2  C   UNL     1       4.834   5.262  18.489  0.00  0.00    +0.000 C 
ATOM      3  C   UNL     1       4.669   4.938  17.030  0.00  0.00    +0.000 C 
ENDROOT
BRANCH   1   4
ATOM      4  C   UNL     1       4.121   2.791  18.452  0.00  0.00    +0.000 C 
ATOM      5  O   UNL     1       3.600   1.846  17.878  0.00  0.00    +0.000 OA
BRANCH   4   6
ATOM      6  O   UNL     1       4.981   2.670  19.485  0.00  0.00    +0.000 OA
ATOM      7  H   UNL     1       5.305   3.533  19.806  0.00  0.00    +0.000 HD
ENDBRANCH   4   6
ENDBRANCH   1   4
BRANCH   1   8
ATOM      8  C   UNL     1       2.327   4.548  18.032  0.00  0.00    +0.000 C 
BRANCH   8  10
ATOM      9  C   UNL     1       1.735   5.101  20.403  0.00  0.00    +0.000 C 
ATOM     10  C   UNL     1       1.550   4.102  19.269  0.00  0.00    +0.000 C 
ENDBRANCH   8  10
ENDBRANCH   1   8
BRANCH   3  11
ATOM     11  CA  UNL     1       5.724   4.222  16.227  0.00  0.00    +0.000 C 
BRANCH  11  12
ATOM     12  N   UNL     1       5.389   4.384  14.787  0.00  0.00    +0.000 NA
ATOM     13  H1  UNL     1       5.983   5.117  14.391  0.00  0.00    +0.000 HD
ATOM     14  H2  UNL     1       4.434   4.752  14.731  0.00  0.00    +0.000 HD
ENDBRANCH  11  12
BRANCH  11  15
ATOM     15  C   UNL     1       7.155   4.751  16.433  0.00  0.00    +0.000 C 
ATOM     16  O   UNL     1       7.984   4.304  17.212  0.00  0.00    +0.000 OA
BRANCH  15  17
ATOM     17  OXT UNL     1       7.414   5.789  15.588  0.00  0.00    +0.000 OA
ATOM     18  HXT UNL     1       7.693   5.383  14.731  0.00  0.00    +0.000 HD
ENDBRANCH  15  17
ENDBRANCH  11  15
ENDBRANCH   3  11
TORSDOF 8
ENDMDL
MODEL 6
REMARK VINA RESULT:      -5.6      1.505      1.815
REMARK  Name = 
REMARK  9 active torsions:
REMARK  status: ('A' for Active; 'I' for Inactive)
REMARK    1  A    between atoms: C_1  and  C_2
REMARK    2  A    between atoms: C_2  and  C_3
REMARK    3  A    between atoms: C_3  and  C_4
REMARK    4  A    between atoms: C_4  and  C_5
REMARK    5  A    between atoms: C_5  and  O_7
REMARK    6  A    between atoms: C_9  and  CA_10
REMARK    7  A    between atoms: CA_10  and  N_11
REMARK    8  A    between atoms: CA_10  and  C_12
REMARK    9  A    between atoms: C_12  and  OXT_14
REMARK                            x       y       z     vdW  Elec       q    Type
REMARK                         _______ _______ _______ _____ _____    ______ ____
ROOT
ATOM      1  C   UNL     1       3.791   4.791  18.431  0.00  0.00    +0.000 C 
ATOM      2  C   UNL     1       4.858   5.715  19.009  0.00  0.00    +0.000 C 
ATOM      3  C   UNL     1       4.514   5.830  17.550  0.00  0.00    +0.000 C 
ENDROOT
BRANCH   1   4
ATOM      4  C   UNL     1       4.152   3.339  18.321  0.00  0.00    +0.000 C 
ATOM      5  O   UNL     1       3.484   2.558  17.659  0.00  0.00    +0.000 OA
BRANCH   4   6
ATOM      6  O   UNL     1       5.235   2.987  19.044  0.00  0.00    +0.000 OA
ATOM      7  H   UNL     1       5.012   2.747  19.962  0.00  0.00    +0.000 HD
ENDBRANCH   4   6
ENDBRANCH   1   4
BRANCH   1   8
ATOM      8  C   UNL     1       2.315   5.069  18.658  0.00  0.00    +0.000 C 
BRANCH   8  10
ATOM      9  C   UNL     1       1.023   3.787  20.381  0.00  0.00    +0.000 C 
ATOM     10  C   UNL     1       1.895   5.009  20.126  0.00  0.00    +0.000 C 
ENDBRANCH   8  10
ENDBRANCH   1   8
BRANCH   3  11
ATOM     11  CA  UNL     1       5.462   5.426  16.452  0.00  0.00    +0.000 C 
BRANCH  11  12
ATOM     12  N   UNL     1       5.258   6.354  15.308  0.00  0.00    +0.000 NA
ATOM     13  H1  UNL     1       4.441   6.939  15.500  0.00  0.00    +0.000 HD
ATOM     14  H2  UNL     1       4.998   5.788  14.493  0.00  0.00    +0.000 HD
ENDBRANCH  11  12
BRANCH  11  15
ATOM     15  C   UNL     1       6.952   5.485  16.837  0.00  0.00    +0.000 C 
ATOM     16  O   UNL     1       7.668   6.474  16.799  0.00  0.00    +0.000 OA
BRANCH  15  17
ATOM     17  OXT UNL     1       7.386   4.270  17.280  0.00  0.00    +0.000 OA
ATOM     18  HXT UNL     1       6.584   3.795  17.611  0.00  0.00    +0.000 HD
ENDBRANCH  15  17
ENDBRANCH  11  15
ENDBRANCH   3  11
TORSDOF 8
ENDMDL
MODEL 7
REMARK VINA RESULT:      -5.5      1.354      1.859
REMARK  Name = 
REMARK  9 active torsions:
REMARK  status: ('A' for Active; 'I' for Inactive)
REMARK    1  A    between atoms: C_1  and  C_2
REMARK    2  A    between atoms: C_2  and  C_3
REMARK    3  A    between atoms: C_3  and  C_4
REMARK    4  A    between atoms: C_4  and  C_5
REMARK    5  A    between atoms: C_5  and  O_7
REMARK    6  A    between atoms: C_9  and  CA_10
REMARK    7  A    between atoms: CA_10  and  N_11
REMARK    8  A    between atoms: CA_10  and  C_12
REMARK    9  A    between atoms: C_12  and  OXT_14
REMARK                            x       y       z     vdW  Elec       q    Type
REMARK                         _______ _______ _______ _____ _____    ______ ____
ROOT
ATOM      1  C   UNL     1       4.199   4.906  17.923  0.00  0.00    +0.000 C 
ATOM      2  C   UNL     1       5.170   6.063  17.713  0.00  0.00    +0.000 C 
ATOM      3  C   UNL     1       4.762   5.236  16.526  0.00  0.00    +0.000 C 
ENDROOT
BRANCH   1   4
ATOM      4  C   UNL     1       4.724   3.720  18.678  0.00  0.00    +0.000 C 
ATOM      5  O   UNL     1       4.060   2.705  18.825  0.00  0.00    +0.000 OA
BRANCH   4   6
ATOM      6  O   UNL     1       5.955   3.904  19.199  0.00  0.00    +0.000 OA
ATOM      7  H   UNL     1       5.971   3.800  20.169  0.00  0.00    +0.000 HD
ENDBRANCH   4   6
ENDBRANCH   1   4
BRANCH   1   8
ATOM      8  C   UNL     1       2.710   5.159  18.082  0.00  0.00    +0.000 C 
BRANCH   8  10
ATOM      9  C   UNL     1       1.770   5.096  20.404  0.00  0.00    +0.000 C 
ATOM     10  C   UNL     1       2.354   5.986  19.316  0.00  0.00    +0.000 C 
ENDBRANCH   8  10
ENDBRANCH   1   8
BRANCH   3  11
ATOM     11  CA  UNL     1       5.711   4.313  15.807  0.00  0.00    +0.000 C 
BRANCH  11  12
ATOM     12  N   UNL     1       5.384   4.360  14.357  0.00  0.00    +0.000 NA
ATOM     13  H1  UNL     1       4.982   5.275  14.139  0.00  0.00    +0.000 HD
ATOM     14  H2  UNL     1       4.627   3.688  14.189  0.00  0.00    +0.000 HD
ENDBRANCH  11  12
BRANCH  11  15
ATOM     15  C   UNL     1       7.200   4.679  15.958  0.00  0.00    +0.000 C 
ATOM     16  O   UNL     1       7.938   4.334  16.869  0.00  0.00    +0.000 OA
BRANCH  15  17
ATOM     17  OXT UNL     1       7.624   5.428  14.900  0.00  0.00    +0.000 OA
ATOM     18  HXT UNL     1       7.285   4.975  14.089  0.00  0.00    +0.000 HD
ENDBRANCH  15  17
ENDBRANCH  11  15
ENDBRANCH   3  11
TORSDOF 8
ENDMDL
MODEL 8
REMARK VINA RESULT:      -5.5      2.980      5.160
REMARK  Name = 
REMARK  9 active torsions:
REMARK  status: ('A' for Active; 'I' for Inactive)
REMARK    1  A    between atoms: C_1  and  C_2
REMARK    2  A    between atoms: C_2  and  C_3
REMARK    3  A    between atoms: C_3  and  C_4
REMARK    4  A    between atoms: C_4  and  C_5
REMARK    5  A    between atoms: C_5  and  O_7
REMARK    6  A    between atoms: C_9  and  CA_10
REMARK    7  A    between atoms: CA_10  and  N_11
REMARK    8  A    between atoms: CA_10  and  C_12
REMARK    9  A    between atoms: C_12  and  OXT_14
REMARK                            x       y       z     vdW  Elec       q    Type
REMARK                         _______ _______ _______ _____ _____    ______ ____
ROOT
ATOM      1  C   UNL     1       4.076   4.331  18.245  0.00  0.00    +0.000 C 
ATOM      2  C   UNL     1       2.863   3.406  18.242  0.00  0.00    +0.000 C 
ATOM      3  C   UNL     1       2.744   4.751  18.902  0.00  0.00    +0.000 C 
ENDROOT
BRANCH   1   4
ATOM      4  C   UNL     1       5.232   3.915  19.105  0.00  0.00    +0.000 C 
ATOM      5  O   UNL     1       6.138   4.687  19.384  0.00  0.00    +0.000 OA
BRANCH   4   6
ATOM      6  O   UNL     1       5.191   2.623  19.492  0.00  0.00    +0.000 OA
ATOM      7  H   UNL     1       6.051   2.304  19.824  0.00  0.00    +0.000 HD
ENDBRANCH   4   6
ENDBRANCH   1   4
BRANCH   1   8
ATOM      8  C   UNL     1       4.451   5.127  17.007  0.00  0.00    +0.000 C 
BRANCH   8  10
ATOM      9  C   UNL     1       6.562   4.595  15.767  0.00  0.00    +0.000 C 
ATOM     10  C   UNL     1       5.078   4.284  15.899  0.00  0.00    +0.000 C 
ENDBRANCH   8  10
ENDBRANCH   1   8
BRANCH   3  11
ATOM     11  CA  UNL     1       2.606   4.922  20.392  0.00  0.00    +0.000 C 
BRANCH  11  12
ATOM     12  N   UNL     1       1.948   6.232  20.642  0.00  0.00    +0.000 NA
ATOM     13  H1  UNL     1       2.612   6.981  20.428  0.00  0.00    +0.000 HD
ATOM     14  H2  UNL     1       1.777   6.304  21.651  0.00  0.00    +0.000 HD
ENDBRANCH  11  12
BRANCH  11  15
ATOM     15  C   UNL     1       1.761   3.838  21.085  0.00  0.00    +0.000 C 
ATOM     16  O   UNL     1       2.108   3.149  22.033  0.00  0.00    +0.000 OA
BRANCH  15  17
ATOM     17  OXT UNL     1       0.520   3.758  20.524  0.00  0.00    +0.000 OA
ATOM     18  HXT UNL     1       0.585   3.081  19.807  0.00  0.00    +0.000 HD
ENDBRANCH  15  17
ENDBRANCH  11  15
ENDBRANCH   3  11
TORSDOF 8
ENDMDL
MODEL 9
REMARK VINA RESULT:      -5.5      1.822      2.211
REMARK  Name = 
REMARK  9 active torsions:
REMARK  status: ('A' for Active; 'I' for Inactive)
REMARK    1  A    between atoms: C_1  and  C_2
REMARK    2  A    between atoms: C_2  and  C_3
REMARK    3  A    between atoms: C_3  and  C_4
REMARK    4  A    between atoms: C_4  and  C_5
REMARK    5  A    between atoms: C_5  and  O_7
REMARK    6  A    between atoms: C_9  and  CA_10
REMARK    7  A    between atoms: CA_10  and  N_11
REMARK    8  A    between atoms: CA_10  and  C_12
REMARK    9  A    between atoms: C_12  and  OXT_14
REMARK                            x       y       z     vdW  Elec       q    Type
REMARK                         _______ _______ _______ _____ _____    ______ ____
ROOT
ATOM      1  C   UNL     1       3.835   4.914  18.427  0.00  0.00    +0.000 C 
ATOM      2  C   UNL     1       5.178   5.186  19.096  0.00  0.00    +0.000 C 
ATOM      3  C   UNL     1       4.860   5.883  17.803  0.00  0.00    +0.000 C 
ENDROOT
BRANCH   1   4
ATOM      4  C   UNL     1       3.646   3.547  17.839  0.00  0.00    +0.000 C 
ATOM      5  O   UNL     1       2.748   3.306  17.045  0.00  0.00    +0.000 OA
BRANCH   4   6
ATOM      6  O   UNL     1       4.519   2.627  18.299  0.00  0.00    +0.000 OA
ATOM      7  H   UNL     1       5.255   2.466  17.680  0.00  0.00    +0.000 HD
ENDBRANCH   4   6
ENDBRANCH   1   4
BRANCH   1   8
ATOM      8  C   UNL     1       2.565   5.576  18.934  0.00  0.00    +0.000 C 
BRANCH   8  10
ATOM      9  C   UNL     1       1.063   4.185  20.379  0.00  0.00    +0.000 C 
ATOM     10  C   UNL     1       2.201   5.195  20.367  0.00  0.00    +0.000 C 
ENDBRANCH   8  10
ENDBRANCH   1   8
BRANCH   3  11
ATOM     11  CA  UNL     1       5.570   5.572  16.511  0.00  0.00    +0.000 C 
BRANCH  11  12
ATOM     12  N   UNL     1       5.228   6.640  15.534  0.00  0.00    +0.000 NA
ATOM     13  H1  UNL     1       6.039   7.254  15.419  0.00  0.00    +0.000 HD
ATOM     14  H2  UNL     1       4.503   7.228  15.959  0.00  0.00    +0.000 HD
ENDBRANCH  11  12
BRANCH  11  15
ATOM     15  C   UNL     1       7.105   5.517  16.620  0.00  0.00    +0.000 C 
ATOM     16  O   UNL     1       7.789   4.506  16.662  0.00  0.00    +0.000 OA
BRANCH  15  17
ATOM     17  OXT UNL     1       7.635   6.774  16.625  0.00  0.00    +0.000 OA
ATOM     18  HXT UNL     1       7.784   7.014  15.678  0.00  0.00    +0.000 HD
ENDBRANCH  15  17
ENDBRANCH  11  15
ENDBRANCH   3  11
TORSDOF 8
ENDMDL
