MODEL 1
REMARK VINA RESULT:      -7.6      0.000      0.000
REMARK  Name = 
REMARK  17 active torsions:
REMARK  status: ('A' for Active; 'I' for Inactive)
REMARK    1  A    between atoms: C_1  and  C_2
REMARK    2  A    between atoms: C_2  and  C_3
REMARK    3  A    between atoms: C_2  and  C_4
REMARK    4  A    between atoms: C_6  and  C_7
REMARK    5  A    between atoms: C_6  and  C_8
REMARK    6  A    between atoms: C_12  and  O_13
REMARK    7  A    between atoms: O_13  and  C_14
REMARK    8  A    between atoms: C_14  and  C_15
REMARK    9  A    between atoms: C_15  and  C_16
REMARK   10  A    between atoms: C_16  and  O_17
REMARK   11  A    between atoms: O_17  and  C_18
REMARK   12  A    between atoms: C_21  and  C_22
REMARK   13  A    between atoms: C_22  and  C_23
REMARK   14  A    between atoms: C_23  and  C_24
REMARK   15  A    between atoms: C_23  and  C_25
REMARK   16  A    between atoms: C_23  and  C_26
REMARK   17  A    between atoms: C_26  and  O_28
REMARK                            x       y       z     vdW  Elec       q    Type
REMARK                         _______ _______ _______ _____ _____    ______ ____
ROOT
ATOM      1  C   UNL     1       9.211   9.794  19.075  0.00  0.00    +0.000 C 
ENDROOT
BRANCH   1   2
ATOM      2  O   UNL     1      10.251  10.770  19.050  0.00  0.00    +0.000 OA
BRANCH   2  11
ATOM      3  C   UNL     1       9.411  14.864  22.906  0.00  0.00    +0.000 C 
ATOM      4  C   UNL     1       8.552  14.528  23.879  0.00  0.00    +0.000 C 
ATOM      5  C   UNL     1       7.874  13.187  24.006  0.00  0.00    +0.000 C 
ATOM      6  C   UNL     1       6.354  13.400  23.965  0.00  0.00    +0.000 C 
ATOM      7  C   UNL     1       8.267  12.573  25.356  0.00  0.00    +0.000 C 
ATOM      8  O   UNL     1       8.192  12.220  22.982  0.00  0.00    +0.000 OA
ATOM      9  C   UNL     1       9.057  12.576  21.980  0.00  0.00    +0.000 A 
ATOM     10  C   UNL     1       9.293  11.604  20.995  0.00  0.00    +0.000 A 
ATOM     11  C   UNL     1      10.165  11.836  19.909  0.00  0.00    +0.000 A 
ATOM     12  C   UNL     1      10.805  13.082  19.849  0.00  0.00    +0.000 A 
ATOM     13 CL   UNL     1      11.927  13.624  18.643  0.00  0.00    +0.000 Cl
ATOM     14  C   UNL     1      10.556  14.040  20.834  0.00  0.00    +0.000 A 
ATOM     15  C   UNL     1       9.682  13.820  21.905  0.00  0.00    +0.000 A 
BRANCH   3  17
ATOM     16  C   UNL     1       8.980  17.276  22.428  0.00  0.00    +0.000 C 
ATOM     17  C   UNL     1      10.051  16.243  22.800  0.00  0.00    +0.000 C 
ATOM     18  C   UNL     1      10.829  16.681  24.041  0.00  0.00    +0.000 C 
ENDBRANCH   3  17
ENDBRANCH   2  11
ENDBRANCH   1   2
BRANCH   1  19
ATOM     19  C   UNL     1       8.496   9.707  17.737  0.00  0.00    +0.000 C 
BRANCH  19  20
ATOM     20  C   UNL     1       7.362   8.700  17.819  0.00  0.00    +0.000 C 
BRANCH  20  21
ATOM     21  O   UNL     1       7.691   7.551  17.041  0.00  0.00    +0.000 OA
BRANCH  21  22
ATOM     22  C   UNL     1       6.806   6.512  17.154  0.00  0.00    +0.000 A 
ATOM     23  C   UNL     1       5.929   6.082  16.158  0.00  0.00    +0.000 A 
ATOM     24  C   UNL     1       5.042   5.037  16.404  0.00  0.00    +0.000 A 
ATOM     25  C   UNL     1       5.000   4.403  17.654  0.00  0.00    +0.000 A 
ATOM     26  C   UNL     1       5.879   4.848  18.652  0.00  0.00    +0.000 A 
ATOM     27  C   UNL     1       6.790   5.878  18.393  0.00  0.00    +0.000 A 
BRANCH  25  28
ATOM     28  C   UNL     1       3.964   3.330  17.907  0.00  0.00    +0.000 C 
BRANCH  28  29
ATOM     29  C   UNL     1       2.620   3.730  18.587  0.00  0.00    +0.000 C 
ATOM     30  C   UNL     1       2.140   5.101  18.083  0.00  0.00    +0.000 C 
ATOM     31  C   UNL     1       1.544   2.651  18.383  0.00  0.00    +0.000 C 
BRANCH  29  32
ATOM     32  C   UNL     1       2.894   3.835  20.097  0.00  0.00    +0.000 C 
ATOM     33  O   UNL     1       3.091   2.881  20.834  0.00  0.00    +0.000 OA
BRANCH  32  34
ATOM     34  O   UNL     1       2.901   5.098  20.585  0.00  0.00    +0.000 OA
ATOM     35  H   UNL     1       3.120   5.178  21.529  0.00  0.00    +0.000 HD
ENDBRANCH  32  34
ENDBRANCH  29  32
ENDBRANCH  28  29
ENDBRANCH  25  28
ENDBRANCH  21  22
ENDBRANCH  20  21
ENDBRANCH  19  20
ENDBRANCH   1  19
TORSDOF 11
ENDMDL
MODEL 2
REMARK VINA RESULT:      -7.4      1.719      2.381
REMARK  Name = 
REMARK  17 active torsions:
REMARK  status: ('A' for Active; 'I' for Inactive)
REMARK    1  A    between atoms: C_1  and  C_2
REMARK    2  A    between atoms: C_2  and  C_3
REMARK    3  A    between atoms: C_2  and  C_4
REMARK    4  A    between atoms: C_6  and  C_7
REMARK    5  A    between atoms: C_6  and  C_8
REMARK    6  A    between atoms: C_12  and  O_13
REMARK    7  A    between atoms: O_13  and  C_14
REMARK    8  A    between atoms: C_14  and  C_15
REMARK    9  A    between atoms: C_15  and  C_16
REMARK   10  A    between atoms: C_16  and  O_17
REMARK   11  A    between atoms: O_17  and  C_18
REMARK   12  A    between atoms: C_21  and  C_22
REMARK   13  A    between atoms: C_22  and  C_23
REMARK   14  A    between atoms: C_23  and  C_24
REMARK   15  A    between atoms: C_23  and  C_25
REMARK   16  A    between atoms: C_23  and  C_26
REMARK   17  A    between atoms: C_26  and  O_28
REMARK                            x       y       z     vdW  Elec       q    Type
REMARK                         _______ _______ _______ _____ _____    ______ ____
ROOT
ATOM      1  C   UNL     1       8.974  10.117  19.523  0.00  0.00    +0.000 C 
ENDROOT
BRANCH   1   2
ATOM      2  O   UNL     1      10.244  10.767  19.553  0.00  0.00    +0.000 OA
BRANCH   2  11
ATOM      3  C   UNL     1      10.153  16.423  20.139  0.00  0.00    +0.000 C 
ATOM      4  C   UNL     1       9.896  16.836  21.388  0.00  0.00    +0.000 C 
ATOM      5  C   UNL     1       9.683  15.926  22.572  0.00  0.00    +0.000 C 
ATOM      6  C   UNL     1       8.287  16.196  23.152  0.00  0.00    +0.000 C 
ATOM      7  C   UNL     1      10.746  16.253  23.629  0.00  0.00    +0.000 C 
ATOM      8  O   UNL     1       9.761  14.511  22.301  0.00  0.00    +0.000 OA
ATOM      9  C   UNL     1      10.005  14.093  21.018  0.00  0.00    +0.000 A 
ATOM     10  C   UNL     1      10.029  12.705  20.816  0.00  0.00    +0.000 A 
ATOM     11  C   UNL     1      10.275  12.139  19.546  0.00  0.00    +0.000 A 
ATOM     12  C   UNL     1      10.507  13.019  18.480  0.00  0.00    +0.000 A 
ATOM     13 CL   UNL     1      10.845  12.598  16.832  0.00  0.00    +0.000 Cl
ATOM     14  C   UNL     1      10.474  14.398  18.696  0.00  0.00    +0.000 A 
ATOM     15  C   UNL     1      10.218  14.964  19.951  0.00  0.00    +0.000 A 
BRANCH   3  17
ATOM     16  C   UNL     1       9.385  18.572  19.128  0.00  0.00    +0.000 C 
ATOM     17  C   UNL     1      10.333  17.378  18.965  0.00  0.00    +0.000 C 
ATOM     18  C   UNL     1      11.772  17.845  18.740  0.00  0.00    +0.000 C 
ENDBRANCH   3  17
ENDBRANCH   2  11
ENDBRANCH   1   2
BRANCH   1  19
ATOM     19  C   UNL     1       8.627   9.635  18.123  0.00  0.00    +0.000 C 
BRANCH  19  20
ATOM     20  C   UNL     1       8.225   8.172  18.164  0.00  0.00    +0.000 C 
BRANCH  20  21
ATOM     21  O   UNL     1       7.372   7.885  17.058  0.00  0.00    +0.000 OA
BRANCH  21  22
ATOM     22  C   UNL     1       6.503   6.845  17.261  0.00  0.00    +0.000 A 
ATOM     23  C   UNL     1       5.492   6.450  16.384  0.00  0.00    +0.000 A 
ATOM     24  C   UNL     1       4.640   5.400  16.720  0.00  0.00    +0.000 A 
ATOM     25  C   UNL     1       4.769   4.726  17.942  0.00  0.00    +0.000 A 
ATOM     26  C   UNL     1       5.782   5.137  18.821  0.00  0.00    +0.000 A 
ATOM     27  C   UNL     1       6.656   6.172  18.469  0.00  0.00    +0.000 A 
BRANCH  25  28
ATOM     28  C   UNL     1       3.771   3.649  18.304  0.00  0.00    +0.000 C 
BRANCH  28  29
ATOM     29  C   UNL     1       2.369   4.073  18.839  0.00  0.00    +0.000 C 
ATOM     30  C   UNL     1       2.507   5.098  19.976  0.00  0.00    +0.000 C 
ATOM     31  C   UNL     1       1.475   4.607  17.709  0.00  0.00    +0.000 C 
BRANCH  29  32
ATOM     32  C   UNL     1       1.702   2.808  19.403  0.00  0.00    +0.000 C 
ATOM     33  O   UNL     1       2.097   1.669  19.205  0.00  0.00    +0.000 OA
BRANCH  32  34
ATOM     34  O   UNL     1       0.603   3.036  20.161  0.00  0.00    +0.000 OA
ATOM     35  H   UNL     1      -0.241   3.045  19.678  0.00  0.00    +0.000 HD
ENDBRANCH  32  34
ENDBRANCH  29  32
ENDBRANCH  28  29
ENDBRANCH  25  28
ENDBRANCH  21  22
ENDBRANCH  20  21
ENDBRANCH  19  20
ENDBRANCH   1  19
TORSDOF 11
ENDMDL
MODEL 3
REMARK VINA RESULT:      -7.3      7.967     10.329
REMARK  Name = 
REMARK  17 active torsions:
REMARK  status: ('A' for Active; 'I' for Inactive)
REMARK    1  A    between atoms: C_1  and  C_2
REMARK    2  A    between atoms: C_2  and  C_3
REMARK    3  A    between atoms: C_2  and  C_4
REMARK    4  A    between atoms: C_6  and  C_7
REMARK    5  A    between atoms: C_6  and  C_8
REMARK    6  A    between atoms: C_12  and  O_13
REMARK    7  A    between atoms: O_13  and  C_14
REMARK    8  A    between atoms: C_14  and  C_15
REMARK    9  A    between atoms: C_15  and  C_16
REMARK   10  A    between atoms: C_16  and  O_17
REMARK   11  A    between atoms: O_17  and  C_18
REMARK   12  A    between atoms: C_21  and  C_22
REMARK   13  A    between atoms: C_22  and  C_23
REMARK   14  A    between atoms: C_23  and  C_24
REMARK   15  A    between atoms: C_23  and  C_25
REMARK   16  A    between atoms: C_23  and  C_26
REMARK   17  A    between atoms: C_26  and  O_28
REMARK                            x       y       z     vdW  Elec       q    Type
REMARK                         _______ _______ _______ _____ _____    ______ ____
ROOT
ATOM      1  C   UNL     1       0.009  10.195  19.421  0.00  0.00    +0.000 C 
ENDROOT
BRANCH   1   2
ATOM      2  O   UNL     1      -0.237  11.471  20.010  0.00  0.00    +0.000 OA
BRANCH   2  11
ATOM      3  C   UNL     1      -5.492  13.098  21.450  0.00  0.00    +0.000 C 
ATOM      4  C   UNL     1      -5.626  13.419  22.745  0.00  0.00    +0.000 C 
ATOM      5  C   UNL     1      -4.510  13.403  23.759  0.00  0.00    +0.000 C 
ATOM      6  C   UNL     1      -4.883  12.427  24.884  0.00  0.00    +0.000 C 
ATOM      7  C   UNL     1      -4.364  14.817  24.337  0.00  0.00    +0.000 C 
ATOM      8  O   UNL     1      -3.215  13.002  23.264  0.00  0.00    +0.000 OA
ATOM      9  C   UNL     1      -3.087  12.658  21.943  0.00  0.00    +0.000 A 
ATOM     10  C   UNL     1      -1.811  12.239  21.536  0.00  0.00    +0.000 A 
ATOM     11  C   UNL     1      -1.538  11.860  20.203  0.00  0.00    +0.000 A 
ATOM     12  C   UNL     1      -2.594  11.926  19.284  0.00  0.00    +0.000 A 
ATOM     13 CL   UNL     1      -2.535  11.536  17.595  0.00  0.00    +0.000 Cl
ATOM     14  C   UNL     1      -3.859  12.340  19.706  0.00  0.00    +0.000 A 
ATOM     15  C   UNL     1      -4.138  12.703  21.029  0.00  0.00    +0.000 A 
BRANCH   3  17
ATOM     16  C   UNL     1      -7.389  11.755  20.541  0.00  0.00    +0.000 C 
ATOM     17  C   UNL     1      -6.655  13.099  20.466  0.00  0.00    +0.000 C 
ATOM     18  C   UNL     1      -7.629  14.267  20.632  0.00  0.00    +0.000 C 
ENDBRANCH   3  17
ENDBRANCH   2  11
ENDBRANCH   1   2
BRANCH   1  19
ATOM     19  C   UNL     1       0.653  10.327  18.051  0.00  0.00    +0.000 C 
BRANCH  19  20
ATOM     20  C   UNL     1       2.136  10.016  18.142  0.00  0.00    +0.000 C 
BRANCH  20  21
ATOM     21  O   UNL     1       2.455   8.963  17.235  0.00  0.00    +0.000 OA
BRANCH  21  22
ATOM     22  C   UNL     1       2.760   7.767  17.831  0.00  0.00    +0.000 A 
ATOM     23  C   UNL     1       2.039   7.169  18.864  0.00  0.00    +0.000 A 
ATOM     24  C   UNL     1       2.472   5.968  19.421  0.00  0.00    +0.000 A 
ATOM     25  C   UNL     1       3.641   5.340  18.968  0.00  0.00    +0.000 A 
ATOM     26  C   UNL     1       4.365   5.955  17.935  0.00  0.00    +0.000 A 
ATOM     27  C   UNL     1       3.912   7.146  17.357  0.00  0.00    +0.000 A 
BRANCH  25  28
ATOM     28  C   UNL     1       4.122   4.082  19.657  0.00  0.00    +0.000 C 
BRANCH  28  29
ATOM     29  C   UNL     1       3.431   2.728  19.313  0.00  0.00    +0.000 C 
ATOM     30  C   UNL     1       2.184   2.514  20.185  0.00  0.00    +0.000 C 
ATOM     31  C   UNL     1       3.091   2.635  17.817  0.00  0.00    +0.000 C 
BRANCH  29  32
ATOM     32  C   UNL     1       4.444   1.614  19.631  0.00  0.00    +0.000 C 
ATOM     33  O   UNL     1       5.202   1.619  20.589  0.00  0.00    +0.000 OA
BRANCH  32  34
ATOM     34  O   UNL     1       4.450   0.585  18.750  0.00  0.00    +0.000 OA
ATOM     35  H   UNL     1       5.311   0.394  18.341  0.00  0.00    +0.000 HD
ENDBRANCH  32  34
ENDBRANCH  29  32
ENDBRANCH  28  29
ENDBRANCH  25  28
ENDBRANCH  21  22
ENDBRANCH  20  21
ENDBRANCH  19  20
ENDBRANCH   1  19
TORSDOF 11
ENDMDL
MODEL 4
REMARK VINA RESULT:      -7.3      2.696      3.231
REMARK  Name = 
REMARK  17 active torsions:
REMARK  status: ('A' for Active; 'I' for Inactive)
REMARK    1  A    between atoms: C_1  and  C_2
REMARK    2  A    between atoms: C_2  and  C_3
REMARK    3  A    between atoms: C_2  and  C_4
REMARK    4  A    between atoms: C_6  and  C_7
REMARK    5  A    between atoms: C_6  and  C_8
REMARK    6  A    between atoms: C_12  and  O_13
REMARK    7  A    between atoms: O_13  and  C_14
REMARK    8  A    between atoms: C_14  and  C_15
REMARK    9  A    between atoms: C_15  and  C_16
REMARK   10  A    between atoms: C_16  and  O_17
REMARK   11  A    between atoms: O_17  and  C_18
REMARK   12  A    between atoms: C_21  and  C_22
REMARK   13  A    between atoms: C_22  and  C_23
REMARK   14  A    between atoms: C_23  and  C_24
REMARK   15  A    between atoms: C_23  and  C_25
REMARK   16  A    between atoms: C_23  and  C_26
REMARK   17  A    between atoms: C_26  and  O_28
REMARK                            x       y       z     vdW  Elec       q    Type
REMARK                         _______ _______ _______ _____ _____    ______ ____
ROOT
ATOM      1  C   UNL     1       8.821  10.064  18.930  0.00  0.00    +0.000 C 
ENDROOT
BRANCH   1   2
ATOM      2  O   UNL     1       9.304  10.828  17.826  0.00  0.00    +0.000 OA
BRANCH   2  11
ATOM      3  C   UNL     1       9.441  16.446  18.692  0.00  0.00    +0.000 C 
ATOM      4  C   UNL     1       8.307  16.946  19.202  0.00  0.00    +0.000 C 
ATOM      5  C   UNL     1       7.092  16.131  19.568  0.00  0.00    +0.000 C 
ATOM      6  C   UNL     1       5.896  16.640  18.751  0.00  0.00    +0.000 C 
ATOM      7  C   UNL     1       6.811  16.329  21.063  0.00  0.00    +0.000 C 
ATOM      8  O   UNL     1       7.191  14.711  19.330  0.00  0.00    +0.000 OA
ATOM      9  C   UNL     1       8.347  14.207  18.790  0.00  0.00    +0.000 A 
ATOM     10  C   UNL     1       8.363  12.825  18.547  0.00  0.00    +0.000 A 
ATOM     11  C   UNL     1       9.491  12.176  17.998  0.00  0.00    +0.000 A 
ATOM     12  C   UNL     1      10.613  12.964  17.709  0.00  0.00    +0.000 A 
ATOM     13 CL   UNL     1      12.124  12.428  17.048  0.00  0.00    +0.000 Cl
ATOM     14  C   UNL     1      10.579  14.339  17.952  0.00  0.00    +0.000 A 
ATOM     15  C   UNL     1       9.459  14.990  18.483  0.00  0.00    +0.000 A 
BRANCH   3  17
ATOM     16  C   UNL     1      10.138  18.630  17.702  0.00  0.00    +0.000 C 
ATOM     17  C   UNL     1      10.635  17.312  18.308  0.00  0.00    +0.000 C 
ATOM     18  C   UNL     1      11.626  17.569  19.445  0.00  0.00    +0.000 C 
ENDBRANCH   3  17
ENDBRANCH   2  11
ENDBRANCH   1   2
BRANCH   1  19
ATOM     19  C   UNL     1       8.672   8.595  18.568  0.00  0.00    +0.000 C 
BRANCH  19  20
ATOM     20  C   UNL     1       7.699   8.442  17.412  0.00  0.00    +0.000 C 
BRANCH  20  21
ATOM     21  O   UNL     1       7.711   7.090  16.958  0.00  0.00    +0.000 OA
BRANCH  21  22
ATOM     22  C   UNL     1       6.503   6.448  17.040  0.00  0.00    +0.000 A 
ATOM     23  C   UNL     1       5.362   6.945  17.670  0.00  0.00    +0.000 A 
ATOM     24  C   UNL     1       4.200   6.181  17.725  0.00  0.00    +0.000 A 
ATOM     25  C   UNL     1       4.150   4.898  17.163  0.00  0.00    +0.000 A 
ATOM     26  C   UNL     1       5.305   4.403  16.540  0.00  0.00    +0.000 A 
ATOM     27  C   UNL     1       6.463   5.184  16.459  0.00  0.00    +0.000 A 
BRANCH  25  28
ATOM     28  C   UNL     1       2.895   4.067  17.319  0.00  0.00    +0.000 C 
BRANCH  28  29
ATOM     29  C   UNL     1       2.677   3.279  18.646  0.00  0.00    +0.000 C 
ATOM     30  C   UNL     1       2.442   4.242  19.821  0.00  0.00    +0.000 C 
ATOM     31  C   UNL     1       1.529   2.266  18.515  0.00  0.00    +0.000 C 
BRANCH  29  32
ATOM     32  C   UNL     1       3.968   2.489  18.916  0.00  0.00    +0.000 C 
ATOM     33  O   UNL     1       4.829   2.820  19.718  0.00  0.00    +0.000 OA
BRANCH  32  34
ATOM     34  O   UNL     1       4.106   1.359  18.182  0.00  0.00    +0.000 OA
ATOM     35  H   UNL     1       4.873   1.342  17.584  0.00  0.00    +0.000 HD
ENDBRANCH  32  34
ENDBRANCH  29  32
ENDBRANCH  28  29
ENDBRANCH  25  28
ENDBRANCH  21  22
ENDBRANCH  20  21
ENDBRANCH  19  20
ENDBRANCH   1  19
TORSDOF 11
ENDMDL
MODEL 5
REMARK VINA RESULT:      -7.3      6.948      8.487
REMARK  Name = 
REMARK  17 active torsions:
REMARK  status: ('A' for Active; 'I' for Inactive)
REMARK    1  A    between atoms: C_1  and  C_2
REMARK    2  A    between atoms: C_2  and  C_3
REMARK    3  A    between atoms: C_2  and  C_4
REMARK    4  A    between atoms: C_6  and  C_7
REMARK    5  A    between atoms: C_6  and  C_8
REMARK    6  A    between atoms: C_12  and  O_13
REMARK    7  A    between atoms: O_13  and  C_14
REMARK    8  A    between atoms: C_14  and  C_15
REMARK    9  A    between atoms: C_15  and  C_16
REMARK   10  A    between atoms: C_16  and  O_17
REMARK   11  A    between atoms: O_17  and  C_18
REMARK   12  A    between atoms: C_21  and  C_22
REMARK   13  A    between atoms: C_22  and  C_23
REMARK   14  A    between atoms: C_23  and  C_24
REMARK   15  A    between atoms: C_23  and  C_25
REMARK   16  A    between atoms: C_23  and  C_26
REMARK   17  A    between atoms: C_26  and  O_28
REMARK                            x       y       z     vdW  Elec       q    Type
REMARK                         _______ _______ _______ _____ _____    ______ ____
ROOT
ATOM      1  C   UNL     1       1.174   5.838  20.968  0.00  0.00    +0.000 C 
ENDROOT
BRANCH   1   2
ATOM      2  O   UNL     1       1.746   7.068  21.411  0.00  0.00    +0.000 OA
BRANCH   2  11
ATOM      3  C   UNL     1      -0.576  12.002  19.800  0.00  0.00    +0.000 C 
ATOM      4  C   UNL     1      -1.224  12.644  20.781  0.00  0.00    +0.000 C 
ATOM      5  C   UNL     1      -1.324  12.165  22.208  0.00  0.00    +0.000 C 
ATOM      6  C   UNL     1      -2.806  11.987  22.563  0.00  0.00    +0.000 C 
ATOM      7  C   UNL     1      -0.705  13.234  23.120  0.00  0.00    +0.000 C 
ATOM      8  O   UNL     1      -0.667  10.914  22.500  0.00  0.00    +0.000 OA
ATOM      9  C   UNL     1      -0.021  10.252  21.488  0.00  0.00    +0.000 A 
ATOM     10  C   UNL     1       0.563   9.022  21.829  0.00  0.00    +0.000 A 
ATOM     11  C   UNL     1       1.262   8.238  20.885  0.00  0.00    +0.000 A 
ATOM     12  C   UNL     1       1.365   8.738  19.580  0.00  0.00    +0.000 A 
ATOM     13 CL   UNL     1       2.172   7.995  18.237  0.00  0.00    +0.000 Cl
ATOM     14  C   UNL     1       0.774   9.961  19.254  0.00  0.00    +0.000 A 
ATOM     15  C   UNL     1       0.068  10.735  20.183  0.00  0.00    +0.000 A 
BRANCH   3  17
ATOM     16  C   UNL     1      -1.783  12.049  17.615  0.00  0.00    +0.000 C 
ATOM     17  C   UNL     1      -0.526  12.508  18.363  0.00  0.00    +0.000 C 
ATOM     18  C   UNL     1      -0.326  14.018  18.228  0.00  0.00    +0.000 C 
ENDBRANCH   3  17
ENDBRANCH   2  11
ENDBRANCH   1   2
BRANCH   1  19
ATOM     19  C   UNL     1       2.128   4.672  21.177  0.00  0.00    +0.000 C 
BRANCH  19  20
ATOM     20  C   UNL     1       1.351   3.368  21.222  0.00  0.00    +0.000 C 
BRANCH  20  21
ATOM     21  O   UNL     1       1.022   2.967  19.893  0.00  0.00    +0.000 OA
BRANCH  21  22
ATOM     22  C   UNL     1       1.994   3.223  18.961  0.00  0.00    +0.000 A 
ATOM     23  C   UNL     1       1.832   3.999  17.813  0.00  0.00    +0.000 A 
ATOM     24  C   UNL     1       2.884   4.154  16.914  0.00  0.00    +0.000 A 
ATOM     25  C   UNL     1       4.120   3.529  17.133  0.00  0.00    +0.000 A 
ATOM     26  C   UNL     1       4.270   2.743  18.285  0.00  0.00    +0.000 A 
ATOM     27  C   UNL     1       3.221   2.613  19.203  0.00  0.00    +0.000 A 
BRANCH  25  28
ATOM     28  C   UNL     1       5.209   3.654  16.090  0.00  0.00    +0.000 C 
BRANCH  28  29
ATOM     29  C   UNL     1       6.138   4.905  16.120  0.00  0.00    +0.000 C 
ATOM     30  C   UNL     1       7.075   4.919  14.902  0.00  0.00    +0.000 C 
ATOM     31  C   UNL     1       5.324   6.206  16.216  0.00  0.00    +0.000 C 
BRANCH  29  32
ATOM     32  C   UNL     1       6.996   4.798  17.392  0.00  0.00    +0.000 C 
ATOM     33  O   UNL     1       6.695   5.279  18.474  0.00  0.00    +0.000 OA
BRANCH  32  34
ATOM     34  O   UNL     1       8.154   4.113  17.239  0.00  0.00    +0.000 OA
ATOM     35  H   UNL     1       8.963   4.652  17.270  0.00  0.00    +0.000 HD
ENDBRANCH  32  34
ENDBRANCH  29  32
ENDBRANCH  28  29
ENDBRANCH  25  28
ENDBRANCH  21  22
ENDBRANCH  20  21
ENDBRANCH  19  20
ENDBRANCH   1  19
TORSDOF 11
ENDMDL
MODEL 6
REMARK VINA RESULT:      -7.3      8.183     10.783
REMARK  Name = 
REMARK  17 active torsions:
REMARK  status: ('A' for Active; 'I' for Inactive)
REMARK    1  A    between atoms: C_1  and  C_2
REMARK    2  A    between atoms: C_2  and  C_3
REMARK    3  A    between atoms: C_2  and  C_4
REMARK    4  A    between atoms: C_6  and  C_7
REMARK    5  A    between atoms: C_6  and  C_8
REMARK    6  A    between atoms: C_12  and  O_13
REMARK    7  A    between atoms: O_13  and  C_14
REMARK    8  A    between atoms: C_14  and  C_15
REMARK    9  A    between atoms: C_15  and  C_16
REMARK   10  A    between atoms: C_16  and  O_17
REMARK   11  A    between atoms: O_17  and  C_18
REMARK   12  A    between atoms: C_21  and  C_22
REMARK   13  A    between atoms: C_22  and  C_23
REMARK   14  A    between atoms: C_23  and  C_24
REMARK   15  A    between atoms: C_23  and  C_25
REMARK   16  A    between atoms: C_23  and  C_26
REMARK   17  A    between atoms: C_26  and  O_28
REMARK                            x       y       z     vdW  Elec       q    Type
REMARK                         _______ _______ _______ _____ _____    ______ ____
ROOT
ATOM      1  C   UNL     1      -2.004  11.014  17.201  0.00  0.00    +0.000 C 
ENDROOT
BRANCH   1   2
ATOM      2  O   UNL     1      -1.668  12.163  17.977  0.00  0.00    +0.000 OA
BRANCH   2  11
ATOM      3  C   UNL     1      -5.101  13.064  22.420  0.00  0.00    +0.000 C 
ATOM      4  C   UNL     1      -6.400  12.877  22.150  0.00  0.00    +0.000 C 
ATOM      5  C   UNL     1      -6.950  12.431  20.819  0.00  0.00    +0.000 C 
ATOM      6  C   UNL     1      -7.916  13.507  20.302  0.00  0.00    +0.000 C 
ATOM      7  C   UNL     1      -7.714  11.117  21.028  0.00  0.00    +0.000 C 
ATOM      8  O   UNL     1      -5.976  12.205  19.779  0.00  0.00    +0.000 OA
ATOM      9  C   UNL     1      -4.649  12.415  20.054  0.00  0.00    +0.000 A 
ATOM     10  C   UNL     1      -3.758  12.216  18.989  0.00  0.00    +0.000 A 
ATOM     11  C   UNL     1      -2.365  12.393  19.136  0.00  0.00    +0.000 A 
ATOM     12  C   UNL     1      -1.892  12.770  20.400  0.00  0.00    +0.000 A 
ATOM     13 CL   UNL     1      -0.242  13.041  20.860  0.00  0.00    +0.000 Cl
ATOM     14  C   UNL     1      -2.791  12.970  21.449  0.00  0.00    +0.000 A 
ATOM     15  C   UNL     1      -4.175  12.808  21.305  0.00  0.00    +0.000 A 
BRANCH   3  17
ATOM     16  C   UNL     1      -5.359  14.804  24.191  0.00  0.00    +0.000 C 
ATOM     17  C   UNL     1      -4.591  13.544  23.773  0.00  0.00    +0.000 C 
ATOM     18  C   UNL     1      -4.626  12.487  24.878  0.00  0.00    +0.000 C 
ENDBRANCH   3  17
ENDBRANCH   2  11
ENDBRANCH   1   2
BRANCH   1  19
ATOM     19  C   UNL     1      -1.056   9.858  17.478  0.00  0.00    +0.000 C 
BRANCH  19  20
ATOM     20  C   UNL     1      -0.201  10.168  18.693  0.00  0.00    +0.000 C 
BRANCH  20  21
ATOM     21  O   UNL     1       1.177  10.104  18.331  0.00  0.00    +0.000 OA
BRANCH  21  22
ATOM     22  C   UNL     1       1.782   8.902  18.591  0.00  0.00    +0.000 A 
ATOM     23  C   UNL     1       2.545   8.166  17.685  0.00  0.00    +0.000 A 
ATOM     24  C   UNL     1       3.076   6.931  18.052  0.00  0.00    +0.000 A 
ATOM     25  C   UNL     1       2.849   6.397  19.328  0.00  0.00    +0.000 A 
ATOM     26  C   UNL     1       2.072   7.140  20.229  0.00  0.00    +0.000 A 
ATOM     27  C   UNL     1       1.565   8.394  19.868  0.00  0.00    +0.000 A 
BRANCH  25  28
ATOM     28  C   UNL     1       3.372   5.016  19.657  0.00  0.00    +0.000 C 
BRANCH  28  29
ATOM     29  C   UNL     1       2.447   3.785  19.412  0.00  0.00    +0.000 C 
ATOM     30  C   UNL     1       3.141   2.485  19.850  0.00  0.00    +0.000 C 
ATOM     31  C   UNL     1       1.088   3.956  20.110  0.00  0.00    +0.000 C 
BRANCH  29  32
ATOM     32  C   UNL     1       2.188   3.712  17.898  0.00  0.00    +0.000 C 
ATOM     33  O   UNL     1       1.093   3.855  17.375  0.00  0.00    +0.000 OA
BRANCH  32  34
ATOM     34  O   UNL     1       3.286   3.468  17.145  0.00  0.00    +0.000 OA
ATOM     35  H   UNL     1       3.792   2.675  17.393  0.00  0.00    +0.000 HD
ENDBRANCH  32  34
ENDBRANCH  29  32
ENDBRANCH  28  29
ENDBRANCH  25  28
ENDBRANCH  21  22
ENDBRANCH  20  21
ENDBRANCH  19  20
ENDBRANCH   1  19
TORSDOF 11
ENDMDL
MODEL 7
REMARK VINA RESULT:      -7.3      8.155     10.560
REMARK  Name = 
REMARK  17 active torsions:
REMARK  status: ('A' for Active; 'I' for Inactive)
REMARK    1  A    between atoms: C_1  and  C_2
REMARK    2  A    between atoms: C_2  and  C_3
REMARK    3  A    between atoms: C_2  and  C_4
REMARK    4  A    between atoms: C_6  and  C_7
REMARK    5  A    between atoms: C_6  and  C_8
REMARK    6  A    between atoms: C_12  and  O_13
REMARK    7  A    between atoms: O_13  and  C_14
REMARK    8  A    between atoms: C_14  and  C_15
REMARK    9  A    between atoms: C_15  and  C_16
REMARK   10  A    between atoms: C_16  and  O_17
REMARK   11  A    between atoms: O_17  and  C_18
REMARK   12  A    between atoms: C_21  and  C_22
REMARK   13  A    between atoms: C_22  and  C_23
REMARK   14  A    between atoms: C_23  and  C_24
REMARK   15  A    between atoms: C_23  and  C_25
REMARK   16  A    between atoms: C_23  and  C_26
REMARK   17  A    between atoms: C_26  and  O_28
REMARK                            x       y       z     vdW  Elec       q    Type
REMARK                         _______ _______ _______ _____ _____    ______ ____
ROOT
ATOM      1  C   UNL     1       0.148  11.468  19.259  0.00  0.00    +0.000 C 
ENDROOT
BRANCH   1   2
ATOM      2  O   UNL     1      -0.970  11.718  18.408  0.00  0.00    +0.000 OA
BRANCH   2  11
ATOM      3  C   UNL     1      -5.680  12.881  21.374  0.00  0.00    +0.000 C 
ATOM      4  C   UNL     1      -5.447  13.267  22.636  0.00  0.00    +0.000 C 
ATOM      5  C   UNL     1      -4.079  13.431  23.250  0.00  0.00    +0.000 C 
ATOM      6  C   UNL     1      -3.970  12.496  24.462  0.00  0.00    +0.000 C 
ATOM      7  C   UNL     1      -3.930  14.887  23.714  0.00  0.00    +0.000 C 
ATOM      8  O   UNL     1      -2.962  13.136  22.387  0.00  0.00    +0.000 OA
ATOM      9  C   UNL     1      -3.206  12.724  21.102  0.00  0.00    +0.000 A 
ATOM     10  C   UNL     1      -2.077  12.414  20.328  0.00  0.00    +0.000 A 
ATOM     11  C   UNL     1      -2.185  11.982  18.988  0.00  0.00    +0.000 A 
ATOM     12  C   UNL     1      -3.472  11.880  18.443  0.00  0.00    +0.000 A 
ATOM     13 CL   UNL     1      -3.890  11.392  16.833  0.00  0.00    +0.000 Cl
ATOM     14  C   UNL     1      -4.586  12.186  19.228  0.00  0.00    +0.000 A 
ATOM     15  C   UNL     1      -4.485  12.602  20.561  0.00  0.00    +0.000 A 
BRANCH   3  17
ATOM     16  C   UNL     1      -7.815  11.605  21.588  0.00  0.00    +0.000 C 
ATOM     17  C   UNL     1      -7.081  12.699  20.803  0.00  0.00    +0.000 C 
ATOM     18  C   UNL     1      -7.913  13.981  20.739  0.00  0.00    +0.000 C 
ENDBRANCH   3  17
ENDBRANCH   2  11
ENDBRANCH   1   2
BRANCH   1  19
ATOM     19  C   UNL     1       1.428  12.054  18.685  0.00  0.00    +0.000 C 
BRANCH  19  20
ATOM     20  C   UNL     1       2.282  10.949  18.090  0.00  0.00    +0.000 C 
BRANCH  20  21
ATOM     21  O   UNL     1       1.490   9.774  17.927  0.00  0.00    +0.000 OA
BRANCH  21  22
ATOM     22  C   UNL     1       2.128   8.605  18.249  0.00  0.00    +0.000 A 
ATOM     23  C   UNL     1       3.061   7.944  17.449  0.00  0.00    +0.000 A 
ATOM     24  C   UNL     1       3.614   6.735  17.866  0.00  0.00    +0.000 A 
ATOM     25  C   UNL     1       3.241   6.151  19.084  0.00  0.00    +0.000 A 
ATOM     26  C   UNL     1       2.295   6.818  19.877  0.00  0.00    +0.000 A 
ATOM     27  C   UNL     1       1.764   8.047  19.471  0.00  0.00    +0.000 A 
BRANCH  25  28
ATOM     28  C   UNL     1       3.801   4.797  19.460  0.00  0.00    +0.000 C 
BRANCH  28  29
ATOM     29  C   UNL     1       3.351   3.546  18.644  0.00  0.00    +0.000 C 
ATOM     30  C   UNL     1       3.850   3.632  17.193  0.00  0.00    +0.000 C 
ATOM     31  C   UNL     1       3.808   2.243  19.317  0.00  0.00    +0.000 C 
BRANCH  29  32
ATOM     32  C   UNL     1       1.813   3.549  18.630  0.00  0.00    +0.000 C 
ATOM     33  O   UNL     1       1.129   3.636  17.621  0.00  0.00    +0.000 OA
BRANCH  32  34
ATOM     34  O   UNL     1       1.234   3.450  19.850  0.00  0.00    +0.000 OA
ATOM     35  H   UNL     1       0.272   3.589  19.867  0.00  0.00    +0.000 HD
ENDBRANCH  32  34
ENDBRANCH  29  32
ENDBRANCH  28  29
ENDBRANCH  25  28
ENDBRANCH  21  22
ENDBRANCH  20  21
ENDBRANCH  19  20
ENDBRANCH   1  19
TORSDOF 11
ENDMDL
MODEL 8
REMARK VINA RESULT:      -7.3      1.510      1.921
REMARK  Name = 
REMARK  17 active torsions:
REMARK  status: ('A' for Active; 'I' for Inactive)
REMARK    1  A    between atoms: C_1  and  C_2
REMARK    2  A    between atoms: C_2  and  C_3
REMARK    3  A    between atoms: C_2  and  C_4
REMARK    4  A    between atoms: C_6  and  C_7
REMARK    5  A    between atoms: C_6  and  C_8
REMARK    6  A    between atoms: C_12  and  O_13
REMARK    7  A    between atoms: O_13  and  C_14
REMARK    8  A    between atoms: C_14  and  C_15
REMARK    9  A    between atoms: C_15  and  C_16
REMARK   10  A    between atoms: C_16  and  O_17
REMARK   11  A    between atoms: O_17  and  C_18
REMARK   12  A    between atoms: C_21  and  C_22
REMARK   13  A    between atoms: C_22  and  C_23
REMARK   14  A    between atoms: C_23  and  C_24
REMARK   15  A    between atoms: C_23  and  C_25
REMARK   16  A    between atoms: C_23  and  C_26
REMARK   17  A    between atoms: C_26  and  O_28
REMARK                            x       y       z     vdW  Elec       q    Type
REMARK                         _______ _______ _______ _____ _____    ______ ____
ROOT
ATOM      1  C   UNL     1       9.385   9.858  19.080  0.00  0.00    +0.000 C 
ENDROOT
BRANCH   1   2
ATOM      2  O   UNL     1       9.752  11.232  18.964  0.00  0.00    +0.000 OA
BRANCH   2  11
ATOM      3  C   UNL     1       7.252  14.492  22.896  0.00  0.00    +0.000 C 
ATOM      4  C   UNL     1       7.077  13.882  24.076  0.00  0.00    +0.000 C 
ATOM      5  C   UNL     1       7.519  12.477  24.396  0.00  0.00    +0.000 C 
ATOM      6  C   UNL     1       6.286  11.655  24.800  0.00  0.00    +0.000 C 
ATOM      7  C   UNL     1       8.501  12.536  25.574  0.00  0.00    +0.000 C 
ATOM      8  O   UNL     1       8.169  11.762  23.325  0.00  0.00    +0.000 OA
ATOM      9  C   UNL     1       8.330  12.383  22.114  0.00  0.00    +0.000 A 
ATOM     10  C   UNL     1       8.934  11.619  21.103  0.00  0.00    +0.000 A 
ATOM     11  C   UNL     1       9.164  12.138  19.810  0.00  0.00    +0.000 A 
ATOM     12  C   UNL     1       8.774  13.461  19.566  0.00  0.00    +0.000 A 
ATOM     13 CL   UNL     1       8.948  14.346  18.084  0.00  0.00    +0.000 Cl
ATOM     14  C   UNL     1       8.168  14.207  20.580  0.00  0.00    +0.000 A 
ATOM     15  C   UNL     1       7.926  13.693  21.860  0.00  0.00    +0.000 A 
BRANCH   3  17
ATOM     16  C   UNL     1       5.337  16.074  23.148  0.00  0.00    +0.000 C 
ATOM     17  C   UNL     1       6.762  15.906  22.606  0.00  0.00    +0.000 C 
ATOM     18  C   UNL     1       7.680  17.015  23.121  0.00  0.00    +0.000 C 
ENDBRANCH   3  17
ENDBRANCH   2  11
ENDBRANCH   1   2
BRANCH   1  19
ATOM     19  C   UNL     1       8.382   9.457  18.011  0.00  0.00    +0.000 C 
BRANCH  19  20
ATOM     20  C   UNL     1       8.083   7.972  18.112  0.00  0.00    +0.000 C 
BRANCH  20  21
ATOM     21  O   UNL     1       7.547   7.511  16.873  0.00  0.00    +0.000 OA
BRANCH  21  22
ATOM     22  C   UNL     1       6.681   6.455  16.983  0.00  0.00    +0.000 A 
ATOM     23  C   UNL     1       5.657   6.149  16.086  0.00  0.00    +0.000 A 
ATOM     24  C   UNL     1       4.810   5.070  16.325  0.00  0.00    +0.000 A 
ATOM     25  C   UNL     1       4.957   4.275  17.471  0.00  0.00    +0.000 A 
ATOM     26  C   UNL     1       5.984   4.596  18.372  0.00  0.00    +0.000 A 
ATOM     27  C   UNL     1       6.853   5.662  18.114  0.00  0.00    +0.000 A 
BRANCH  25  28
ATOM     28  C   UNL     1       3.964   3.165  17.736  0.00  0.00    +0.000 C 
BRANCH  28  29
ATOM     29  C   UNL     1       2.766   3.443  18.693  0.00  0.00    +0.000 C 
ATOM     30  C   UNL     1       1.960   2.159  18.947  0.00  0.00    +0.000 C 
ATOM     31  C   UNL     1       3.235   4.080  20.011  0.00  0.00    +0.000 C 
BRANCH  29  32
ATOM     32  C   UNL     1       1.852   4.458  17.985  0.00  0.00    +0.000 C 
ATOM     33  O   UNL     1       1.024   4.169  17.134  0.00  0.00    +0.000 OA
BRANCH  32  34
ATOM     34  O   UNL     1       2.026   5.744  18.370  0.00  0.00    +0.000 OA
ATOM     35  H   UNL     1       1.442   6.047  19.086  0.00  0.00    +0.000 HD
ENDBRANCH  32  34
ENDBRANCH  29  32
ENDBRANCH  28  29
ENDBRANCH  25  28
ENDBRANCH  21  22
ENDBRANCH  20  21
ENDBRANCH  19  20
ENDBRANCH   1  19
TORSDOF 11
ENDMDL
MODEL 9
REMARK VINA RESULT:      -7.3      6.418     10.096
REMARK  Name = 
REMARK  17 active torsions:
REMARK  status: ('A' for Active; 'I' for Inactive)
REMARK    1  A    between atoms: C_1  and  C_2
REMARK    2  A    between atoms: C_2  and  C_3
REMARK    3  A    between atoms: C_2  and  C_4
REMARK    4  A    between atoms: C_6  and  C_7
REMARK    5  A    between atoms: C_6  and  C_8
REMARK    6  A    between atoms: C_12  and  O_13
REMARK    7  A    between atoms: O_13  and  C_14
REMARK    8  A    between atoms: C_14  and  C_15
REMARK    9  A    between atoms: C_15  and  C_16
REMARK   10  A    between atoms: C_16  and  O_17
REMARK   11  A    between atoms: O_17  and  C_18
REMARK   12  A    between atoms: C_21  and  C_22
REMARK   13  A    between atoms: C_22  and  C_23
REMARK   14  A    between atoms: C_23  and  C_24
REMARK   15  A    between atoms: C_23  and  C_25
REMARK   16  A    between atoms: C_23  and  C_26
REMARK   17  A    between atoms: C_26  and  O_28
REMARK                            x       y       z     vdW  Elec       q    Type
REMARK                         _______ _______ _______ _____ _____    ______ ____
ROOT
ATOM      1  C   UNL     1       1.026   2.189  19.287  0.00  0.00    +0.000 C 
ENDROOT
BRANCH   1   2
ATOM      2  O   UNL     1       2.136   1.812  18.474  0.00  0.00    +0.000 OA
BRANCH   2  11
ATOM      3  C   UNL     1       6.556   5.299  17.673  0.00  0.00    +0.000 C 
ATOM      4  C   UNL     1       6.631   5.806  16.434  0.00  0.00    +0.000 C 
ATOM      5  C   UNL     1       5.639   5.539  15.330  0.00  0.00    +0.000 C 
ATOM      6  C   UNL     1       6.381   4.898  14.149  0.00  0.00    +0.000 C 
ATOM      7  C   UNL     1       5.037   6.879  14.888  0.00  0.00    +0.000 C 
ATOM      8  O   UNL     1       4.544   4.662  15.666  0.00  0.00    +0.000 OA
ATOM      9  C   UNL     1       4.481   4.131  16.929  0.00  0.00    +0.000 A 
ATOM     10  C   UNL     1       3.414   3.255  17.178  0.00  0.00    +0.000 A 
ATOM     11  C   UNL     1       3.228   2.642  18.436  0.00  0.00    +0.000 A 
ATOM     12  C   UNL     1       4.150   2.947  19.446  0.00  0.00    +0.000 A 
ATOM     13 CL   UNL     1       4.152   2.351  21.075  0.00  0.00    +0.000 Cl
ATOM     14  C   UNL     1       5.210   3.816  19.181  0.00  0.00    +0.000 A 
ATOM     15  C   UNL     1       5.407   4.417  17.931  0.00  0.00    +0.000 A 
BRANCH   3  17
ATOM     16  C   UNL     1       8.691   4.498  18.688  0.00  0.00    +0.000 C 
ATOM     17  C   UNL     1       7.598   5.572  18.750  0.00  0.00    +0.000 C 
ATOM     18  C   UNL     1       8.204   6.976  18.708  0.00  0.00    +0.000 C 
ENDBRANCH   3  17
ENDBRANCH   2  11
ENDBRANCH   1   2
BRANCH   1  19
ATOM     19  C   UNL     1       0.785   3.690  19.240  0.00  0.00    +0.000 C 
BRANCH  19  20
ATOM     20  C   UNL     1       1.113   4.310  20.587  0.00  0.00    +0.000 C 
BRANCH  20  21
ATOM     21  O   UNL     1       2.265   5.142  20.457  0.00  0.00    +0.000 OA
BRANCH  21  22
ATOM     22  C   UNL     1       2.010   6.399  19.977  0.00  0.00    +0.000 A 
ATOM     23  C   UNL     1       2.386   6.880  18.722  0.00  0.00    +0.000 A 
ATOM     24  C   UNL     1       2.108   8.195  18.360  0.00  0.00    +0.000 A 
ATOM     25  C   UNL     1       1.459   9.067  19.245  0.00  0.00    +0.000 A 
ATOM     26  C   UNL     1       1.093   8.578  20.508  0.00  0.00    +0.000 A 
ATOM     27  C   UNL     1       1.346   7.247  20.859  0.00  0.00    +0.000 A 
BRANCH  25  28
ATOM     28  C   UNL     1       1.252  10.512  18.845  0.00  0.00    +0.000 C 
BRANCH  28  29
ATOM     29  C   UNL     1      -0.185  11.112  18.916  0.00  0.00    +0.000 C 
ATOM     30  C   UNL     1      -1.165  10.284  18.069  0.00  0.00    +0.000 C 
ATOM     31  C   UNL     1      -0.670  11.237  20.369  0.00  0.00    +0.000 C 
BRANCH  29  32
ATOM     32  C   UNL     1      -0.109  12.530  18.326  0.00  0.00    +0.000 C 
ATOM     33  O   UNL     1       0.734  13.362  18.627  0.00  0.00    +0.000 OA
BRANCH  32  34
ATOM     34  O   UNL     1      -1.072  12.819  17.419  0.00  0.00    +0.000 OA
ATOM     35  H   UNL     1      -0.768  13.293  16.626  0.00  0.00    +0.000 HD
ENDBRANCH  32  34
ENDBRANCH  29  32
ENDBRANCH  28  29
ENDBRANCH  25  28
ENDBRANCH  21  22
ENDBRANCH  20  21
ENDBRANCH  19  20
ENDBRANCH   1  19
TORSDOF 11
ENDMDL
