MODEL 1
REMARK VINA RESULT:      -8.7      0.000      0.000
REMARK  Name = 
REMARK  9 active torsions:
REMARK  status: ('A' for Active; 'I' for Inactive)
REMARK    1  A    between atoms: C_2  and  C_7
REMARK    2  A    between atoms: N_3  and  C_4
REMARK    3  A    between atoms: C_10  and  O_11
REMARK    4  A    between atoms: C_13  and  O_14
REMARK    5  A    between atoms: O_14  and  C_15
REMARK    6  A    between atoms: C_15  and  C_16
REMARK    7  A    between atoms: C_16  and  O_17
REMARK    8  A    between atoms: C_16  and  C_18
REMARK    9  A    between atoms: C_18  and  N_19
REMARK                            x       y       z     vdW  Elec       q    Type
REMARK                         _______ _______ _______ _____ _____    ______ ____
ROOT
ATOM      1  C   UNL     1       3.173   2.434  17.782  0.00  0.00    +0.000 C 
ENDROOT
BRANCH   1   2
ATOM      2  O   UNL     1       4.106   1.363  17.929  0.00  0.00    +0.000 OA
ATOM      3  H   UNL     1       4.332   1.056  17.035  0.00  0.00    +0.000 HD
ENDBRANCH   1   2
BRANCH   1   4
ATOM      4  C   UNL     1       3.652   3.394  16.714  0.00  0.00    +0.000 C 
BRANCH   4   5
ATOM      5  O   UNL     1       5.036   3.165  16.427  0.00  0.00    +0.000 OA
BRANCH   5  11
ATOM      6  C   UNL     1       6.620   4.903  15.968  0.00  0.00    +0.000 A 
ATOM      7  C   UNL     1       7.482   5.903  16.473  0.00  0.00    +0.000 A 
ATOM      8  C   UNL     1       7.614   6.147  17.840  0.00  0.00    +0.000 A 
ATOM      9  C   UNL     1       6.874   5.386  18.721  0.00  0.00    +0.000 A 
ATOM     10  C   UNL     1       6.033   4.399  18.260  0.00  0.00    +0.000 A 
ATOM     11  C   UNL     1       5.870   4.151  16.886  0.00  0.00    +0.000 A 
BRANCH   6  13
ATOM     12  O   UNL     1       7.149   5.624  13.789  0.00  0.00    +0.000 OA
ATOM     13  C   UNL     1       6.607   4.754  14.471  0.00  0.00    +0.000 C 
ATOM     14  N   UNL     1       6.004   3.651  13.890  0.00  0.00    +0.000 N 
ATOM     15  H   UNL     1       5.561   2.961  14.490  0.00  0.00    +0.000 HD
BRANCH  14  16
ATOM     16  C   UNL     1       6.031   3.465  12.466  0.00  0.00    +0.000 C 
ATOM     17  C   UNL     1       5.703   2.155  11.804  0.00  0.00    +0.000 C 
ATOM     18  C   UNL     1       4.751   3.307  11.690  0.00  0.00    +0.000 C 
ENDBRANCH  14  16
ENDBRANCH   6  13
BRANCH   9  19
ATOM     19  O   UNL     1       6.958   5.535  20.068  0.00  0.00    +0.000 OA
ATOM     20  H   UNL     1       6.516   4.783  20.492  0.00  0.00    +0.000 HD
ENDBRANCH   9  19
ENDBRANCH   5  11
ENDBRANCH   4   5
ENDBRANCH   1   4
BRANCH   1  21
ATOM     21  C   UNL     1       2.916   3.186  19.119  0.00  0.00    +0.000 C 
BRANCH  21  22
ATOM     22  N   UNL     1       1.725   4.050  19.050  0.00  0.00    +0.000 NA
ATOM     23  C   UNL     1       1.243   4.505  20.357  0.00  0.00    +0.000 C 
ATOM     24  C   UNL     1       1.964   5.733  20.918  0.00  0.00    +0.000 C 
ATOM     25  C   UNL     1       2.155   7.062  20.013  0.00  0.00    +0.000 C 
ATOM     26  C   UNL     1       2.916   6.239  18.914  0.00  0.00    +0.000 C 
ATOM     27  C   UNL     1       1.949   5.233  18.221  0.00  0.00    +0.000 C 
ATOM     28  C   UNL     1       0.946   7.827  20.700  0.00  0.00    +0.000 C 
ATOM     29  C   UNL     1       1.081   9.189  20.142  0.00  0.00    +0.000 A 
ATOM     30  C   UNL     1       0.835  10.457  20.606  0.00  0.00    +0.000 A 
ATOM     31  C   UNL     1       1.192  11.519  19.769  0.00  0.00    +0.000 A 
ATOM     32 CL   UNL     1       0.974  13.134  20.319  0.00  0.00    +0.000 Cl
ATOM     33  C   UNL     1       1.746  11.292  18.491  0.00  0.00    +0.000 A 
ATOM     34  C   UNL     1       1.914   9.991  18.021  0.00  0.00    +0.000 A 
ATOM     35  C   UNL     1       1.565   8.982  18.883  0.00  0.00    +0.000 A 
ATOM     36  O   UNL     1       1.566   7.635  18.693  0.00  0.00    +0.000 OA
ENDBRANCH  21  22
ENDBRANCH   1  21
TORSDOF 9
ENDMDL
MODEL 2
REMARK VINA RESULT:      -8.6      3.413      5.639
REMARK  Name = 
REMARK  9 active torsions:
REMARK  status: ('A' for Active; 'I' for Inactive)
REMARK    1  A    between atoms: C_2  and  C_7
REMARK    2  A    between atoms: N_3  and  C_4
REMARK    3  A    between atoms: C_10  and  O_11
REMARK    4  A    between atoms: C_13  and  O_14
REMARK    5  A    between atoms: O_14  and  C_15
REMARK    6  A    between atoms: C_15  and  C_16
REMARK    7  A    between atoms: C_16  and  O_17
REMARK    8  A    between atoms: C_16  and  C_18
REMARK    9  A    between atoms: C_18  and  N_19
REMARK                            x       y       z     vdW  Elec       q    Type
REMARK                         _______ _______ _______ _____ _____    ______ ____
ROOT
ATOM      1  C   UNL     1       1.996   7.381  19.467  0.00  0.00    +0.000 C 
ENDROOT
BRANCH   1   2
ATOM      2  O   UNL     1       2.435   6.397  20.402  0.00  0.00    +0.000 OA
ATOM      3  H   UNL     1       1.782   5.678  20.389  0.00  0.00    +0.000 HD
ENDBRANCH   1   2
BRANCH   1   4
ATOM      4  C   UNL     1       3.038   7.569  18.385  0.00  0.00    +0.000 C 
BRANCH   4   5
ATOM      5  O   UNL     1       3.398   6.303  17.820  0.00  0.00    +0.000 OA
BRANCH   5  11
ATOM      6  C   UNL     1       5.228   4.867  18.394  0.00  0.00    +0.000 A 
ATOM      7  C   UNL     1       6.625   4.647  18.394  0.00  0.00    +0.000 A 
ATOM      8  C   UNL     1       7.521   5.574  17.861  0.00  0.00    +0.000 A 
ATOM      9  C   UNL     1       7.021   6.738  17.315  0.00  0.00    +0.000 A 
ATOM     10  C   UNL     1       5.667   6.984  17.308  0.00  0.00    +0.000 A 
ATOM     11  C   UNL     1       4.746   6.055  17.822  0.00  0.00    +0.000 A 
BRANCH   6  13
ATOM     12  O   UNL     1       4.964   2.957  19.747  0.00  0.00    +0.000 OA
ATOM     13  C   UNL     1       4.402   3.781  19.024  0.00  0.00    +0.000 C 
ATOM     14  N   UNL     1       3.037   3.728  18.796  0.00  0.00    +0.000 N 
ATOM     15  H   UNL     1       2.614   4.422  18.186  0.00  0.00    +0.000 HD
BRANCH  14  16
ATOM     16  C   UNL     1       2.223   2.730  19.434  0.00  0.00    +0.000 C 
ATOM     17  C   UNL     1       0.933   3.050  20.136  0.00  0.00    +0.000 C 
ATOM     18  C   UNL     1       0.909   2.313  18.830  0.00  0.00    +0.000 C 
ENDBRANCH  14  16
ENDBRANCH   6  13
BRANCH   9  19
ATOM     19  O   UNL     1       7.819   7.707  16.797  0.00  0.00    +0.000 OA
ATOM     20  H   UNL     1       7.728   7.701  15.832  0.00  0.00    +0.000 HD
ENDBRANCH   9  19
ENDBRANCH   5  11
ENDBRANCH   4   5
ENDBRANCH   1   4
BRANCH   1  21
ATOM     21  C   UNL     1       1.662   8.741  20.145  0.00  0.00    +0.000 C 
BRANCH  21  22
ATOM     22  N   UNL     1       0.222   8.887  20.417  0.00  0.00    +0.000 NA
ATOM     23  C   UNL     1      -0.138   8.707  21.826  0.00  0.00    +0.000 C 
ATOM     24  C   UNL     1       0.040   9.950  22.701  0.00  0.00    +0.000 C 
ATOM     25  C   UNL     1      -0.584  11.374  22.248  0.00  0.00    +0.000 C 
ATOM     26  C   UNL     1       0.229  11.335  20.905  0.00  0.00    +0.000 C 
ATOM     27  C   UNL     1      -0.291  10.187  19.988  0.00  0.00    +0.000 C 
ATOM     28  C   UNL     1      -1.841  11.244  23.206  0.00  0.00    +0.000 C 
ATOM     29  C   UNL     1      -2.458  12.583  23.096  0.00  0.00    +0.000 A 
ATOM     30  C   UNL     1      -3.156  13.404  23.946  0.00  0.00    +0.000 A 
ATOM     31  C   UNL     1      -3.500  14.671  23.464  0.00  0.00    +0.000 A 
ATOM     32 CL   UNL     1      -4.314  15.773  24.503  0.00  0.00    +0.000 Cl
ATOM     33  C   UNL     1      -3.174  15.070  22.150  0.00  0.00    +0.000 A 
ATOM     34  C   UNL     1      -2.531  14.183  21.288  0.00  0.00    +0.000 A 
ATOM     35  C   UNL     1      -2.199  12.959  21.810  0.00  0.00    +0.000 A 
ATOM     36  O   UNL     1      -1.622  11.883  21.209  0.00  0.00    +0.000 OA
ENDBRANCH  21  22
ENDBRANCH   1  21
TORSDOF 9
ENDMDL
MODEL 3
REMARK VINA RESULT:      -8.2      3.064      5.895
REMARK  Name = 
REMARK  9 active torsions:
REMARK  status: ('A' for Active; 'I' for Inactive)
REMARK    1  A    between atoms: C_2  and  C_7
REMARK    2  A    between atoms: N_3  and  C_4
REMARK    3  A    between atoms: C_10  and  O_11
REMARK    4  A    between atoms: C_13  and  O_14
REMARK    5  A    between atoms: O_14  and  C_15
REMARK    6  A    between atoms: C_15  and  C_16
REMARK    7  A    between atoms: C_16  and  O_17
REMARK    8  A    between atoms: C_16  and  C_18
REMARK    9  A    between atoms: C_18  and  N_19
REMARK                            x       y       z     vdW  Elec       q    Type
REMARK                         _______ _______ _______ _____ _____    ______ ____
ROOT
ATOM      1  C   UNL     1       2.089   7.731  18.130  0.00  0.00    +0.000 C 
ENDROOT
BRANCH   1   2
ATOM      2  O   UNL     1       2.191   7.327  19.495  0.00  0.00    +0.000 OA
ATOM      3  H   UNL     1       2.826   7.926  19.924  0.00  0.00    +0.000 HD
ENDBRANCH   1   2
BRANCH   1   4
ATOM      4  C   UNL     1       3.464   7.767  17.496  0.00  0.00    +0.000 C 
BRANCH   4   5
ATOM      5  O   UNL     1       4.314   6.788  18.103  0.00  0.00    +0.000 OA
BRANCH   5  11
ATOM      6  C   UNL     1       4.195   4.624  17.080  0.00  0.00    +0.000 A 
ATOM      7  C   UNL     1       4.754   3.695  16.173  0.00  0.00    +0.000 A 
ATOM      8  C   UNL     1       5.906   3.977  15.438  0.00  0.00    +0.000 A 
ATOM      9  C   UNL     1       6.511   5.206  15.604  0.00  0.00    +0.000 A 
ATOM     10  C   UNL     1       5.995   6.128  16.486  0.00  0.00    +0.000 A 
ATOM     11  C   UNL     1       4.825   5.871  17.221  0.00  0.00    +0.000 A 
BRANCH   6  13
ATOM     12  O   UNL     1       2.063   3.628  17.159  0.00  0.00    +0.000 OA
ATOM     13  C   UNL     1       2.965   4.159  17.808  0.00  0.00    +0.000 C 
ATOM     14  N   UNL     1       2.869   4.320  19.180  0.00  0.00    +0.000 N 
ATOM     15  H   UNL     1       3.632   4.771  19.676  0.00  0.00    +0.000 HD
BRANCH  14  16
ATOM     16  C   UNL     1       1.725   3.832  19.899  0.00  0.00    +0.000 C 
ATOM     17  C   UNL     1       1.635   2.433  20.444  0.00  0.00    +0.000 C 
ATOM     18  C   UNL     1       1.798   3.590  21.383  0.00  0.00    +0.000 C 
ENDBRANCH  14  16
ENDBRANCH   6  13
BRANCH   9  19
ATOM     19  O   UNL     1       7.648   5.558  14.951  0.00  0.00    +0.000 OA
ATOM     20  H   UNL     1       7.528   5.385  14.004  0.00  0.00    +0.000 HD
ENDBRANCH   9  19
ENDBRANCH   5  11
ENDBRANCH   4   5
ENDBRANCH   1   4
BRANCH   1  21
ATOM     21  C   UNL     1       1.375   9.103  17.967  0.00  0.00    +0.000 C 
BRANCH  21  22
ATOM     22  N   UNL     1       1.673  10.019  19.080  0.00  0.00    +0.000 NA
ATOM     23  C   UNL     1       1.620  11.438  18.714  0.00  0.00    +0.000 C 
ATOM     24  C   UNL     1       0.221  12.056  18.725  0.00  0.00    +0.000 C 
ATOM     25  C   UNL     1      -0.748  11.881  20.011  0.00  0.00    +0.000 C 
ATOM     26  C   UNL     1      -0.669  10.317  19.893  0.00  0.00    +0.000 C 
ATOM     27  C   UNL     1       0.772   9.819  20.215  0.00  0.00    +0.000 C 
ATOM     28  C   UNL     1      -0.428  13.327  20.578  0.00  0.00    +0.000 C 
ATOM     29  C   UNL     1      -1.404  13.454  21.681  0.00  0.00    +0.000 A 
ATOM     30  C   UNL     1      -2.113  14.490  22.235  0.00  0.00    +0.000 A 
ATOM     31  C   UNL     1      -3.029  14.164  23.241  0.00  0.00    +0.000 A 
ATOM     32 CL   UNL     1      -3.999  15.406  23.930  0.00  0.00    +0.000 Cl
ATOM     33  C   UNL     1      -3.187  12.835  23.688  0.00  0.00    +0.000 A 
ATOM     34  C   UNL     1      -2.396  11.818  23.155  0.00  0.00    +0.000 A 
ATOM     35  C   UNL     1      -1.524  12.182  22.160  0.00  0.00    +0.000 A 
ATOM     36  O   UNL     1      -0.602  11.436  21.494  0.00  0.00    +0.000 OA
ENDBRANCH  21  22
ENDBRANCH   1  21
TORSDOF 9
ENDMDL
MODEL 4
REMARK VINA RESULT:      -8.0      3.168      5.689
REMARK  Name = 
REMARK  9 active torsions:
REMARK  status: ('A' for Active; 'I' for Inactive)
REMARK    1  A    between atoms: C_2  and  C_7
REMARK    2  A    between atoms: N_3  and  C_4
REMARK    3  A    between atoms: C_10  and  O_11
REMARK    4  A    between atoms: C_13  and  O_14
REMARK    5  A    between atoms: O_14  and  C_15
REMARK    6  A    between atoms: C_15  and  C_16
REMARK    7  A    between atoms: C_16  and  O_17
REMARK    8  A    between atoms: C_16  and  C_18
REMARK    9  A    between atoms: C_18  and  N_19
REMARK                            x       y       z     vdW  Elec       q    Type
REMARK                         _______ _______ _______ _____ _____    ______ ____
ROOT
ATOM      1  C   UNL     1       2.274   7.559  18.785  0.00  0.00    +0.000 C 
ENDROOT
BRANCH   1   2
ATOM      2  O   UNL     1       2.687   6.958  20.013  0.00  0.00    +0.000 OA
ATOM      3  H   UNL     1       3.657   6.894  19.988  0.00  0.00    +0.000 HD
ENDBRANCH   1   2
BRANCH   1   4
ATOM      4  C   UNL     1       3.409   7.521  17.784  0.00  0.00    +0.000 C 
BRANCH   4   5
ATOM      5  O   UNL     1       4.436   6.631  18.233  0.00  0.00    +0.000 OA
BRANCH   5  11
ATOM      6  C   UNL     1       4.229   4.554  17.057  0.00  0.00    +0.000 A 
ATOM      7  C   UNL     1       4.732   3.684  16.062  0.00  0.00    +0.000 A 
ATOM      8  C   UNL     1       5.861   3.998  15.305  0.00  0.00    +0.000 A 
ATOM      9  C   UNL     1       6.500   5.198  15.538  0.00  0.00    +0.000 A 
ATOM     10  C   UNL     1       6.039   6.061  16.506  0.00  0.00    +0.000 A 
ATOM     11  C   UNL     1       4.892   5.773  17.265  0.00  0.00    +0.000 A 
BRANCH   6  13
ATOM     12  O   UNL     1       2.092   3.568  17.148  0.00  0.00    +0.000 OA
ATOM     13  C   UNL     1       3.016   4.060  17.796  0.00  0.00    +0.000 C 
ATOM     14  N   UNL     1       2.961   4.152  19.177  0.00  0.00    +0.000 N 
ATOM     15  H   UNL     1       3.742   4.572  19.673  0.00  0.00    +0.000 HD
BRANCH  14  16
ATOM     16  C   UNL     1       1.835   3.635  19.904  0.00  0.00    +0.000 C 
ATOM     17  C   UNL     1       1.687   2.182  20.263  0.00  0.00    +0.000 C 
ATOM     18  C   UNL     1       1.984   3.189  21.333  0.00  0.00    +0.000 C 
ENDBRANCH  14  16
ENDBRANCH   6  13
BRANCH   9  19
ATOM     19  O   UNL     1       7.619   5.575  14.868  0.00  0.00    +0.000 OA
ATOM     20  H   UNL     1       8.038   6.305  15.349  0.00  0.00    +0.000 HD
ENDBRANCH   9  19
ENDBRANCH   5  11
ENDBRANCH   4   5
ENDBRANCH   1   4
BRANCH   1  21
ATOM     21  C   UNL     1       1.762   9.015  18.978  0.00  0.00    +0.000 C 
BRANCH  21  22
ATOM     22  N   UNL     1       0.417   9.056  19.576  0.00  0.00    +0.000 NA
ATOM     23  C   UNL     1       0.412   8.933  21.037  0.00  0.00    +0.000 C 
ATOM     24  C   UNL     1       0.668  10.238  21.795  0.00  0.00    +0.000 C 
ATOM     25  C   UNL     1      -0.177  11.574  21.446  0.00  0.00    +0.000 C 
ATOM     26  C   UNL     1       0.302  11.521  19.951  0.00  0.00    +0.000 C 
ATOM     27  C   UNL     1      -0.303  10.280  19.230  0.00  0.00    +0.000 C 
ATOM     28  C   UNL     1      -1.160  11.398  22.679  0.00  0.00    +0.000 C 
ATOM     29  C   UNL     1      -1.911  12.671  22.664  0.00  0.00    +0.000 A 
ATOM     30  C   UNL     1      -2.468  13.481  23.622  0.00  0.00    +0.000 A 
ATOM     31  C   UNL     1      -3.034  14.683  23.185  0.00  0.00    +0.000 A 
ATOM     32 CL   UNL     1      -3.687  15.775  24.342  0.00  0.00    +0.000 Cl
ATOM     33  C   UNL     1      -3.061  15.027  21.817  0.00  0.00    +0.000 A 
ATOM     34  C   UNL     1      -2.553  14.146  20.862  0.00  0.00    +0.000 A 
ATOM     35  C   UNL     1      -1.994  12.988  21.339  0.00  0.00    +0.000 A 
ATOM     36  O   UNL     1      -1.472  11.930  20.662  0.00  0.00    +0.000 OA
ENDBRANCH  21  22
ENDBRANCH   1  21
TORSDOF 9
ENDMDL
MODEL 5
REMARK VINA RESULT:      -8.0      3.803      6.225
REMARK  Name = 
REMARK  9 active torsions:
REMARK  status: ('A' for Active; 'I' for Inactive)
REMARK    1  A    between atoms: C_2  and  C_7
REMARK    2  A    between atoms: N_3  and  C_4
REMARK    3  A    between atoms: C_10  and  O_11
REMARK    4  A    between atoms: C_13  and  O_14
REMARK    5  A    between atoms: O_14  and  C_15
REMARK    6  A    between atoms: C_15  and  C_16
REMARK    7  A    between atoms: C_16  and  O_17
REMARK    8  A    between atoms: C_16  and  C_18
REMARK    9  A    between atoms: C_18  and  N_19
REMARK                            x       y       z     vdW  Elec       q    Type
REMARK                         _______ _______ _______ _____ _____    ______ ____
ROOT
ATOM      1  C   UNL     1       1.518   7.950  20.178  0.00  0.00    +0.000 C 
ENDROOT
BRANCH   1   2
ATOM      2  O   UNL     1       2.188   7.812  21.430  0.00  0.00    +0.000 OA
ATOM      3  H   UNL     1       3.132   7.683  21.237  0.00  0.00    +0.000 HD
ENDBRANCH   1   2
BRANCH   1   4
ATOM      4  C   UNL     1       2.373   7.379  19.067  0.00  0.00    +0.000 C 
BRANCH   4   5
ATOM      5  O   UNL     1       3.167   6.294  19.561  0.00  0.00    +0.000 OA
BRANCH   5  11
ATOM      6  C   UNL     1       3.600   4.467  18.073  0.00  0.00    +0.000 A 
ATOM      7  C   UNL     1       3.195   3.210  17.570  0.00  0.00    +0.000 A 
ATOM      8  C   UNL     1       2.038   2.570  18.015  0.00  0.00    +0.000 A 
ATOM      9  C   UNL     1       1.271   3.190  18.981  0.00  0.00    +0.000 A 
ATOM     10  C   UNL     1       1.635   4.417  19.484  0.00  0.00    +0.000 A 
ATOM     11  C   UNL     1       2.807   5.069  19.063  0.00  0.00    +0.000 A 
BRANCH   6  13
ATOM     12  O   UNL     1       4.918   5.172  16.254  0.00  0.00    +0.000 OA
ATOM     13  C   UNL     1       4.859   5.029  17.475  0.00  0.00    +0.000 C 
ATOM     14  N   UNL     1       5.917   5.386  18.296  0.00  0.00    +0.000 N 
ATOM     15  H   UNL     1       5.830   5.243  19.298  0.00  0.00    +0.000 HD
BRANCH  14  16
ATOM     16  C   UNL     1       7.107   5.976  17.746  0.00  0.00    +0.000 C 
ATOM     17  C   UNL     1       7.267   7.456  17.539  0.00  0.00    +0.000 C 
ATOM     18  C   UNL     1       8.043   6.766  18.620  0.00  0.00    +0.000 C 
ENDBRANCH  14  16
ENDBRANCH   6  13
BRANCH   9  19
ATOM     19  O   UNL     1       0.116   2.655  19.455  0.00  0.00    +0.000 OA
ATOM     20  H   UNL     1       0.298   2.232  20.309  0.00  0.00    +0.000 HD
ENDBRANCH   9  19
ENDBRANCH   5  11
ENDBRANCH   4   5
ENDBRANCH   1   4
BRANCH   1  21
ATOM     21  C   UNL     1       1.133   9.425  19.869  0.00  0.00    +0.000 C 
BRANCH  21  22
ATOM     22  N   UNL     1      -0.286   9.700  20.151  0.00  0.00    +0.000 NA
ATOM     23  C   UNL     1      -0.691   9.386  21.524  0.00  0.00    +0.000 C 
ATOM     24  C   UNL     1      -0.390  10.479  22.551  0.00  0.00    +0.000 C 
ATOM     25  C   UNL     1      -0.840  12.011  22.282  0.00  0.00    +0.000 C 
ATOM     26  C   UNL     1      -0.011  12.050  20.948  0.00  0.00    +0.000 C 
ATOM     27  C   UNL     1      -0.640  11.094  19.890  0.00  0.00    +0.000 C 
ATOM     28  C   UNL     1      -2.121  11.906  23.210  0.00  0.00    +0.000 C 
ATOM     29  C   UNL     1      -2.581  13.310  23.269  0.00  0.00    +0.000 A 
ATOM     30  C   UNL     1      -3.197  14.091  24.215  0.00  0.00    +0.000 A 
ATOM     31  C   UNL     1      -3.385  15.440  23.897  0.00  0.00    +0.000 A 
ATOM     32 CL   UNL     1      -4.089  16.488  25.065  0.00  0.00    +0.000 Cl
ATOM     33  C   UNL     1      -2.992  15.962  22.647  0.00  0.00    +0.000 A 
ATOM     34  C   UNL     1      -2.437  15.124  21.681  0.00  0.00    +0.000 A 
ATOM     35  C   UNL     1      -2.257  13.813  22.043  0.00  0.00    +0.000 A 
ATOM     36  O   UNL     1      -1.794  12.764  21.312  0.00  0.00    +0.000 OA
ENDBRANCH  21  22
ENDBRANCH   1  21
TORSDOF 9
ENDMDL
MODEL 6
REMARK VINA RESULT:      -8.0      3.001      5.323
REMARK  Name = 
REMARK  9 active torsions:
REMARK  status: ('A' for Active; 'I' for Inactive)
REMARK    1  A    between atoms: C_2  and  C_7
REMARK    2  A    between atoms: N_3  and  C_4
REMARK    3  A    between atoms: C_10  and  O_11
REMARK    4  A    between atoms: C_13  and  O_14
REMARK    5  A    between atoms: O_14  and  C_15
REMARK    6  A    between atoms: C_15  and  C_16
REMARK    7  A    between atoms: C_16  and  O_17
REMARK    8  A    between atoms: C_16  and  C_18
REMARK    9  A    between atoms: C_18  and  N_19
REMARK                            x       y       z     vdW  Elec       q    Type
REMARK                         _______ _______ _______ _____ _____    ______ ____
ROOT
ATOM      1  C   UNL     1       1.972   6.372  20.114  0.00  0.00    +0.000 C 
ENDROOT
BRANCH   1   2
ATOM      2  O   UNL     1       2.670   5.527  21.028  0.00  0.00    +0.000 OA
ATOM      3  H   UNL     1       2.015   5.185  21.659  0.00  0.00    +0.000 HD
ENDBRANCH   1   2
BRANCH   1   4
ATOM      4  C   UNL     1       2.958   7.092  19.217  0.00  0.00    +0.000 C 
BRANCH   4   5
ATOM      5  O   UNL     1       3.286   6.275  18.088  0.00  0.00    +0.000 OA
BRANCH   5  11
ATOM      6  C   UNL     1       5.139   4.778  18.339  0.00  0.00    +0.000 A 
ATOM      7  C   UNL     1       6.529   4.556  18.199  0.00  0.00    +0.000 A 
ATOM      8  C   UNL     1       7.390   5.537  17.708  0.00  0.00    +0.000 A 
ATOM      9  C   UNL     1       6.861   6.760  17.345  0.00  0.00    +0.000 A 
ATOM     10  C   UNL     1       5.514   7.007  17.477  0.00  0.00    +0.000 A 
ATOM     11  C   UNL     1       4.627   6.026  17.951  0.00  0.00    +0.000 A 
BRANCH   6  13
ATOM     12  O   UNL     1       4.879   2.918  19.760  0.00  0.00    +0.000 OA
ATOM     13  C   UNL     1       4.353   3.626  18.901  0.00  0.00    +0.000 C 
ATOM     14  N   UNL     1       3.061   3.388  18.461  0.00  0.00    +0.000 N 
ATOM     15  H   UNL     1       2.668   3.991  17.744  0.00  0.00    +0.000 HD
BRANCH  14  16
ATOM     16  C   UNL     1       2.276   2.326  19.027  0.00  0.00    +0.000 C 
ATOM     17  C   UNL     1       1.386   2.514  20.224  0.00  0.00    +0.000 C 
ATOM     18  C   UNL     1       0.780   2.312  18.868  0.00  0.00    +0.000 C 
ENDBRANCH  14  16
ENDBRANCH   6  13
BRANCH   9  19
ATOM     19  O   UNL     1       7.626   7.781  16.882  0.00  0.00    +0.000 OA
ATOM     20  H   UNL     1       7.266   8.616  17.218  0.00  0.00    +0.000 HD
ENDBRANCH   9  19
ENDBRANCH   5  11
ENDBRANCH   4   5
ENDBRANCH   1   4
BRANCH   1  21
ATOM     21  C   UNL     1       1.045   7.392  20.836  0.00  0.00    +0.000 C 
BRANCH  21  22
ATOM     22  N   UNL     1       1.507   8.780  20.666  0.00  0.00    +0.000 NA
ATOM     23  C   UNL     1       0.983   9.439  19.467  0.00  0.00    +0.000 C 
ATOM     24  C   UNL     1      -0.416  10.041  19.622  0.00  0.00    +0.000 C 
ATOM     25  C   UNL     1      -0.761  11.017  20.867  0.00  0.00    +0.000 C 
ATOM     26  C   UNL     1      -0.359   9.897  21.892  0.00  0.00    +0.000 C 
ATOM     27  C   UNL     1       1.173   9.617  21.817  0.00  0.00    +0.000 C 
ATOM     28  C   UNL     1      -0.610  12.340  20.005  0.00  0.00    +0.000 C 
ATOM     29  C   UNL     1      -1.103  13.377  20.937  0.00  0.00    +0.000 A 
ATOM     30  C   UNL     1      -1.780  14.563  20.799  0.00  0.00    +0.000 A 
ATOM     31  C   UNL     1      -2.146  15.224  21.976  0.00  0.00    +0.000 A 
ATOM     32 CL   UNL     1      -3.057  16.679  21.874  0.00  0.00    +0.000 Cl
ATOM     33  C   UNL     1      -1.802  14.711  23.244  0.00  0.00    +0.000 A 
ATOM     34  C   UNL     1      -1.048  13.542  23.346  0.00  0.00    +0.000 A 
ATOM     35  C   UNL     1      -0.726  12.920  22.166  0.00  0.00    +0.000 A 
ATOM     36  O   UNL     1       0.030  11.812  21.944  0.00  0.00    +0.000 OA
ENDBRANCH  21  22
ENDBRANCH   1  21
TORSDOF 9
ENDMDL
MODEL 7
REMARK VINA RESULT:      -7.8      3.475      5.886
REMARK  Name = 
REMARK  9 active torsions:
REMARK  status: ('A' for Active; 'I' for Inactive)
REMARK    1  A    between atoms: C_2  and  C_7
REMARK    2  A    between atoms: N_3  and  C_4
REMARK    3  A    between atoms: C_10  and  O_11
REMARK    4  A    between atoms: C_13  and  O_14
REMARK    5  A    between atoms: O_14  and  C_15
REMARK    6  A    between atoms: C_15  and  C_16
REMARK    7  A    between atoms: C_16  and  O_17
REMARK    8  A    between atoms: C_16  and  C_18
REMARK    9  A    between atoms: C_18  and  N_19
REMARK                            x       y       z     vdW  Elec       q    Type
REMARK                         _______ _______ _______ _____ _____    ______ ____
ROOT
ATOM      1  C   UNL     1       2.471   8.335  18.551  0.00  0.00    +0.000 C 
ENDROOT
BRANCH   1   2
ATOM      2  O   UNL     1       2.213   8.506  17.158  0.00  0.00    +0.000 OA
ATOM      3  H   UNL     1       2.417   9.432  16.940  0.00  0.00    +0.000 HD
ENDBRANCH   1   2
BRANCH   1   4
ATOM      4  C   UNL     1       2.723   6.873  18.854  0.00  0.00    +0.000 C 
BRANCH   4   5
ATOM      5  O   UNL     1       3.270   6.217  17.706  0.00  0.00    +0.000 OA
BRANCH   5  11
ATOM      6  C   UNL     1       5.144   4.854  18.318  0.00  0.00    +0.000 A 
ATOM      7  C   UNL     1       6.549   4.704  18.375  0.00  0.00    +0.000 A 
ATOM      8  C   UNL     1       7.420   5.691  17.913  0.00  0.00    +0.000 A 
ATOM      9  C   UNL     1       6.885   6.847  17.382  0.00  0.00    +0.000 A 
ATOM     10  C   UNL     1       5.522   7.026  17.321  0.00  0.00    +0.000 A 
ATOM     11  C   UNL     1       4.628   6.036  17.762  0.00  0.00    +0.000 A 
BRANCH   6  13
ATOM     12  O   UNL     1       4.852   3.012  19.756  0.00  0.00    +0.000 OA
ATOM     13  C   UNL     1       4.346   3.708  18.874  0.00  0.00    +0.000 C 
ATOM     14  N   UNL     1       3.068   3.460  18.403  0.00  0.00    +0.000 N 
ATOM     15  H   UNL     1       2.692   4.053  17.669  0.00  0.00    +0.000 HD
BRANCH  14  16
ATOM     16  C   UNL     1       2.271   2.403  18.962  0.00  0.00    +0.000 C 
ATOM     17  C   UNL     1       1.381   2.592  20.159  0.00  0.00    +0.000 C 
ATOM     18  C   UNL     1       0.774   2.404  18.800  0.00  0.00    +0.000 C 
ENDBRANCH  14  16
ENDBRANCH   6  13
BRANCH   9  19
ATOM     19  O   UNL     1       7.655   7.872  16.932  0.00  0.00    +0.000 OA
ATOM     20  H   UNL     1       8.587   7.623  17.025  0.00  0.00    +0.000 HD
ENDBRANCH   9  19
ENDBRANCH   5  11
ENDBRANCH   4   5
ENDBRANCH   1   4
BRANCH   1  21
ATOM     21  C   UNL     1       1.323   8.889  19.442  0.00  0.00    +0.000 C 
BRANCH  21  22
ATOM     22  N   UNL     1       1.170  10.347  19.308  0.00  0.00    +0.000 NA
ATOM     23  C   UNL     1      -0.021  10.754  18.557  0.00  0.00    +0.000 C 
ATOM     24  C   UNL     1      -1.313  10.806  19.375  0.00  0.00    +0.000 C 
ATOM     25  C   UNL     1      -1.366  11.604  20.783  0.00  0.00    +0.000 C 
ATOM     26  C   UNL     1      -0.202  10.723  21.360  0.00  0.00    +0.000 C 
ATOM     27  C   UNL     1       1.129  11.020  20.605  0.00  0.00    +0.000 C 
ATOM     28  C   UNL     1      -2.066  12.879  20.151  0.00  0.00    +0.000 C 
ATOM     29  C   UNL     1      -2.403  13.677  21.349  0.00  0.00    +0.000 A 
ATOM     30  C   UNL     1      -3.421  14.531  21.692  0.00  0.00    +0.000 A 
ATOM     31  C   UNL     1      -3.418  15.028  22.999  0.00  0.00    +0.000 A 
ATOM     32 CL   UNL     1      -4.704  16.049  23.514  0.00  0.00    +0.000 Cl
ATOM     33  C   UNL     1      -2.394  14.694  23.910  0.00  0.00    +0.000 A 
ATOM     34  C   UNL     1      -1.334  13.883  23.505  0.00  0.00    +0.000 A 
ATOM     35  C   UNL     1      -1.389  13.406  22.220  0.00  0.00    +0.000 A 
ATOM     36  O   UNL     1      -0.492  12.647  21.534  0.00  0.00    +0.000 OA
ENDBRANCH  21  22
ENDBRANCH   1  21
TORSDOF 9
ENDMDL
MODEL 8
REMARK VINA RESULT:      -7.8      3.969      6.212
REMARK  Name = 
REMARK  9 active torsions:
REMARK  status: ('A' for Active; 'I' for Inactive)
REMARK    1  A    between atoms: C_2  and  C_7
REMARK    2  A    between atoms: N_3  and  C_4
REMARK    3  A    between atoms: C_10  and  O_11
REMARK    4  A    between atoms: C_13  and  O_14
REMARK    5  A    between atoms: O_14  and  C_15
REMARK    6  A    between atoms: C_15  and  C_16
REMARK    7  A    between atoms: C_16  and  O_17
REMARK    8  A    between atoms: C_16  and  C_18
REMARK    9  A    between atoms: C_18  and  N_19
REMARK                            x       y       z     vdW  Elec       q    Type
REMARK                         _______ _______ _______ _____ _____    ______ ____
ROOT
ATOM      1  C   UNL     1       2.563   8.706  18.248  0.00  0.00    +0.000 C 
ENDROOT
BRANCH   1   2
ATOM      2  O   UNL     1       2.761   8.235  16.915  0.00  0.00    +0.000 OA
ATOM      3  H   UNL     1       2.398   7.335  16.872  0.00  0.00    +0.000 HD
ENDBRANCH   1   2
BRANCH   1   4
ATOM      4  C   UNL     1       2.029   7.587  19.117  0.00  0.00    +0.000 C 
BRANCH   4   5
ATOM      5  O   UNL     1       3.055   6.621  19.367  0.00  0.00    +0.000 OA
BRANCH   5  11
ATOM      6  C   UNL     1       3.535   4.679  18.048  0.00  0.00    +0.000 A 
ATOM      7  C   UNL     1       3.161   3.372  17.659  0.00  0.00    +0.000 A 
ATOM      8  C   UNL     1       2.020   2.746  18.162  0.00  0.00    +0.000 A 
ATOM      9  C   UNL     1       1.237   3.430  19.069  0.00  0.00    +0.000 A 
ATOM     10  C   UNL     1       1.571   4.707  19.460  0.00  0.00    +0.000 A 
ATOM     11  C   UNL     1       2.727   5.347  18.981  0.00  0.00    +0.000 A 
BRANCH   6  13
ATOM     12  O   UNL     1       4.825   5.279  16.171  0.00  0.00    +0.000 OA
ATOM     13  C   UNL     1       4.781   5.216  17.400  0.00  0.00    +0.000 C 
ATOM     14  N   UNL     1       5.842   5.638  18.183  0.00  0.00    +0.000 N 
ATOM     15  H   UNL     1       5.768   5.561  19.193  0.00  0.00    +0.000 HD
BRANCH  14  16
ATOM     16  C   UNL     1       7.018   6.206  17.583  0.00  0.00    +0.000 C 
ATOM     17  C   UNL     1       7.202   7.684  17.378  0.00  0.00    +0.000 C 
ATOM     18  C   UNL     1       8.012   6.968  18.418  0.00  0.00    +0.000 C 
ENDBRANCH  14  16
ENDBRANCH   6  13
BRANCH   9  19
ATOM     19  O   UNL     1       0.096   2.911  19.591  0.00  0.00    +0.000 OA
ATOM     20  H   UNL     1      -0.517   3.638  19.781  0.00  0.00    +0.000 HD
ENDBRANCH   9  19
ENDBRANCH   5  11
ENDBRANCH   4   5
ENDBRANCH   1   4
BRANCH   1  21
ATOM     21  C   UNL     1       1.622   9.943  18.309  0.00  0.00    +0.000 C 
BRANCH  21  22
ATOM     22  N   UNL     1       0.382   9.661  19.050  0.00  0.00    +0.000 NA
ATOM     23  C   UNL     1       0.166  10.537  20.205  0.00  0.00    +0.000 C 
ATOM     24  C   UNL     1      -0.468  11.891  19.879  0.00  0.00    +0.000 C 
ATOM     25  C   UNL     1      -1.814  11.977  18.983  0.00  0.00    +0.000 C 
ATOM     26  C   UNL     1      -1.109  11.225  17.799  0.00  0.00    +0.000 C 
ATOM     27  C   UNL     1      -0.803   9.750  18.197  0.00  0.00    +0.000 C 
ATOM     28  C   UNL     1      -2.761  12.172  20.241  0.00  0.00    +0.000 C 
ATOM     29  C   UNL     1      -4.059  12.488  19.609  0.00  0.00    +0.000 A 
ATOM     30  C   UNL     1      -5.134  13.275  19.939  0.00  0.00    +0.000 A 
ATOM     31  C   UNL     1      -6.161  13.373  18.995  0.00  0.00    +0.000 A 
ATOM     32 CL   UNL     1      -7.504  14.399  19.318  0.00  0.00    +0.000 Cl
ATOM     33  C   UNL     1      -6.110  12.664  17.777  0.00  0.00    +0.000 A 
ATOM     34  C   UNL     1      -5.038  11.814  17.506  0.00  0.00    +0.000 A 
ATOM     35  C   UNL     1      -4.047  11.763  18.453  0.00  0.00    +0.000 A 
ATOM     36  O   UNL     1      -2.921  11.000  18.495  0.00  0.00    +0.000 OA
ENDBRANCH  21  22
ENDBRANCH   1  21
TORSDOF 9
ENDMDL
MODEL 9
REMARK VINA RESULT:      -7.8      3.358      6.032
REMARK  Name = 
REMARK  9 active torsions:
REMARK  status: ('A' for Active; 'I' for Inactive)
REMARK    1  A    between atoms: C_2  and  C_7
REMARK    2  A    between atoms: N_3  and  C_4
REMARK    3  A    between atoms: C_10  and  O_11
REMARK    4  A    between atoms: C_13  and  O_14
REMARK    5  A    between atoms: O_14  and  C_15
REMARK    6  A    between atoms: C_15  and  C_16
REMARK    7  A    between atoms: C_16  and  O_17
REMARK    8  A    between atoms: C_16  and  C_18
REMARK    9  A    between atoms: C_18  and  N_19
REMARK                            x       y       z     vdW  Elec       q    Type
REMARK                         _______ _______ _______ _____ _____    ______ ____
ROOT
ATOM      1  C   UNL     1       2.628   8.368  18.200  0.00  0.00    +0.000 C 
ENDROOT
BRANCH   1   2
ATOM      2  O   UNL     1       3.134   8.370  16.866  0.00  0.00    +0.000 OA
ATOM      3  H   UNL     1       3.976   7.885  16.878  0.00  0.00    +0.000 HD
ENDBRANCH   1   2
BRANCH   1   4
ATOM      4  C   UNL     1       2.455   6.944  18.686  0.00  0.00    +0.000 C 
BRANCH   4   5
ATOM      5  O   UNL     1       2.871   6.022  17.673  0.00  0.00    +0.000 OA
BRANCH   5  11
ATOM      6  C   UNL     1       3.952   3.995  18.356  0.00  0.00    +0.000 A 
ATOM      7  C   UNL     1       3.828   2.636  18.724  0.00  0.00    +0.000 A 
ATOM      8  C   UNL     1       2.592   1.991  18.772  0.00  0.00    +0.000 A 
ATOM      9  C   UNL     1       1.458   2.710  18.452  0.00  0.00    +0.000 A 
ATOM     10  C   UNL     1       1.549   4.032  18.082  0.00  0.00    +0.000 A 
ATOM     11  C   UNL     1       2.781   4.706  18.047  0.00  0.00    +0.000 A 
BRANCH   6  13
ATOM     12  O   UNL     1       6.161   4.111  19.163  0.00  0.00    +0.000 OA
ATOM     13  C   UNL     1       5.355   4.535  18.334  0.00  0.00    +0.000 C 
ATOM     14  N   UNL     1       5.720   5.480  17.389  0.00  0.00    +0.000 N 
ATOM     15  H   UNL     1       5.022   5.809  16.729  0.00  0.00    +0.000 HD
BRANCH  14  16
ATOM     16  C   UNL     1       7.070   5.965  17.319  0.00  0.00    +0.000 C 
ATOM     17  C   UNL     1       7.414   7.429  17.277  0.00  0.00    +0.000 C 
ATOM     18  C   UNL     1       7.708   6.629  18.510  0.00  0.00    +0.000 C 
ENDBRANCH  14  16
ENDBRANCH   6  13
BRANCH   9  19
ATOM     19  O   UNL     1       0.217   2.159  18.447  0.00  0.00    +0.000 OA
ATOM     20  H   UNL     1      -0.177   2.290  17.571  0.00  0.00    +0.000 HD
ENDBRANCH   9  19
ENDBRANCH   5  11
ENDBRANCH   4   5
ENDBRANCH   1   4
BRANCH   1  21
ATOM     21  C   UNL     1       1.294   9.156  18.333  0.00  0.00    +0.000 C 
BRANCH  21  22
ATOM     22  N   UNL     1       1.426  10.326  19.218  0.00  0.00    +0.000 NA
ATOM     23  C   UNL     1       0.969  11.582  18.616  0.00  0.00    +0.000 C 
ATOM     24  C   UNL     1      -0.539  11.827  18.701  0.00  0.00    +0.000 C 
ATOM     25  C   UNL     1      -1.319  11.687  20.113  0.00  0.00    +0.000 C 
ATOM     26  C   UNL     1      -0.837  10.200  20.265  0.00  0.00    +0.000 C 
ATOM     27  C   UNL     1       0.706  10.148  20.478  0.00  0.00    +0.000 C 
ATOM     28  C   UNL     1      -1.350  13.253  20.368  0.00  0.00    +0.000 C 
ATOM     29  C   UNL     1      -2.233  13.359  21.549  0.00  0.00    +0.000 A 
ATOM     30  C   UNL     1      -3.145  14.281  22.000  0.00  0.00    +0.000 A 
ATOM     31  C   UNL     1      -3.856  13.953  23.159  0.00  0.00    +0.000 A 
ATOM     32 CL   UNL     1      -5.063  15.034  23.737  0.00  0.00    +0.000 Cl
ATOM     33  C   UNL     1      -3.618  12.747  23.851  0.00  0.00    +0.000 A 
ATOM     34  C   UNL     1      -2.631  11.868  23.407  0.00  0.00    +0.000 A 
ATOM     35  C   UNL     1      -1.971  12.223  22.258  0.00  0.00    +0.000 A 
ATOM     36  O   UNL     1      -0.941  11.605  21.619  0.00  0.00    +0.000 OA
ENDBRANCH  21  22
ENDBRANCH   1  21
TORSDOF 9
ENDMDL
