MODEL 1
REMARK VINA RESULT:      -8.1      0.000      0.000
REMARK  Name = 
REMARK  14 active torsions:
REMARK  status: ('A' for Active; 'I' for Inactive)
REMARK    1  A    between atoms: C_1  and  C_2
REMARK    2  A    between atoms: C_3  and  O_4
REMARK    3  A    between atoms: O_4  and  C_5
REMARK    4  A    between atoms: C_5  and  C_6
REMARK    5  A    between atoms: C_6  and  C_7
REMARK    6  A    between atoms: C_7  and  C_8
REMARK    7  A    between atoms: C_8  and  C_9
REMARK    8  A    between atoms: C_9  and  O_10
REMARK    9  A    between atoms: O_10  and  C_11
REMARK   10  A    between atoms: C_12  and  C_13
REMARK   11  A    between atoms: N_14  and  C_15
REMARK   12  A    between atoms: C_15  and  C_16
REMARK   13  A    between atoms: N_30  and  C_31
REMARK   14  A    between atoms: C_31  and  C_32
REMARK                            x       y       z     vdW  Elec       q    Type
REMARK                         _______ _______ _______ _____ _____    ______ ____
ROOT
ATOM      1  C   UNL     1       2.286  14.048  18.086  0.00  0.00    +0.000 C 
ENDROOT
BRANCH   1   2
ATOM      2  C   UNL     1       2.878  14.872  19.243  0.00  0.00    +0.000 C 
BRANCH   2   3
ATOM      3  C   UNL     1       4.382  14.675  19.386  0.00  0.00    +0.000 C 
BRANCH   3   4
ATOM      4  O   UNL     1       4.993  15.405  18.332  0.00  0.00    +0.000 OA
BRANCH   4   7
ATOM      5  C   UNL     1       7.170  13.900  17.539  0.00  0.00    +0.000 C 
ATOM      6  C   UNL     1       7.339  15.279  18.147  0.00  0.00    +0.000 A 
ATOM      7  C   UNL     1       6.241  15.936  18.585  0.00  0.00    +0.000 A 
ATOM      8  C   UNL     1       6.406  17.277  19.243  0.00  0.00    +0.000 A 
ATOM      9  O   UNL     1       5.464  17.952  19.651  0.00  0.00    +0.000 OA
ATOM     10  C   UNL     1       7.786  17.783  19.397  0.00  0.00    +0.000 A 
ATOM     11  C   UNL     1       8.783  17.052  18.898  0.00  0.00    +0.000 A 
ATOM     12  N   UNL     1       8.635  15.822  18.257  0.00  0.00    +0.000 N 
BRANCH  12  13
ATOM     13  C   UNL     1       9.822  15.194  17.628  0.00  0.00    +0.000 C 
BRANCH  13  14
ATOM     14  C   UNL     1      10.313  13.942  18.328  0.00  0.00    +0.000 A 
ATOM     15  C   UNL     1      10.369  13.811  19.723  0.00  0.00    +0.000 A 
ATOM     16  C   UNL     1      10.937  12.680  20.312  0.00  0.00    +0.000 A 
ATOM     17  C   UNL     1      11.429  11.649  19.515  0.00  0.00    +0.000 A 
ATOM     18  C   UNL     1      11.323  11.734  18.129  0.00  0.00    +0.000 A 
ATOM     19  C   UNL     1      10.763  12.868  17.540  0.00  0.00    +0.000 A 
ENDBRANCH  13  14
ENDBRANCH  12  13
ENDBRANCH   4   7
ENDBRANCH   3   4
ENDBRANCH   2   3
ENDBRANCH   1   2
BRANCH   1  20
ATOM     20  C   UNL     1       2.234  12.549  18.381  0.00  0.00    +0.000 C 
BRANCH  20  21
ATOM     21  C   UNL     1       0.842  12.132  18.827  0.00  0.00    +0.000 C 
BRANCH  21  22
ATOM     22  O   UNL     1       0.542  10.824  18.357  0.00  0.00    +0.000 OA
BRANCH  22  23
ATOM     23  C   UNL     1       0.797   9.822  19.297  0.00  0.00    +0.000 A 
ATOM     24  C   UNL     1       1.688   8.840  19.013  0.00  0.00    +0.000 A 
ATOM     25  C   UNL     1       2.468   8.902  17.715  0.00  0.00    +0.000 C 
ATOM     26  N   UNL     1       1.959   7.777  19.909  0.00  0.00    +0.000 N 
ATOM     27  C   UNL     1       1.365   7.803  21.167  0.00  0.00    +0.000 A 
ATOM     28  C   UNL     1       0.506   8.729  21.590  0.00  0.00    +0.000 A 
ATOM     29  C   UNL     1       0.113   9.792  20.650  0.00  0.00    +0.000 A 
ATOM     30  O   UNL     1      -0.719  10.618  21.023  0.00  0.00    +0.000 OA
BRANCH  26  31
ATOM     31  C   UNL     1       2.806   6.611  19.550  0.00  0.00    +0.000 C 
BRANCH  31  32
ATOM     32  C   UNL     1       2.046   5.298  19.442  0.00  0.00    +0.000 A 
ATOM     33  C   UNL     1       1.512   4.619  20.549  0.00  0.00    +0.000 A 
ATOM     34  C   UNL     1       0.947   3.350  20.404  0.00  0.00    +0.000 A 
ATOM     35  C   UNL     1       0.871   2.757  19.147  0.00  0.00    +0.000 A 
ATOM     36  C   UNL     1       1.323   3.449  18.027  0.00  0.00    +0.000 A 
ATOM     37  C   UNL     1       1.899   4.712  18.172  0.00  0.00    +0.000 A 
ENDBRANCH  31  32
ENDBRANCH  26  31
ENDBRANCH  22  23
ENDBRANCH  21  22
ENDBRANCH  20  21
ENDBRANCH   1  20
TORSDOF 12
ENDMDL
MODEL 2
REMARK VINA RESULT:      -7.8      3.668     12.092
REMARK  Name = 
REMARK  14 active torsions:
REMARK  status: ('A' for Active; 'I' for Inactive)
REMARK    1  A    between atoms: C_1  and  C_2
REMARK    2  A    between atoms: C_3  and  O_4
REMARK    3  A    between atoms: O_4  and  C_5
REMARK    4  A    between atoms: C_5  and  C_6
REMARK    5  A    between atoms: C_6  and  C_7
REMARK    6  A    between atoms: C_7  and  C_8
REMARK    7  A    between atoms: C_8  and  C_9
REMARK    8  A    between atoms: C_9  and  O_10
REMARK    9  A    between atoms: O_10  and  C_11
REMARK   10  A    between atoms: C_12  and  C_13
REMARK   11  A    between atoms: N_14  and  C_15
REMARK   12  A    between atoms: C_15  and  C_16
REMARK   13  A    between atoms: N_30  and  C_31
REMARK   14  A    between atoms: C_31  and  C_32
REMARK                            x       y       z     vdW  Elec       q    Type
REMARK                         _______ _______ _______ _____ _____    ______ ____
ROOT
ATOM      1  C   UNL     1       8.726   9.519  18.764  0.00  0.00    +0.000 C 
ENDROOT
BRANCH   1   2
ATOM      2  C   UNL     1       7.756   9.098  17.646  0.00  0.00    +0.000 C 
BRANCH   2   3
ATOM      3  C   UNL     1       7.555   7.590  17.590  0.00  0.00    +0.000 C 
BRANCH   3   4
ATOM      4  O   UNL     1       6.542   7.347  16.624  0.00  0.00    +0.000 OA
BRANCH   4   7
ATOM      5  C   UNL     1       4.064   7.406  17.844  0.00  0.00    +0.000 C 
ATOM      6  C   UNL     1       4.617   6.132  17.234  0.00  0.00    +0.000 A 
ATOM      7  C   UNL     1       5.867   6.148  16.718  0.00  0.00    +0.000 A 
ATOM      8  C   UNL     1       6.444   4.875  16.166  0.00  0.00    +0.000 A 
ATOM      9  O   UNL     1       7.562   4.802  15.660  0.00  0.00    +0.000 OA
ATOM     10  C   UNL     1       5.603   3.663  16.253  0.00  0.00    +0.000 A 
ATOM     11  C   UNL     1       4.376   3.785  16.760  0.00  0.00    +0.000 A 
ATOM     12  N   UNL     1       3.820   4.969  17.244  0.00  0.00    +0.000 N 
BRANCH  12  13
ATOM     13  C   UNL     1       2.393   4.981  17.646  0.00  0.00    +0.000 C 
BRANCH  13  14
ATOM     14  C   UNL     1       2.084   4.159  18.882  0.00  0.00    +0.000 A 
ATOM     15  C   UNL     1       1.582   2.851  18.832  0.00  0.00    +0.000 A 
ATOM     16  C   UNL     1       1.208   2.184  20.001  0.00  0.00    +0.000 A 
ATOM     17  C   UNL     1       1.359   2.804  21.238  0.00  0.00    +0.000 A 
ATOM     18  C   UNL     1       1.916   4.078  21.312  0.00  0.00    +0.000 A 
ATOM     19  C   UNL     1       2.283   4.748  20.143  0.00  0.00    +0.000 A 
ENDBRANCH  13  14
ENDBRANCH  12  13
ENDBRANCH   4   7
ENDBRANCH   3   4
ENDBRANCH   2   3
ENDBRANCH   1   2
BRANCH   1  20
ATOM     20  C   UNL     1       9.669  10.649  18.348  0.00  0.00    +0.000 C 
BRANCH  20  21
ATOM     21  C   UNL     1       8.891  11.916  18.032  0.00  0.00    +0.000 C 
BRANCH  21  22
ATOM     22  O   UNL     1       8.538  12.594  19.231  0.00  0.00    +0.000 OA
BRANCH  22  23
ATOM     23  C   UNL     1       8.671  13.982  19.146  0.00  0.00    +0.000 A 
ATOM     24  C   UNL     1       9.644  14.612  19.849  0.00  0.00    +0.000 A 
ATOM     25  C   UNL     1      10.637  13.786  20.641  0.00  0.00    +0.000 C 
ATOM     26  N   UNL     1       9.802  16.020  19.834  0.00  0.00    +0.000 N 
ATOM     27  C   UNL     1       8.995  16.768  18.983  0.00  0.00    +0.000 A 
ATOM     28  C   UNL     1       8.032  16.273  18.208  0.00  0.00    +0.000 A 
ATOM     29  C   UNL     1       7.761  14.827  18.276  0.00  0.00    +0.000 A 
ATOM     30  O   UNL     1       6.837  14.378  17.599  0.00  0.00    +0.000 OA
BRANCH  26  31
ATOM     31  C   UNL     1      10.753  16.737  20.720  0.00  0.00    +0.000 C 
BRANCH  31  32
ATOM     32  C   UNL     1      10.303  16.837  22.169  0.00  0.00    +0.000 A 
ATOM     33  C   UNL     1       8.988  17.150  22.551  0.00  0.00    +0.000 A 
ATOM     34  C   UNL     1       8.666  17.363  23.893  0.00  0.00    +0.000 A 
ATOM     35  C   UNL     1       9.643  17.231  24.877  0.00  0.00    +0.000 A 
ATOM     36  C   UNL     1      10.933  16.844  24.525  0.00  0.00    +0.000 A 
ATOM     37  C   UNL     1      11.259  16.641  23.182  0.00  0.00    +0.000 A 
ENDBRANCH  31  32
ENDBRANCH  26  31
ENDBRANCH  22  23
ENDBRANCH  21  22
ENDBRANCH  20  21
ENDBRANCH   1  20
TORSDOF 12
ENDMDL
MODEL 3
REMARK VINA RESULT:      -7.8      0.764     10.167
REMARK  Name = 
REMARK  14 active torsions:
REMARK  status: ('A' for Active; 'I' for Inactive)
REMARK    1  A    between atoms: C_1  and  C_2
REMARK    2  A    between atoms: C_3  and  O_4
REMARK    3  A    between atoms: O_4  and  C_5
REMARK    4  A    between atoms: C_5  and  C_6
REMARK    5  A    between atoms: C_6  and  C_7
REMARK    6  A    between atoms: C_7  and  C_8
REMARK    7  A    between atoms: C_8  and  C_9
REMARK    8  A    between atoms: C_9  and  O_10
REMARK    9  A    between atoms: O_10  and  C_11
REMARK   10  A    between atoms: C_12  and  C_13
REMARK   11  A    between atoms: N_14  and  C_15
REMARK   12  A    between atoms: C_15  and  C_16
REMARK   13  A    between atoms: N_30  and  C_31
REMARK   14  A    between atoms: C_31  and  C_32
REMARK                            x       y       z     vdW  Elec       q    Type
REMARK                         _______ _______ _______ _____ _____    ______ ____
ROOT
ATOM      1  C   UNL     1       3.125  13.561  18.063  0.00  0.00    +0.000 C 
ENDROOT
BRANCH   1   2
ATOM      2  C   UNL     1       1.690  13.018  17.943  0.00  0.00    +0.000 C 
BRANCH   2   3
ATOM      3  C   UNL     1       1.257  12.241  19.179  0.00  0.00    +0.000 C 
BRANCH   3   4
ATOM      4  O   UNL     1       0.644  11.046  18.719  0.00  0.00    +0.000 OA
BRANCH   4   7
ATOM      5  C   UNL     1       2.174   8.931  17.814  0.00  0.00    +0.000 C 
ATOM      6  C   UNL     1       1.530   8.913  19.187  0.00  0.00    +0.000 A 
ATOM      7  C   UNL     1       0.731   9.944  19.544  0.00  0.00    +0.000 A 
ATOM      8  C   UNL     1       0.043   9.905  20.879  0.00  0.00    +0.000 A 
ATOM      9  O   UNL     1      -0.683  10.806  21.293  0.00  0.00    +0.000 OA
ATOM     10  C   UNL     1       0.265   8.706  21.714  0.00  0.00    +0.000 A 
ATOM     11  C   UNL     1       1.098   7.770  21.260  0.00  0.00    +0.000 A 
ATOM     12  N   UNL     1       1.767   7.814  20.037  0.00  0.00    +0.000 N 
BRANCH  12  13
ATOM     13  C   UNL     1       2.772   6.767  19.731  0.00  0.00    +0.000 C 
BRANCH  13  14
ATOM     14  C   UNL     1       2.182   5.410  19.398  0.00  0.00    +0.000 A 
ATOM     15  C   UNL     1       2.052   4.927  18.089  0.00  0.00    +0.000 A 
ATOM     16  C   UNL     1       1.397   3.721  17.834  0.00  0.00    +0.000 A 
ATOM     17  C   UNL     1       0.890   2.965  18.888  0.00  0.00    +0.000 A 
ATOM     18  C   UNL     1       1.068   3.397  20.200  0.00  0.00    +0.000 A 
ATOM     19  C   UNL     1       1.715   4.607  20.454  0.00  0.00    +0.000 A 
ENDBRANCH  13  14
ENDBRANCH  12  13
ENDBRANCH   4   7
ENDBRANCH   3   4
ENDBRANCH   2   3
ENDBRANCH   1   2
BRANCH   1  20
ATOM     20  C   UNL     1       3.290  14.578  19.193  0.00  0.00    +0.000 C 
BRANCH  20  21
ATOM     21  C   UNL     1       4.759  14.884  19.436  0.00  0.00    +0.000 C 
BRANCH  21  22
ATOM     22  O   UNL     1       5.214  15.880  18.530  0.00  0.00    +0.000 OA
BRANCH  22  23
ATOM     23  C   UNL     1       6.581  16.149  18.636  0.00  0.00    +0.000 A 
ATOM     24  C   UNL     1       7.485  15.252  18.170  0.00  0.00    +0.000 A 
ATOM     25  C   UNL     1       6.993  14.013  17.451  0.00  0.00    +0.000 C 
ATOM     26  N   UNL     1       8.882  15.451  18.285  0.00  0.00    +0.000 N 
ATOM     27  C   UNL     1       9.339  16.661  18.800  0.00  0.00    +0.000 A 
ATOM     28  C   UNL     1       8.563  17.643  19.253  0.00  0.00    +0.000 A 
ATOM     29  C   UNL     1       7.105  17.432  19.253  0.00  0.00    +0.000 A 
ATOM     30  O   UNL     1       6.391  18.318  19.719  0.00  0.00    +0.000 OA
BRANCH  26  31
ATOM     31  C   UNL     1       9.881  14.412  17.930  0.00  0.00    +0.000 C 
BRANCH  31  32
ATOM     32  C   UNL     1       9.891  13.211  18.864  0.00  0.00    +0.000 A 
ATOM     33  C   UNL     1       9.801  11.883  18.419  0.00  0.00    +0.000 A 
ATOM     34  C   UNL     1       9.675  10.831  19.329  0.00  0.00    +0.000 A 
ATOM     35  C   UNL     1       9.677  11.086  20.698  0.00  0.00    +0.000 A 
ATOM     36  C   UNL     1       9.846  12.389  21.159  0.00  0.00    +0.000 A 
ATOM     37  C   UNL     1       9.960  13.443  20.250  0.00  0.00    +0.000 A 
ENDBRANCH  31  32
ENDBRANCH  26  31
ENDBRANCH  22  23
ENDBRANCH  21  22
ENDBRANCH  20  21
ENDBRANCH   1  20
TORSDOF 12
ENDMDL
MODEL 4
REMARK VINA RESULT:      -7.6      6.164     10.244
REMARK  Name = 
REMARK  14 active torsions:
REMARK  status: ('A' for Active; 'I' for Inactive)
REMARK    1  A    between atoms: C_1  and  C_2
REMARK    2  A    between atoms: C_3  and  O_4
REMARK    3  A    between atoms: O_4  and  C_5
REMARK    4  A    between atoms: C_5  and  C_6
REMARK    5  A    between atoms: C_6  and  C_7
REMARK    6  A    between atoms: C_7  and  C_8
REMARK    7  A    between atoms: C_8  and  C_9
REMARK    8  A    between atoms: C_9  and  O_10
REMARK    9  A    between atoms: O_10  and  C_11
REMARK   10  A    between atoms: C_12  and  C_13
REMARK   11  A    between atoms: N_14  and  C_15
REMARK   12  A    between atoms: C_15  and  C_16
REMARK   13  A    between atoms: N_30  and  C_31
REMARK   14  A    between atoms: C_31  and  C_32
REMARK                            x       y       z     vdW  Elec       q    Type
REMARK                         _______ _______ _______ _____ _____    ______ ____
ROOT
ATOM      1  C   UNL     1       1.765   7.269  18.699  0.00  0.00    +0.000 C 
ENDROOT
BRANCH   1   2
ATOM      2  C   UNL     1       2.357   6.588  19.945  0.00  0.00    +0.000 C 
BRANCH   2   3
ATOM      3  C   UNL     1       1.287   5.959  20.827  0.00  0.00    +0.000 C 
BRANCH   3   4
ATOM      4  O   UNL     1       0.928   4.725  20.221  0.00  0.00    +0.000 OA
BRANCH   4   7
ATOM      5  C   UNL     1       1.563   4.260  17.573  0.00  0.00    +0.000 C 
ATOM      6  C   UNL     1       2.355   3.627  18.701  0.00  0.00    +0.000 A 
ATOM      7  C   UNL     1       1.949   3.832  19.975  0.00  0.00    +0.000 A 
ATOM      8  C   UNL     1       2.693   3.160  21.095  0.00  0.00    +0.000 A 
ATOM      9  O   UNL     1       2.407   3.307  22.281  0.00  0.00    +0.000 OA
ATOM     10  C   UNL     1       3.819   2.280  20.719  0.00  0.00    +0.000 A 
ATOM     11  C   UNL     1       4.137   2.182  19.429  0.00  0.00    +0.000 A 
ATOM     12  N   UNL     1       3.473   2.828  18.386  0.00  0.00    +0.000 N 
BRANCH  12  13
ATOM     13  C   UNL     1       4.030   2.737  17.015  0.00  0.00    +0.000 C 
BRANCH  13  14
ATOM     14  C   UNL     1       5.027   3.826  16.669  0.00  0.00    +0.000 A 
ATOM     15  C   UNL     1       5.929   3.734  15.600  0.00  0.00    +0.000 A 
ATOM     16  C   UNL     1       6.900   4.717  15.398  0.00  0.00    +0.000 A 
ATOM     17  C   UNL     1       6.964   5.821  16.245  0.00  0.00    +0.000 A 
ATOM     18  C   UNL     1       6.035   5.960  17.273  0.00  0.00    +0.000 A 
ATOM     19  C   UNL     1       5.069   4.974  17.480  0.00  0.00    +0.000 A 
ENDBRANCH  13  14
ENDBRANCH  12  13
ENDBRANCH   4   7
ENDBRANCH   3   4
ENDBRANCH   2   3
ENDBRANCH   1   2
BRANCH   1  20
ATOM     20  C   UNL     1       2.088   8.761  18.618  0.00  0.00    +0.000 C 
BRANCH  20  21
ATOM     21  C   UNL     1       0.854   9.600  18.905  0.00  0.00    +0.000 C 
BRANCH  21  22
ATOM     22  O   UNL     1       1.175  10.672  19.781  0.00  0.00    +0.000 OA
BRANCH  22  23
ATOM     23  C   UNL     1       0.350  10.739  20.907  0.00  0.00    +0.000 A 
ATOM     24  C   UNL     1      -0.693  11.605  20.929  0.00  0.00    +0.000 A 
ATOM     25  C   UNL     1      -1.006  12.419  19.691  0.00  0.00    +0.000 C 
ATOM     26  N   UNL     1      -1.539  11.745  22.057  0.00  0.00    +0.000 N 
ATOM     27  C   UNL     1      -1.354  10.887  23.136  0.00  0.00    +0.000 A 
ATOM     28  C   UNL     1      -0.397   9.964  23.226  0.00  0.00    +0.000 A 
ATOM     29  C   UNL     1       0.572   9.859  22.122  0.00  0.00    +0.000 A 
ATOM     30  O   UNL     1       1.485   9.043  22.227  0.00  0.00    +0.000 OA
BRANCH  26  31
ATOM     31  C   UNL     1      -2.581  12.798  22.162  0.00  0.00    +0.000 C 
BRANCH  31  32
ATOM     32  C   UNL     1      -2.332  13.815  23.265  0.00  0.00    +0.000 A 
ATOM     33  C   UNL     1      -1.182  14.617  23.333  0.00  0.00    +0.000 A 
ATOM     34  C   UNL     1      -0.944  15.432  24.443  0.00  0.00    +0.000 A 
ATOM     35  C   UNL     1      -1.868  15.486  25.483  0.00  0.00    +0.000 A 
ATOM     36  C   UNL     1      -3.052  14.758  25.396  0.00  0.00    +0.000 A 
ATOM     37  C   UNL     1      -3.285  13.935  24.292  0.00  0.00    +0.000 A 
ENDBRANCH  31  32
ENDBRANCH  26  31
ENDBRANCH  22  23
ENDBRANCH  21  22
ENDBRANCH  20  21
ENDBRANCH   1  20
TORSDOF 12
ENDMDL
MODEL 5
REMARK VINA RESULT:      -7.6      3.882     11.218
REMARK  Name = 
REMARK  14 active torsions:
REMARK  status: ('A' for Active; 'I' for Inactive)
REMARK    1  A    between atoms: C_1  and  C_2
REMARK    2  A    between atoms: C_3  and  O_4
REMARK    3  A    between atoms: O_4  and  C_5
REMARK    4  A    between atoms: C_5  and  C_6
REMARK    5  A    between atoms: C_6  and  C_7
REMARK    6  A    between atoms: C_7  and  C_8
REMARK    7  A    between atoms: C_8  and  C_9
REMARK    8  A    between atoms: C_9  and  O_10
REMARK    9  A    between atoms: O_10  and  C_11
REMARK   10  A    between atoms: C_12  and  C_13
REMARK   11  A    between atoms: N_14  and  C_15
REMARK   12  A    between atoms: C_15  and  C_16
REMARK   13  A    between atoms: N_30  and  C_31
REMARK   14  A    between atoms: C_31  and  C_32
REMARK                            x       y       z     vdW  Elec       q    Type
REMARK                         _______ _______ _______ _____ _____    ______ ____
ROOT
ATOM      1  C   UNL     1       8.865   9.604  17.885  0.00  0.00    +0.000 C 
ENDROOT
BRANCH   1   2
ATOM      2  C   UNL     1       7.403   9.164  17.691  0.00  0.00    +0.000 C 
BRANCH   2   3
ATOM      3  C   UNL     1       7.258   7.650  17.612  0.00  0.00    +0.000 C 
BRANCH   3   4
ATOM      4  O   UNL     1       6.256   7.384  16.641  0.00  0.00    +0.000 OA
BRANCH   4   7
ATOM      5  C   UNL     1       3.927   6.630  17.919  0.00  0.00    +0.000 C 
ATOM      6  C   UNL     1       4.691   5.666  17.032  0.00  0.00    +0.000 A 
ATOM      7  C   UNL     1       5.865   6.070  16.494  0.00  0.00    +0.000 A 
ATOM      8  C   UNL     1       6.658   5.102  15.663  0.00  0.00    +0.000 A 
ATOM      9  O   UNL     1       7.722   5.389  15.119  0.00  0.00    +0.000 OA
ATOM     10  C   UNL     1       6.107   3.739  15.512  0.00  0.00    +0.000 A 
ATOM     11  C   UNL     1       4.926   3.473  16.069  0.00  0.00    +0.000 A 
ATOM     12  N   UNL     1       4.168   4.376  16.815  0.00  0.00    +0.000 N 
BRANCH  12  13
ATOM     13  C   UNL     1       2.807   3.980  17.253  0.00  0.00    +0.000 C 
BRANCH  13  14
ATOM     14  C   UNL     1       2.686   3.689  18.736  0.00  0.00    +0.000 A 
ATOM     15  C   UNL     1       3.658   2.990  19.465  0.00  0.00    +0.000 A 
ATOM     16  C   UNL     1       3.441   2.651  20.803  0.00  0.00    +0.000 A 
ATOM     17  C   UNL     1       2.262   3.034  21.438  0.00  0.00    +0.000 A 
ATOM     18  C   UNL     1       1.315   3.786  20.748  0.00  0.00    +0.000 A 
ATOM     19  C   UNL     1       1.528   4.117  19.409  0.00  0.00    +0.000 A 
ENDBRANCH  13  14
ENDBRANCH  12  13
ENDBRANCH   4   7
ENDBRANCH   3   4
ENDBRANCH   2   3
ENDBRANCH   1   2
BRANCH   1  20
ATOM     20  C   UNL     1       9.181  10.024  19.321  0.00  0.00    +0.000 C 
BRANCH  20  21
ATOM     21  C   UNL     1      10.068  11.258  19.343  0.00  0.00    +0.000 C 
BRANCH  21  22
ATOM     22  O   UNL     1      10.386  11.617  20.681  0.00  0.00    +0.000 OA
BRANCH  22  23
ATOM     23  C   UNL     1      10.074  12.942  20.993  0.00  0.00    +0.000 A 
ATOM     24  C   UNL     1       8.975  13.221  21.736  0.00  0.00    +0.000 A 
ATOM     25  C   UNL     1       8.154  12.079  22.299  0.00  0.00    +0.000 C 
ATOM     26  N   UNL     1       8.587  14.546  22.051  0.00  0.00    +0.000 N 
ATOM     27  C   UNL     1       9.425  15.590  21.672  0.00  0.00    +0.000 A 
ATOM     28  C   UNL     1      10.554  15.454  20.979  0.00  0.00    +0.000 A 
ATOM     29  C   UNL     1      10.937  14.103  20.536  0.00  0.00    +0.000 A 
ATOM     30  O   UNL     1      11.953  13.983  19.852  0.00  0.00    +0.000 OA
BRANCH  26  31
ATOM     31  C   UNL     1       7.304  14.877  22.721  0.00  0.00    +0.000 C 
BRANCH  31  32
ATOM     32  C   UNL     1       6.084  14.776  21.818  0.00  0.00    +0.000 A 
ATOM     33  C   UNL     1       6.037  15.307  20.519  0.00  0.00    +0.000 A 
ATOM     34  C   UNL     1       4.845  15.306  19.790  0.00  0.00    +0.000 A 
ATOM     35  C   UNL     1       3.693  14.742  20.331  0.00  0.00    +0.000 A 
ATOM     36  C   UNL     1       3.741  14.141  21.586  0.00  0.00    +0.000 A 
ATOM     37  C   UNL     1       4.929  14.151  22.321  0.00  0.00    +0.000 A 
ENDBRANCH  31  32
ENDBRANCH  26  31
ENDBRANCH  22  23
ENDBRANCH  21  22
ENDBRANCH  20  21
ENDBRANCH   1  20
TORSDOF 12
ENDMDL
MODEL 6
REMARK VINA RESULT:      -7.6      4.109      5.866
REMARK  Name = 
REMARK  14 active torsions:
REMARK  status: ('A' for Active; 'I' for Inactive)
REMARK    1  A    between atoms: C_1  and  C_2
REMARK    2  A    between atoms: C_3  and  O_4
REMARK    3  A    between atoms: O_4  and  C_5
REMARK    4  A    between atoms: C_5  and  C_6
REMARK    5  A    between atoms: C_6  and  C_7
REMARK    6  A    between atoms: C_7  and  C_8
REMARK    7  A    between atoms: C_8  and  C_9
REMARK    8  A    between atoms: C_9  and  O_10
REMARK    9  A    between atoms: O_10  and  C_11
REMARK   10  A    between atoms: C_12  and  C_13
REMARK   11  A    between atoms: N_14  and  C_15
REMARK   12  A    between atoms: C_15  and  C_16
REMARK   13  A    between atoms: N_30  and  C_31
REMARK   14  A    between atoms: C_31  and  C_32
REMARK                            x       y       z     vdW  Elec       q    Type
REMARK                         _______ _______ _______ _____ _____    ______ ____
ROOT
ATOM      1  C   UNL     1       8.855   9.396  18.030  0.00  0.00    +0.000 C 
ENDROOT
BRANCH   1   2
ATOM      2  C   UNL     1       8.681  10.783  18.673  0.00  0.00    +0.000 C 
BRANCH   2   3
ATOM      3  C   UNL     1       9.251  11.900  17.808  0.00  0.00    +0.000 C 
BRANCH   3   4
ATOM      4  O   UNL     1       9.784  12.874  18.694  0.00  0.00    +0.000 OA
BRANCH   4   7
ATOM      5  C   UNL     1      10.091  12.507  21.414  0.00  0.00    +0.000 C 
ATOM      6  C   UNL     1       9.039  13.445  20.856  0.00  0.00    +0.000 A 
ATOM      7  C   UNL     1       8.887  13.526  19.514  0.00  0.00    +0.000 A 
ATOM      8  C   UNL     1       7.808  14.408  18.954  0.00  0.00    +0.000 A 
ATOM      9  O   UNL     1       7.612  14.557  17.750  0.00  0.00    +0.000 OA
ATOM     10  C   UNL     1       6.950  15.119  19.926  0.00  0.00    +0.000 A 
ATOM     11  C   UNL     1       7.220  14.977  21.223  0.00  0.00    +0.000 A 
ATOM     12  N   UNL     1       8.241  14.186  21.750  0.00  0.00    +0.000 N 
BRANCH  12  13
ATOM     13  C   UNL     1       8.511  14.240  23.207  0.00  0.00    +0.000 C 
BRANCH  13  14
ATOM     14  C   UNL     1       7.478  13.533  24.062  0.00  0.00    +0.000 A 
ATOM     15  C   UNL     1       6.510  14.209  24.818  0.00  0.00    +0.000 A 
ATOM     16  C   UNL     1       5.657  13.511  25.676  0.00  0.00    +0.000 A 
ATOM     17  C   UNL     1       5.740  12.123  25.767  0.00  0.00    +0.000 A 
ATOM     18  C   UNL     1       6.652  11.430  24.975  0.00  0.00    +0.000 A 
ATOM     19  C   UNL     1       7.510  12.128  24.124  0.00  0.00    +0.000 A 
ENDBRANCH  13  14
ENDBRANCH  12  13
ENDBRANCH   4   7
ENDBRANCH   3   4
ENDBRANCH   2   3
ENDBRANCH   1   2
BRANCH   1  20
ATOM     20  C   UNL     1       7.674   8.460  18.292  0.00  0.00    +0.000 C 
BRANCH  20  21
ATOM     21  C   UNL     1       7.663   7.311  17.297  0.00  0.00    +0.000 C 
BRANCH  21  22
ATOM     22  O   UNL     1       6.469   7.335  16.525  0.00  0.00    +0.000 OA
BRANCH  22  23
ATOM     23  C   UNL     1       5.683   6.190  16.677  0.00  0.00    +0.000 A 
ATOM     24  C   UNL     1       4.407   6.301  17.121  0.00  0.00    +0.000 A 
ATOM     25  C   UNL     1       3.821   7.678  17.353  0.00  0.00    +0.000 C 
ATOM     26  N   UNL     1       3.575   5.173  17.331  0.00  0.00    +0.000 N 
ATOM     27  C   UNL     1       4.055   3.918  16.967  0.00  0.00    +0.000 A 
ATOM     28  C   UNL     1       5.270   3.674  16.480  0.00  0.00    +0.000 A 
ATOM     29  C   UNL     1       6.205   4.804  16.349  0.00  0.00    +0.000 A 
ATOM     30  O   UNL     1       7.344   4.571  15.947  0.00  0.00    +0.000 OA
BRANCH  26  31
ATOM     31  C   UNL     1       2.237   5.261  17.968  0.00  0.00    +0.000 C 
BRANCH  31  32
ATOM     32  C   UNL     1       2.044   4.320  19.147  0.00  0.00    +0.000 A 
ATOM     33  C   UNL     1       1.310   3.125  19.072  0.00  0.00    +0.000 A 
ATOM     34  C   UNL     1       1.051   2.373  20.220  0.00  0.00    +0.000 A 
ATOM     35  C   UNL     1       1.552   2.782  21.453  0.00  0.00    +0.000 A 
ATOM     36  C   UNL     1       2.349   3.921  21.534  0.00  0.00    +0.000 A 
ATOM     37  C   UNL     1       2.599   4.680  20.389  0.00  0.00    +0.000 A 
ENDBRANCH  31  32
ENDBRANCH  26  31
ENDBRANCH  22  23
ENDBRANCH  21  22
ENDBRANCH  20  21
ENDBRANCH   1  20
TORSDOF 12
ENDMDL
MODEL 7
REMARK VINA RESULT:      -7.6      5.925      9.655
REMARK  Name = 
REMARK  14 active torsions:
REMARK  status: ('A' for Active; 'I' for Inactive)
REMARK    1  A    between atoms: C_1  and  C_2
REMARK    2  A    between atoms: C_3  and  O_4
REMARK    3  A    between atoms: O_4  and  C_5
REMARK    4  A    between atoms: C_5  and  C_6
REMARK    5  A    between atoms: C_6  and  C_7
REMARK    6  A    between atoms: C_7  and  C_8
REMARK    7  A    between atoms: C_8  and  C_9
REMARK    8  A    between atoms: C_9  and  O_10
REMARK    9  A    between atoms: O_10  and  C_11
REMARK   10  A    between atoms: C_12  and  C_13
REMARK   11  A    between atoms: N_14  and  C_15
REMARK   12  A    between atoms: C_15  and  C_16
REMARK   13  A    between atoms: N_30  and  C_31
REMARK   14  A    between atoms: C_31  and  C_32
REMARK                            x       y       z     vdW  Elec       q    Type
REMARK                         _______ _______ _______ _____ _____    ______ ____
ROOT
ATOM      1  C   UNL     1       1.393   8.646  21.124  0.00  0.00    +0.000 C 
ENDROOT
BRANCH   1   2
ATOM      2  C   UNL     1       1.920   7.349  20.484  0.00  0.00    +0.000 C 
BRANCH   2   3
ATOM      3  C   UNL     1       1.368   6.102  21.161  0.00  0.00    +0.000 C 
BRANCH   3   4
ATOM      4  O   UNL     1       1.189   5.128  20.143  0.00  0.00    +0.000 OA
BRANCH   4   7
ATOM      5  C   UNL     1       2.508   5.428  17.735  0.00  0.00    +0.000 C 
ATOM      6  C   UNL     1       2.978   4.430  18.777  0.00  0.00    +0.000 A 
ATOM      7  C   UNL     1       2.247   4.276  19.904  0.00  0.00    +0.000 A 
ATOM      8  C   UNL     1       2.673   3.248  20.914  0.00  0.00    +0.000 A 
ATOM      9  O   UNL     1       2.082   3.055  21.974  0.00  0.00    +0.000 OA
ATOM     10  C   UNL     1       3.866   2.440  20.587  0.00  0.00    +0.000 A 
ATOM     11  C   UNL     1       4.516   2.708  19.455  0.00  0.00    +0.000 A 
ATOM     12  N   UNL     1       4.146   3.683  18.528  0.00  0.00    +0.000 N 
BRANCH  12  13
ATOM     13  C   UNL     1       5.048   3.964  17.384  0.00  0.00    +0.000 C 
BRANCH  13  14
ATOM     14  C   UNL     1       6.079   5.044  17.650  0.00  0.00    +0.000 A 
ATOM     15  C   UNL     1       7.043   4.955  18.665  0.00  0.00    +0.000 A 
ATOM     16  C   UNL     1       7.893   6.029  18.938  0.00  0.00    +0.000 A 
ATOM     17  C   UNL     1       7.812   7.194  18.180  0.00  0.00    +0.000 A 
ATOM     18  C   UNL     1       6.905   7.275  17.127  0.00  0.00    +0.000 A 
ATOM     19  C   UNL     1       6.050   6.205  16.859  0.00  0.00    +0.000 A 
ENDBRANCH  13  14
ENDBRANCH  12  13
ENDBRANCH   4   7
ENDBRANCH   3   4
ENDBRANCH   2   3
ENDBRANCH   1   2
BRANCH   1  20
ATOM     20  C   UNL     1      -0.111   8.841  20.937  0.00  0.00    +0.000 C 
BRANCH  20  21
ATOM     21  C   UNL     1      -0.394   9.964  19.953  0.00  0.00    +0.000 C 
BRANCH  21  22
ATOM     22  O   UNL     1      -0.165  11.228  20.563  0.00  0.00    +0.000 OA
BRANCH  22  23
ATOM     23  C   UNL     1      -1.261  11.707  21.284  0.00  0.00    +0.000 A 
ATOM     24  C   UNL     1      -2.281  12.321  20.635  0.00  0.00    +0.000 A 
ATOM     25  C   UNL     1      -2.259  12.392  19.123  0.00  0.00    +0.000 C 
ATOM     26  N   UNL     1      -3.400  12.861  21.317  0.00  0.00    +0.000 N 
ATOM     27  C   UNL     1      -3.501  12.657  22.690  0.00  0.00    +0.000 A 
ATOM     28  C   UNL     1      -2.595  12.034  23.441  0.00  0.00    +0.000 A 
ATOM     29  C   UNL     1      -1.365  11.554  22.790  0.00  0.00    +0.000 A 
ATOM     30  O   UNL     1      -0.505  11.024  23.492  0.00  0.00    +0.000 OA
BRANCH  26  31
ATOM     31  C   UNL     1      -4.441  13.677  20.645  0.00  0.00    +0.000 C 
BRANCH  31  32
ATOM     32  C   UNL     1      -5.485  12.863  19.895  0.00  0.00    +0.000 A 
ATOM     33  C   UNL     1      -6.172  11.777  20.460  0.00  0.00    +0.000 A 
ATOM     34  C   UNL     1      -7.015  10.982  19.681  0.00  0.00    +0.000 A 
ATOM     35  C   UNL     1      -7.215  11.282  18.336  0.00  0.00    +0.000 A 
ATOM     36  C   UNL     1      -6.604  12.402  17.778  0.00  0.00    +0.000 A 
ATOM     37  C   UNL     1      -5.752  13.191  18.553  0.00  0.00    +0.000 A 
ENDBRANCH  31  32
ENDBRANCH  26  31
ENDBRANCH  22  23
ENDBRANCH  21  22
ENDBRANCH  20  21
ENDBRANCH   1  20
TORSDOF 12
ENDMDL
MODEL 8
REMARK VINA RESULT:      -7.6      6.403      9.824
REMARK  Name = 
REMARK  14 active torsions:
REMARK  status: ('A' for Active; 'I' for Inactive)
REMARK    1  A    between atoms: C_1  and  C_2
REMARK    2  A    between atoms: C_3  and  O_4
REMARK    3  A    between atoms: O_4  and  C_5
REMARK    4  A    between atoms: C_5  and  C_6
REMARK    5  A    between atoms: C_6  and  C_7
REMARK    6  A    between atoms: C_7  and  C_8
REMARK    7  A    between atoms: C_8  and  C_9
REMARK    8  A    between atoms: C_9  and  O_10
REMARK    9  A    between atoms: O_10  and  C_11
REMARK   10  A    between atoms: C_12  and  C_13
REMARK   11  A    between atoms: N_14  and  C_15
REMARK   12  A    between atoms: C_15  and  C_16
REMARK   13  A    between atoms: N_30  and  C_31
REMARK   14  A    between atoms: C_31  and  C_32
REMARK                            x       y       z     vdW  Elec       q    Type
REMARK                         _______ _______ _______ _____ _____    ______ ____
ROOT
ATOM      1  C   UNL     1       1.815   8.263  19.490  0.00  0.00    +0.000 C 
ENDROOT
BRANCH   1   2
ATOM      2  C   UNL     1       1.162   9.138  20.575  0.00  0.00    +0.000 C 
BRANCH   2   3
ATOM      3  C   UNL     1       0.121  10.091  20.004  0.00  0.00    +0.000 C 
BRANCH   3   4
ATOM      4  O   UNL     1       0.238  11.307  20.728  0.00  0.00    +0.000 OA
BRANCH   4   7
ATOM      5  C   UNL     1      -1.525  12.997  19.436  0.00  0.00    +0.000 C 
ATOM      6  C   UNL     1      -1.805  12.478  20.833  0.00  0.00    +0.000 A 
ATOM      7  C   UNL     1      -0.869  11.714  21.442  0.00  0.00    +0.000 A 
ATOM      8  C   UNL     1      -1.114  11.246  22.849  0.00  0.00    +0.000 A 
ATOM      9  O   UNL     1      -0.329  10.533  23.471  0.00  0.00    +0.000 OA
ATOM     10  C   UNL     1      -2.369  11.683  23.494  0.00  0.00    +0.000 A 
ATOM     11  C   UNL     1      -3.223  12.412  22.776  0.00  0.00    +0.000 A 
ATOM     12  N   UNL     1      -3.020  12.824  21.459  0.00  0.00    +0.000 N 
BRANCH  12  13
ATOM     13  C   UNL     1      -4.122  13.509  20.742  0.00  0.00    +0.000 C 
BRANCH  13  14
ATOM     14  C   UNL     1      -5.251  12.595  20.308  0.00  0.00    +0.000 A 
ATOM     15  C   UNL     1      -6.391  12.355  21.088  0.00  0.00    +0.000 A 
ATOM     16  C   UNL     1      -7.345  11.415  20.691  0.00  0.00    +0.000 A 
ATOM     17  C   UNL     1      -7.187  10.724  19.492  0.00  0.00    +0.000 A 
ATOM     18  C   UNL     1      -6.093  10.997  18.673  0.00  0.00    +0.000 A 
ATOM     19  C   UNL     1      -5.137  11.930  19.075  0.00  0.00    +0.000 A 
ENDBRANCH  13  14
ENDBRANCH  12  13
ENDBRANCH   4   7
ENDBRANCH   3   4
ENDBRANCH   2   3
ENDBRANCH   1   2
BRANCH   1  20
ATOM     20  C   UNL     1       2.036   9.004  18.172  0.00  0.00    +0.000 C 
BRANCH  20  21
ATOM     21  C   UNL     1       2.875   8.172  17.216  0.00  0.00    +0.000 C 
BRANCH  21  22
ATOM     22  O   UNL     1       4.063   7.726  17.856  0.00  0.00    +0.000 OA
BRANCH  22  23
ATOM     23  C   UNL     1       4.438   6.429  17.496  0.00  0.00    +0.000 A 
ATOM     24  C   UNL     1       4.273   5.410  18.375  0.00  0.00    +0.000 A 
ATOM     25  C   UNL     1       3.592   5.679  19.701  0.00  0.00    +0.000 C 
ATOM     26  N   UNL     1       4.671   4.082  18.081  0.00  0.00    +0.000 N 
ATOM     27  C   UNL     1       5.149   3.800  16.805  0.00  0.00    +0.000 A 
ATOM     28  C   UNL     1       5.321   4.697  15.836  0.00  0.00    +0.000 A 
ATOM     29  C   UNL     1       5.023   6.108  16.134  0.00  0.00    +0.000 A 
ATOM     30  O   UNL     1       5.230   6.943  15.255  0.00  0.00    +0.000 OA
BRANCH  26  31
ATOM     31  C   UNL     1       4.649   2.989  19.086  0.00  0.00    +0.000 C 
BRANCH  31  32
ATOM     32  C   UNL     1       3.288   2.755  19.723  0.00  0.00    +0.000 A 
ATOM     33  C   UNL     1       2.098   2.641  18.987  0.00  0.00    +0.000 A 
ATOM     34  C   UNL     1       0.862   2.565  19.634  0.00  0.00    +0.000 A 
ATOM     35  C   UNL     1       0.799   2.564  21.025  0.00  0.00    +0.000 A 
ATOM     36  C   UNL     1       1.974   2.596  21.771  0.00  0.00    +0.000 A 
ATOM     37  C   UNL     1       3.209   2.683  21.126  0.00  0.00    +0.000 A 
ENDBRANCH  31  32
ENDBRANCH  26  31
ENDBRANCH  22  23
ENDBRANCH  21  22
ENDBRANCH  20  21
ENDBRANCH   1  20
TORSDOF 12
ENDMDL
MODEL 9
REMARK VINA RESULT:      -7.6      4.111     11.022
REMARK  Name = 
REMARK  14 active torsions:
REMARK  status: ('A' for Active; 'I' for Inactive)
REMARK    1  A    between atoms: C_1  and  C_2
REMARK    2  A    between atoms: C_3  and  O_4
REMARK    3  A    between atoms: O_4  and  C_5
REMARK    4  A    between atoms: C_5  and  C_6
REMARK    5  A    between atoms: C_6  and  C_7
REMARK    6  A    between atoms: C_7  and  C_8
REMARK    7  A    between atoms: C_8  and  C_9
REMARK    8  A    between atoms: C_9  and  O_10
REMARK    9  A    between atoms: O_10  and  C_11
REMARK   10  A    between atoms: C_12  and  C_13
REMARK   11  A    between atoms: N_14  and  C_15
REMARK   12  A    between atoms: C_15  and  C_16
REMARK   13  A    between atoms: N_30  and  C_31
REMARK   14  A    between atoms: C_31  and  C_32
REMARK                            x       y       z     vdW  Elec       q    Type
REMARK                         _______ _______ _______ _____ _____    ______ ____
ROOT
ATOM      1  C   UNL     1       7.833   9.672  17.845  0.00  0.00    +0.000 C 
ENDROOT
BRANCH   1   2
ATOM      2  C   UNL     1       8.355   8.246  17.599  0.00  0.00    +0.000 C 
BRANCH   2   3
ATOM      3  C   UNL     1       7.414   7.180  18.145  0.00  0.00    +0.000 C 
BRANCH   3   4
ATOM      4  O   UNL     1       6.268   7.177  17.307  0.00  0.00    +0.000 OA
BRANCH   4   7
ATOM      5  C   UNL     1       3.906   6.394  18.508  0.00  0.00    +0.000 C 
ATOM      6  C   UNL     1       4.572   5.545  17.442  0.00  0.00    +0.000 A 
ATOM      7  C   UNL     1       5.766   5.944  16.945  0.00  0.00    +0.000 A 
ATOM      8  C   UNL     1       6.460   5.079  15.932  0.00  0.00    +0.000 A 
ATOM      9  O   UNL     1       7.534   5.373  15.413  0.00  0.00    +0.000 OA
ATOM     10  C   UNL     1       5.794   3.812  15.563  0.00  0.00    +0.000 A 
ATOM     11  C   UNL     1       4.606   3.546  16.103  0.00  0.00    +0.000 A 
ATOM     12  N   UNL     1       3.938   4.360  17.019  0.00  0.00    +0.000 N 
BRANCH  12  13
ATOM     13  C   UNL     1       2.557   4.002  17.424  0.00  0.00    +0.000 C 
BRANCH  13  14
ATOM     14  C   UNL     1       2.431   3.513  18.854  0.00  0.00    +0.000 A 
ATOM     15  C   UNL     1       1.288   3.717  19.640  0.00  0.00    +0.000 A 
ATOM     16  C   UNL     1       1.270   3.345  20.986  0.00  0.00    +0.000 A 
ATOM     17  C   UNL     1       2.386   2.737  21.557  0.00  0.00    +0.000 A 
ATOM     18  C   UNL     1       3.506   2.469  20.775  0.00  0.00    +0.000 A 
ATOM     19  C   UNL     1       3.526   2.847  19.432  0.00  0.00    +0.000 A 
ENDBRANCH  13  14
ENDBRANCH  12  13
ENDBRANCH   4   7
ENDBRANCH   3   4
ENDBRANCH   2   3
ENDBRANCH   1   2
BRANCH   1  20
ATOM     20  C   UNL     1       8.914  10.631  18.344  0.00  0.00    +0.000 C 
BRANCH  20  21
ATOM     21  C   UNL     1       8.769  11.997  17.694  0.00  0.00    +0.000 C 
BRANCH  21  22
ATOM     22  O   UNL     1       9.626  12.940  18.324  0.00  0.00    +0.000 OA
BRANCH  22  23
ATOM     23  C   UNL     1       8.975  13.749  19.259  0.00  0.00    +0.000 A 
ATOM     24  C   UNL     1       9.329  13.692  20.566  0.00  0.00    +0.000 A 
ATOM     25  C   UNL     1      10.496  12.819  20.978  0.00  0.00    +0.000 C 
ATOM     26  N   UNL     1       8.679  14.460  21.564  0.00  0.00    +0.000 N 
ATOM     27  C   UNL     1       7.715  15.381  21.168  0.00  0.00    +0.000 A 
ATOM     28  C   UNL     1       7.304  15.570  19.915  0.00  0.00    +0.000 A 
ATOM     29  C   UNL     1       7.876  14.716  18.861  0.00  0.00    +0.000 A 
ATOM     30  O   UNL     1       7.459  14.854  17.712  0.00  0.00    +0.000 OA
BRANCH  26  31
ATOM     31  C   UNL     1       8.942  14.290  23.015  0.00  0.00    +0.000 C 
BRANCH  31  32
ATOM     32  C   UNL     1       7.814  13.613  23.778  0.00  0.00    +0.000 A 
ATOM     33  C   UNL     1       7.266  14.124  24.966  0.00  0.00    +0.000 A 
ATOM     34  C   UNL     1       6.330  13.388  25.695  0.00  0.00    +0.000 A 
ATOM     35  C   UNL     1       5.898  12.148  25.231  0.00  0.00    +0.000 A 
ATOM     36  C   UNL     1       6.371  11.661  24.016  0.00  0.00    +0.000 A 
ATOM     37  C   UNL     1       7.315  12.391  23.291  0.00  0.00    +0.000 A 
ENDBRANCH  31  32
ENDBRANCH  26  31
ENDBRANCH  22  23
ENDBRANCH  21  22
ENDBRANCH  20  21
ENDBRANCH   1  20
TORSDOF 12
ENDMDL
