MODEL 1
REMARK VINA RESULT:      -7.9      0.000      0.000
REMARK  Name = 
REMARK  9 active torsions:
REMARK  status: ('A' for Active; 'I' for Inactive)
REMARK    1  A    between atoms: C_1  and  C_2
REMARK    2  A    between atoms: C_2  and  S_4
REMARK    3  A    between atoms: S_4  and  C_5
REMARK    4  A    between atoms: C_5  and  C_6
REMARK    5  A    between atoms: C_5  and  C_17
REMARK    6  A    between atoms: C_6  and  C_7
REMARK    7  A    between atoms: C_13  and  C_14
REMARK    8  A    between atoms: C_14  and  O_16
REMARK    9  A    between atoms: C_17  and  C_19
REMARK                            x       y       z     vdW  Elec       q    Type
REMARK                         _______ _______ _______ _____ _____    ______ ____
ROOT
ATOM      1  C   UNL     1       6.051   4.374  17.236  0.00  0.00    +0.000 C 
ENDROOT
BRANCH   1   2
ATOM      2  C   UNL     1       5.823   5.284  16.017  0.00  0.00    +0.000 C 
ATOM      3  O   UNL     1       5.148   6.314  16.102  0.00  0.00    +0.000 OA
BRANCH   2   4
ATOM      4  C   UNL     1       6.315   4.886  14.657  0.00  0.00    +0.000 A 
ATOM      5  C   UNL     1       7.443   5.450  14.047  0.00  0.00    +0.000 A 
ATOM      6  C   UNL     1       7.815   5.050  12.756  0.00  0.00    +0.000 A 
ATOM      7  C   UNL     1       7.073   4.085  12.085  0.00  0.00    +0.000 A 
ATOM      8  F   UNL     1       7.426   3.723  10.845  0.00  0.00    +0.000 F 
ATOM      9  C   UNL     1       5.971   3.492  12.683  0.00  0.00    +0.000 A 
ATOM     10  C   UNL     1       5.594   3.891  13.968  0.00  0.00    +0.000 A 
ENDBRANCH   2   4
ENDBRANCH   1   2
BRANCH   1  11
ATOM     11  S   UNL     1       7.817   4.468  17.756  0.00  0.00    +0.000 S 
BRANCH  11  13
ATOM     12  C   UNL     1       7.878   7.166  18.291  0.00  0.00    +0.000 C 
ATOM     13  C   UNL     1       7.676   5.802  18.894  0.00  0.00    +0.000 C 
ATOM     14  O   UNL     1       7.472   5.608  20.083  0.00  0.00    +0.000 OA
ENDBRANCH  11  13
ENDBRANCH   1  11
BRANCH   1  15
ATOM     15  C   UNL     1       5.167   4.952  18.331  0.00  0.00    +0.000 C 
BRANCH  15  16
ATOM     16  C   UNL     1       4.472   3.993  19.271  0.00  0.00    +0.000 C 
ATOM     17  O   UNL     1       4.843   2.829  19.459  0.00  0.00    +0.000 OA
ATOM     18  N   UNL     1       3.233   4.429  19.703  0.00  0.00    +0.000 N 
ATOM     19  C   UNL     1       2.786   5.811  19.720  0.00  0.00    +0.000 C 
ATOM     20  C   UNL     1       1.596   5.818  20.654  0.00  0.00    +0.000 C 
ATOM     21  C   UNL     1       0.983   4.436  20.477  0.00  0.00    +0.000 C 
ATOM     22  C   UNL     1       2.151   3.514  20.080  0.00  0.00    +0.000 C 
BRANCH  22  23
ATOM     23  C   UNL     1       1.772   2.641  18.861  0.00  0.00    +0.000 C 
ATOM     24  O   UNL     1       1.154   3.029  17.879  0.00  0.00    +0.000 OA
BRANCH  23  25
ATOM     25  O   UNL     1       2.221   1.362  18.947  0.00  0.00    +0.000 OA
ATOM     26  H   UNL     1       2.771   1.093  18.169  0.00  0.00    +0.000 HD
ENDBRANCH  23  25
ENDBRANCH  22  23
ENDBRANCH  15  16
ENDBRANCH   1  15
TORSDOF 8
ENDMDL
MODEL 2
REMARK VINA RESULT:      -7.7      3.784      7.376
REMARK  Name = 
REMARK  9 active torsions:
REMARK  status: ('A' for Active; 'I' for Inactive)
REMARK    1  A    between atoms: C_1  and  C_2
REMARK    2  A    between atoms: C_2  and  S_4
REMARK    3  A    between atoms: S_4  and  C_5
REMARK    4  A    between atoms: C_5  and  C_6
REMARK    5  A    between atoms: C_5  and  C_17
REMARK    6  A    between atoms: C_6  and  C_7
REMARK    7  A    between atoms: C_13  and  C_14
REMARK    8  A    between atoms: C_14  and  O_16
REMARK    9  A    between atoms: C_17  and  C_19
REMARK                            x       y       z     vdW  Elec       q    Type
REMARK                         _______ _______ _______ _____ _____    ______ ____
ROOT
ATOM      1  C   UNL     1       3.043   5.127  19.166  0.00  0.00    +0.000 C 
ENDROOT
BRANCH   1   2
ATOM      2  C   UNL     1       2.936   6.527  18.536  0.00  0.00    +0.000 C 
ATOM      3  O   UNL     1       3.567   6.823  17.517  0.00  0.00    +0.000 OA
BRANCH   2   4
ATOM      4  C   UNL     1       2.151   7.615  19.208  0.00  0.00    +0.000 A 
ATOM      5  C   UNL     1       1.801   7.590  20.564  0.00  0.00    +0.000 A 
ATOM      6  C   UNL     1       1.032   8.629  21.108  0.00  0.00    +0.000 A 
ATOM      7  C   UNL     1       0.628   9.690  20.305  0.00  0.00    +0.000 A 
ATOM      8  F   UNL     1      -0.122  10.667  20.830  0.00  0.00    +0.000 F 
ATOM      9  C   UNL     1       0.990   9.748  18.968  0.00  0.00    +0.000 A 
ATOM     10  C   UNL     1       1.752   8.713  18.421  0.00  0.00    +0.000 A 
ENDBRANCH   2   4
ENDBRANCH   1   2
BRANCH   1  11
ATOM     11  S   UNL     1       1.355   4.469  19.501  0.00  0.00    +0.000 S 
BRANCH  11  13
ATOM     12  C   UNL     1       2.310   2.936  21.575  0.00  0.00    +0.000 C 
ATOM     13  C   UNL     1       1.817   2.902  20.154  0.00  0.00    +0.000 C 
ATOM     14  O   UNL     1       1.772   1.889  19.474  0.00  0.00    +0.000 OA
ENDBRANCH  11  13
ENDBRANCH   1  11
BRANCH   1  15
ATOM     15  C   UNL     1       3.723   4.270  18.108  0.00  0.00    +0.000 C 
BRANCH  15  16
ATOM     16  C   UNL     1       5.231   4.167  18.132  0.00  0.00    +0.000 C 
ATOM     17  O   UNL     1       5.902   4.168  19.170  0.00  0.00    +0.000 OA
ATOM     18  N   UNL     1       5.825   4.341  16.895  0.00  0.00    +0.000 N 
ATOM     19  C   UNL     1       5.171   4.152  15.613  0.00  0.00    +0.000 C 
ATOM     20  C   UNL     1       6.303   4.026  14.618  0.00  0.00    +0.000 C 
ATOM     21  C   UNL     1       7.404   4.898  15.205  0.00  0.00    +0.000 C 
ATOM     22  C   UNL     1       7.180   4.878  16.729  0.00  0.00    +0.000 C 
BRANCH  22  23
ATOM     23  C   UNL     1       7.238   6.309  17.312  0.00  0.00    +0.000 C 
ATOM     24  O   UNL     1       6.767   7.306  16.785  0.00  0.00    +0.000 OA
BRANCH  23  25
ATOM     25  O   UNL     1       7.851   6.379  18.521  0.00  0.00    +0.000 OA
ATOM     26  H   UNL     1       8.837   6.434  18.451  0.00  0.00    +0.000 HD
ENDBRANCH  23  25
ENDBRANCH  22  23
ENDBRANCH  15  16
ENDBRANCH   1  15
TORSDOF 8
ENDMDL
MODEL 3
REMARK VINA RESULT:      -7.7      0.986      1.435
REMARK  Name = 
REMARK  9 active torsions:
REMARK  status: ('A' for Active; 'I' for Inactive)
REMARK    1  A    between atoms: C_1  and  C_2
REMARK    2  A    between atoms: C_2  and  S_4
REMARK    3  A    between atoms: S_4  and  C_5
REMARK    4  A    between atoms: C_5  and  C_6
REMARK    5  A    between atoms: C_5  and  C_17
REMARK    6  A    between atoms: C_6  and  C_7
REMARK    7  A    between atoms: C_13  and  C_14
REMARK    8  A    between atoms: C_14  and  O_16
REMARK    9  A    between atoms: C_17  and  C_19
REMARK                            x       y       z     vdW  Elec       q    Type
REMARK                         _______ _______ _______ _____ _____    ______ ____
ROOT
ATOM      1  C   UNL     1       5.560   5.024  16.838  0.00  0.00    +0.000 C 
ENDROOT
BRANCH   1   2
ATOM      2  C   UNL     1       5.540   5.662  15.438  0.00  0.00    +0.000 C 
ATOM      3  O   UNL     1       5.072   6.790  15.253  0.00  0.00    +0.000 OA
BRANCH   2   4
ATOM      4  C   UNL     1       5.981   4.886  14.232  0.00  0.00    +0.000 A 
ATOM      5  C   UNL     1       5.200   3.896  13.622  0.00  0.00    +0.000 A 
ATOM      6  C   UNL     1       5.702   3.189  12.520  0.00  0.00    +0.000 A 
ATOM      7  C   UNL     1       6.967   3.478  12.024  0.00  0.00    +0.000 A 
ATOM      8  F   UNL     1       7.444   2.784  10.983  0.00  0.00    +0.000 F 
ATOM      9  C   UNL     1       7.744   4.476  12.594  0.00  0.00    +0.000 A 
ATOM     10  C   UNL     1       7.250   5.180  13.695  0.00  0.00    +0.000 A 
ENDBRANCH   2   4
ENDBRANCH   1   2
BRANCH   1  11
ATOM     11  S   UNL     1       6.006   6.299  18.092  0.00  0.00    +0.000 S 
BRANCH  11  13
ATOM     12  C   UNL     1       8.074   4.486  17.997  0.00  0.00    +0.000 C 
ATOM     13  C   UNL     1       7.309   5.426  18.890  0.00  0.00    +0.000 C 
ATOM     14  O   UNL     1       7.527   5.557  20.084  0.00  0.00    +0.000 OA
ENDBRANCH  11  13
ENDBRANCH   1  11
BRANCH   1  15
ATOM     15  C   UNL     1       4.133   4.554  17.076  0.00  0.00    +0.000 C 
BRANCH  15  16
ATOM     16  C   UNL     1       3.856   3.696  18.290  0.00  0.00    +0.000 C 
ATOM     17  O   UNL     1       4.286   2.546  18.430  0.00  0.00    +0.000 OA
ATOM     18  N   UNL     1       2.862   4.194  19.114  0.00  0.00    +0.000 N 
ATOM     19  C   UNL     1       2.433   5.580  19.172  0.00  0.00    +0.000 C 
ATOM     20  C   UNL     1       1.680   5.695  20.479  0.00  0.00    +0.000 C 
ATOM     21  C   UNL     1       1.066   4.315  20.670  0.00  0.00    +0.000 C 
ATOM     22  C   UNL     1       2.014   3.338  19.949  0.00  0.00    +0.000 C 
BRANCH  22  23
ATOM     23  C   UNL     1       1.219   2.368  19.044  0.00  0.00    +0.000 C 
ATOM     24  O   UNL     1       0.156   2.624  18.496  0.00  0.00    +0.000 OA
BRANCH  23  25
ATOM     25  O   UNL     1       1.826   1.166  18.869  0.00  0.00    +0.000 OA
ATOM     26  H   UNL     1       1.929   0.922  17.915  0.00  0.00    +0.000 HD
ENDBRANCH  23  25
ENDBRANCH  22  23
ENDBRANCH  15  16
ENDBRANCH   1  15
TORSDOF 8
ENDMDL
MODEL 4
REMARK VINA RESULT:      -7.6      3.871      7.295
REMARK  Name = 
REMARK  9 active torsions:
REMARK  status: ('A' for Active; 'I' for Inactive)
REMARK    1  A    between atoms: C_1  and  C_2
REMARK    2  A    between atoms: C_2  and  S_4
REMARK    3  A    between atoms: S_4  and  C_5
REMARK    4  A    between atoms: C_5  and  C_6
REMARK    5  A    between atoms: C_5  and  C_17
REMARK    6  A    between atoms: C_6  and  C_7
REMARK    7  A    between atoms: C_13  and  C_14
REMARK    8  A    between atoms: C_14  and  O_16
REMARK    9  A    between atoms: C_17  and  C_19
REMARK                            x       y       z     vdW  Elec       q    Type
REMARK                         _______ _______ _______ _____ _____    ______ ____
ROOT
ATOM      1  C   UNL     1       3.122   5.447  19.489  0.00  0.00    +0.000 C 
ENDROOT
BRANCH   1   2
ATOM      2  C   UNL     1       3.001   6.724  18.638  0.00  0.00    +0.000 C 
ATOM      3  O   UNL     1       3.697   6.892  17.631  0.00  0.00    +0.000 OA
BRANCH   2   4
ATOM      4  C   UNL     1       2.120   7.858  19.071  0.00  0.00    +0.000 A 
ATOM      5  C   UNL     1       1.730   8.069  20.400  0.00  0.00    +0.000 A 
ATOM      6  C   UNL     1       0.872   9.131  20.717  0.00  0.00    +0.000 A 
ATOM      7  C   UNL     1       0.419   9.983  19.717  0.00  0.00    +0.000 A 
ATOM      8  F   UNL     1      -0.416  10.983  20.028  0.00  0.00    +0.000 F 
ATOM      9  C   UNL     1       0.817   9.810  18.400  0.00  0.00    +0.000 A 
ATOM     10  C   UNL     1       1.669   8.749  18.079  0.00  0.00    +0.000 A 
ENDBRANCH   2   4
ENDBRANCH   1   2
BRANCH   1  11
ATOM     11  S   UNL     1       1.447   4.918  20.047  0.00  0.00    +0.000 S 
BRANCH  11  13
ATOM     12  C   UNL     1       1.646   2.175  20.091  0.00  0.00    +0.000 C 
ATOM     13  C   UNL     1       1.910   3.434  20.871  0.00  0.00    +0.000 C 
ATOM     14  O   UNL     1       2.369   3.449  22.003  0.00  0.00    +0.000 OA
ENDBRANCH  11  13
ENDBRANCH   1  11
BRANCH   1  15
ATOM     15  C   UNL     1       3.699   4.400  18.549  0.00  0.00    +0.000 C 
BRANCH  15  16
ATOM     16  C   UNL     1       5.202   4.239  18.495  0.00  0.00    +0.000 C 
ATOM     17  O   UNL     1       5.928   4.239  19.495  0.00  0.00    +0.000 OA
ATOM     18  N   UNL     1       5.733   4.360  17.224  0.00  0.00    +0.000 N 
ATOM     19  C   UNL     1       5.003   4.165  15.984  0.00  0.00    +0.000 C 
ATOM     20  C   UNL     1       6.074   3.971  14.933  0.00  0.00    +0.000 C 
ATOM     21  C   UNL     1       7.237   4.814  15.436  0.00  0.00    +0.000 C 
ATOM     22  C   UNL     1       7.096   4.839  16.970  0.00  0.00    +0.000 C 
BRANCH  22  23
ATOM     23  C   UNL     1       7.239   6.281  17.512  0.00  0.00    +0.000 C 
ATOM     24  O   UNL     1       7.952   6.616  18.447  0.00  0.00    +0.000 OA
BRANCH  23  25
ATOM     25  O   UNL     1       6.507   7.195  16.826  0.00  0.00    +0.000 OA
ATOM     26  H   UNL     1       5.711   6.801  16.388  0.00  0.00    +0.000 HD
ENDBRANCH  23  25
ENDBRANCH  22  23
ENDBRANCH  15  16
ENDBRANCH   1  15
TORSDOF 8
ENDMDL
MODEL 5
REMARK VINA RESULT:      -7.5      1.622      2.201
REMARK  Name = 
REMARK  9 active torsions:
REMARK  status: ('A' for Active; 'I' for Inactive)
REMARK    1  A    between atoms: C_1  and  C_2
REMARK    2  A    between atoms: C_2  and  S_4
REMARK    3  A    between atoms: S_4  and  C_5
REMARK    4  A    between atoms: C_5  and  C_6
REMARK    5  A    between atoms: C_5  and  C_17
REMARK    6  A    between atoms: C_6  and  C_7
REMARK    7  A    between atoms: C_13  and  C_14
REMARK    8  A    between atoms: C_14  and  O_16
REMARK    9  A    between atoms: C_17  and  C_19
REMARK                            x       y       z     vdW  Elec       q    Type
REMARK                         _______ _______ _______ _____ _____    ______ ____
ROOT
ATOM      1  C   UNL     1       5.646   5.406  16.845  0.00  0.00    +0.000 C 
ENDROOT
BRANCH   1   2
ATOM      2  C   UNL     1       5.500   5.888  15.391  0.00  0.00    +0.000 C 
ATOM      3  O   UNL     1       4.922   6.945  15.121  0.00  0.00    +0.000 OA
BRANCH   2   4
ATOM      4  C   UNL     1       5.952   5.030  14.247  0.00  0.00    +0.000 A 
ATOM      5  C   UNL     1       5.167   4.013  13.687  0.00  0.00    +0.000 A 
ATOM      6  C   UNL     1       5.678   3.229  12.643  0.00  0.00    +0.000 A 
ATOM      7  C   UNL     1       6.956   3.468  12.153  0.00  0.00    +0.000 A 
ATOM      8  F   UNL     1       7.442   2.702  11.169  0.00  0.00    +0.000 F 
ATOM      9  C   UNL     1       7.737   4.490  12.673  0.00  0.00    +0.000 A 
ATOM     10  C   UNL     1       7.234   5.270  13.717  0.00  0.00    +0.000 A 
ENDBRANCH   2   4
ENDBRANCH   1   2
BRANCH   1  11
ATOM     11  S   UNL     1       6.894   6.443  17.718  0.00  0.00    +0.000 S 
BRANCH  11  13
ATOM     12  C   UNL     1       8.260   5.350  19.841  0.00  0.00    +0.000 C 
ATOM     13  C   UNL     1       7.868   5.147  18.402  0.00  0.00    +0.000 C 
ATOM     14  O   UNL     1       8.221   4.191  17.730  0.00  0.00    +0.000 OA
ENDBRANCH  11  13
ENDBRANCH   1  11
BRANCH   1  15
ATOM     15  C   UNL     1       4.277   5.623  17.471  0.00  0.00    +0.000 C 
BRANCH  15  16
ATOM     16  C   UNL     1       4.014   5.034  18.839  0.00  0.00    +0.000 C 
ATOM     17  O   UNL     1       4.767   5.187  19.807  0.00  0.00    +0.000 OA
ATOM     18  N   UNL     1       3.006   4.088  18.858  0.00  0.00    +0.000 N 
ATOM     19  C   UNL     1       1.947   3.965  17.873  0.00  0.00    +0.000 C 
ATOM     20  C   UNL     1       0.892   3.116  18.546  0.00  0.00    +0.000 C 
ATOM     21  C   UNL     1       1.689   2.200  19.464  0.00  0.00    +0.000 C 
ATOM     22  C   UNL     1       2.963   2.987  19.827  0.00  0.00    +0.000 C 
BRANCH  22  23
ATOM     23  C   UNL     1       4.222   2.105  19.656  0.00  0.00    +0.000 C 
ATOM     24  O   UNL     1       5.117   1.984  20.480  0.00  0.00    +0.000 OA
BRANCH  23  25
ATOM     25  O   UNL     1       4.251   1.421  18.484  0.00  0.00    +0.000 OA
ATOM     26  H   UNL     1       3.356   1.325  18.071  0.00  0.00    +0.000 HD
ENDBRANCH  23  25
ENDBRANCH  22  23
ENDBRANCH  15  16
ENDBRANCH   1  15
TORSDOF 8
ENDMDL
MODEL 6
REMARK VINA RESULT:      -7.5      3.760      7.307
REMARK  Name = 
REMARK  9 active torsions:
REMARK  status: ('A' for Active; 'I' for Inactive)
REMARK    1  A    between atoms: C_1  and  C_2
REMARK    2  A    between atoms: C_2  and  S_4
REMARK    3  A    between atoms: S_4  and  C_5
REMARK    4  A    between atoms: C_5  and  C_6
REMARK    5  A    between atoms: C_5  and  C_17
REMARK    6  A    between atoms: C_6  and  C_7
REMARK    7  A    between atoms: C_13  and  C_14
REMARK    8  A    between atoms: C_14  and  O_16
REMARK    9  A    between atoms: C_17  and  C_19
REMARK                            x       y       z     vdW  Elec       q    Type
REMARK                         _______ _______ _______ _____ _____    ______ ____
ROOT
ATOM      1  C   UNL     1       3.249   5.379  19.614  0.00  0.00    +0.000 C 
ENDROOT
BRANCH   1   2
ATOM      2  C   UNL     1       2.958   6.518  18.622  0.00  0.00    +0.000 C 
ATOM      3  O   UNL     1       3.441   6.520  17.486  0.00  0.00    +0.000 OA
BRANCH   2   4
ATOM      4  C   UNL     1       2.174   7.725  19.045  0.00  0.00    +0.000 A 
ATOM      5  C   UNL     1       1.744   7.946  20.360  0.00  0.00    +0.000 A 
ATOM      6  C   UNL     1       0.982   9.082  20.666  0.00  0.00    +0.000 A 
ATOM      7  C   UNL     1       0.662   9.996  19.669  0.00  0.00    +0.000 A 
ATOM      8  F   UNL     1      -0.083  11.067  19.968  0.00  0.00    +0.000 F 
ATOM      9  C   UNL     1       1.103   9.811  18.367  0.00  0.00    +0.000 A 
ATOM     10  C   UNL     1       1.859   8.678  18.056  0.00  0.00    +0.000 A 
ENDBRANCH   2   4
ENDBRANCH   1   2
BRANCH   1  11
ATOM     11  S   UNL     1       1.660   4.667  20.220  0.00  0.00    +0.000 S 
BRANCH  11  13
ATOM     12  C   UNL     1       1.444   2.121  19.203  0.00  0.00    +0.000 C 
ATOM     13  C   UNL     1       1.335   3.585  18.872  0.00  0.00    +0.000 C 
ATOM     14  O   UNL     1       1.085   4.013  17.755  0.00  0.00    +0.000 OA
ENDBRANCH  11  13
ENDBRANCH   1  11
BRANCH   1  15
ATOM     15  C   UNL     1       3.998   4.332  18.803  0.00  0.00    +0.000 C 
BRANCH  15  16
ATOM     16  C   UNL     1       5.503   4.446  18.705  0.00  0.00    +0.000 C 
ATOM     17  O   UNL     1       6.231   4.742  19.658  0.00  0.00    +0.000 OA
ATOM     18  N   UNL     1       5.981   4.457  17.407  0.00  0.00    +0.000 N 
ATOM     19  C   UNL     1       5.281   3.934  16.247  0.00  0.00    +0.000 C 
ATOM     20  C   UNL     1       6.352   3.776  15.191  0.00  0.00    +0.000 C 
ATOM     21  C   UNL     1       7.342   4.890  15.504  0.00  0.00    +0.000 C 
ATOM     22  C   UNL     1       7.223   5.135  17.020  0.00  0.00    +0.000 C 
BRANCH  22  23
ATOM     23  C   UNL     1       7.098   6.646  17.324  0.00  0.00    +0.000 C 
ATOM     24  O   UNL     1       7.822   7.276  18.082  0.00  0.00    +0.000 OA
BRANCH  23  25
ATOM     25  O   UNL     1       6.100   7.258  16.638  0.00  0.00    +0.000 OA
ATOM     26  H   UNL     1       5.982   8.207  16.892  0.00  0.00    +0.000 HD
ENDBRANCH  23  25
ENDBRANCH  22  23
ENDBRANCH  15  16
ENDBRANCH   1  15
TORSDOF 8
ENDMDL
MODEL 7
REMARK VINA RESULT:      -7.4      3.636      6.718
REMARK  Name = 
REMARK  9 active torsions:
REMARK  status: ('A' for Active; 'I' for Inactive)
REMARK    1  A    between atoms: C_1  and  C_2
REMARK    2  A    between atoms: C_2  and  S_4
REMARK    3  A    between atoms: S_4  and  C_5
REMARK    4  A    between atoms: C_5  and  C_6
REMARK    5  A    between atoms: C_5  and  C_17
REMARK    6  A    between atoms: C_6  and  C_7
REMARK    7  A    between atoms: C_13  and  C_14
REMARK    8  A    between atoms: C_14  and  O_16
REMARK    9  A    between atoms: C_17  and  C_19
REMARK                            x       y       z     vdW  Elec       q    Type
REMARK                         _______ _______ _______ _____ _____    ______ ____
ROOT
ATOM      1  C   UNL     1       3.559   3.970  17.963  0.00  0.00    +0.000 C 
ENDROOT
BRANCH   1   2
ATOM      2  C   UNL     1       2.187   4.661  18.057  0.00  0.00    +0.000 C 
ATOM      3  O   UNL     1       1.232   4.290  17.368  0.00  0.00    +0.000 OA
BRANCH   2   4
ATOM      4  C   UNL     1       2.000   5.886  18.903  0.00  0.00    +0.000 A 
ATOM      5  C   UNL     1       1.745   5.843  20.280  0.00  0.00    +0.000 A 
ATOM      6  C   UNL     1       1.543   7.034  20.992  0.00  0.00    +0.000 A 
ATOM      7  C   UNL     1       1.609   8.258  20.336  0.00  0.00    +0.000 A 
ATOM      8  F   UNL     1       1.396   9.388  21.022  0.00  0.00    +0.000 F 
ATOM      9  C   UNL     1       1.890   8.323  18.980  0.00  0.00    +0.000 A 
ATOM     10  C   UNL     1       2.087   7.139  18.265  0.00  0.00    +0.000 A 
ENDBRANCH   2   4
ENDBRANCH   1   2
BRANCH   1  11
ATOM     11  S   UNL     1       3.381   2.186  18.389  0.00  0.00    +0.000 S 
BRANCH  11  13
ATOM     12  C   UNL     1       2.860   2.573  21.062  0.00  0.00    +0.000 C 
ATOM     13  C   UNL     1       3.937   2.266  20.057  0.00  0.00    +0.000 C 
ATOM     14  O   UNL     1       5.115   2.123  20.344  0.00  0.00    +0.000 OA
ENDBRANCH  11  13
ENDBRANCH   1  11
BRANCH   1  15
ATOM     15  C   UNL     1       3.969   4.106  16.504  0.00  0.00    +0.000 C 
BRANCH  15  16
ATOM     16  C   UNL     1       5.428   4.352  16.192  0.00  0.00    +0.000 C 
ATOM     17  O   UNL     1       6.195   3.480  15.770  0.00  0.00    +0.000 OA
ATOM     18  N   UNL     1       5.907   5.560  16.667  0.00  0.00    +0.000 N 
ATOM     19  C   UNL     1       5.095   6.720  16.988  0.00  0.00    +0.000 C 
ATOM     20  C   UNL     1       6.073   7.873  17.031  0.00  0.00    +0.000 C 
ATOM     21  C   UNL     1       7.370   7.236  17.510  0.00  0.00    +0.000 C 
ATOM     22  C   UNL     1       7.310   5.772  17.036  0.00  0.00    +0.000 C 
BRANCH  22  23
ATOM     23  C   UNL     1       7.688   4.807  18.184  0.00  0.00    +0.000 C 
ATOM     24  O   UNL     1       7.240   4.853  19.321  0.00  0.00    +0.000 OA
BRANCH  23  25
ATOM     25  O   UNL     1       8.570   3.843  17.817  0.00  0.00    +0.000 OA
ATOM     26  H   UNL     1       8.300   2.939  18.117  0.00  0.00    +0.000 HD
ENDBRANCH  23  25
ENDBRANCH  22  23
ENDBRANCH  15  16
ENDBRANCH   1  15
TORSDOF 8
ENDMDL
MODEL 8
REMARK VINA RESULT:      -7.4      1.511      2.082
REMARK  Name = 
REMARK  9 active torsions:
REMARK  status: ('A' for Active; 'I' for Inactive)
REMARK    1  A    between atoms: C_1  and  C_2
REMARK    2  A    between atoms: C_2  and  S_4
REMARK    3  A    between atoms: S_4  and  C_5
REMARK    4  A    between atoms: C_5  and  C_6
REMARK    5  A    between atoms: C_5  and  C_17
REMARK    6  A    between atoms: C_6  and  C_7
REMARK    7  A    between atoms: C_13  and  C_14
REMARK    8  A    between atoms: C_14  and  O_16
REMARK    9  A    between atoms: C_17  and  C_19
REMARK                            x       y       z     vdW  Elec       q    Type
REMARK                         _______ _______ _______ _____ _____    ______ ____
ROOT
ATOM      1  C   UNL     1       6.609   5.876  18.180  0.00  0.00    +0.000 C 
ENDROOT
BRANCH   1   2
ATOM      2  C   UNL     1       7.264   4.770  17.334  0.00  0.00    +0.000 C 
ATOM      3  O   UNL     1       8.258   4.158  17.736  0.00  0.00    +0.000 OA
BRANCH   2   4
ATOM      4  C   UNL     1       6.786   4.482  15.941  0.00  0.00    +0.000 A 
ATOM      5  C   UNL     1       5.640   3.727  15.658  0.00  0.00    +0.000 A 
ATOM      6  C   UNL     1       5.283   3.471  14.326  0.00  0.00    +0.000 A 
ATOM      7  C   UNL     1       6.056   3.977  13.288  0.00  0.00    +0.000 A 
ATOM      8  F   UNL     1       5.717   3.710  12.020  0.00  0.00    +0.000 F 
ATOM      9  C   UNL     1       7.176   4.752  13.547  0.00  0.00    +0.000 A 
ATOM     10  C   UNL     1       7.539   5.006  14.872  0.00  0.00    +0.000 A 
ENDBRANCH   2   4
ENDBRANCH   1   2
BRANCH   1  11
ATOM     11  S   UNL     1       6.746   7.489  17.300  0.00  0.00    +0.000 S 
BRANCH  11  13
ATOM     12  C   UNL     1       8.382   9.613  17.916  0.00  0.00    +0.000 C 
ATOM     13  C   UNL     1       8.078   8.172  18.225  0.00  0.00    +0.000 C 
ATOM     14  O   UNL     1       8.716   7.497  19.018  0.00  0.00    +0.000 OA
ENDBRANCH  11  13
ENDBRANCH   1  11
BRANCH   1  15
ATOM     15  C   UNL     1       5.145   5.476  18.286  0.00  0.00    +0.000 C 
BRANCH  15  16
ATOM     16  C   UNL     1       4.778   4.349  19.224  0.00  0.00    +0.000 C 
ATOM     17  O   UNL     1       5.502   3.370  19.436  0.00  0.00    +0.000 OA
ATOM     18  N   UNL     1       3.453   4.360  19.623  0.00  0.00    +0.000 N 
ATOM     19  C   UNL     1       2.580   5.520  19.611  0.00  0.00    +0.000 C 
ATOM     20  C   UNL     1       1.430   5.144  20.518  0.00  0.00    +0.000 C 
ATOM     21  C   UNL     1       1.305   3.637  20.347  0.00  0.00    +0.000 C 
ATOM     22  C   UNL     1       2.719   3.144  19.988  0.00  0.00    +0.000 C 
BRANCH  22  23
ATOM     23  C   UNL     1       2.676   2.188  18.773  0.00  0.00    +0.000 C 
ATOM     24  O   UNL     1       3.356   1.180  18.643  0.00  0.00    +0.000 OA
BRANCH  23  25
ATOM     25  O   UNL     1       1.768   2.548  17.830  0.00  0.00    +0.000 OA
ATOM     26  H   UNL     1       1.090   3.184  18.170  0.00  0.00    +0.000 HD
ENDBRANCH  23  25
ENDBRANCH  22  23
ENDBRANCH  15  16
ENDBRANCH   1  15
TORSDOF 8
ENDMDL
MODEL 9
REMARK VINA RESULT:      -7.4      1.322      1.843
REMARK  Name = 
REMARK  9 active torsions:
REMARK  status: ('A' for Active; 'I' for Inactive)
REMARK    1  A    between atoms: C_1  and  C_2
REMARK    2  A    between atoms: C_2  and  S_4
REMARK    3  A    between atoms: S_4  and  C_5
REMARK    4  A    between atoms: C_5  and  C_6
REMARK    5  A    between atoms: C_5  and  C_17
REMARK    6  A    between atoms: C_6  and  C_7
REMARK    7  A    between atoms: C_13  and  C_14
REMARK    8  A    between atoms: C_14  and  O_16
REMARK    9  A    between atoms: C_17  and  C_19
REMARK                            x       y       z     vdW  Elec       q    Type
REMARK                         _______ _______ _______ _____ _____    ______ ____
ROOT
ATOM      1  C   UNL     1       5.768   5.382  17.546  0.00  0.00    +0.000 C 
ENDROOT
BRANCH   1   2
ATOM      2  C   UNL     1       4.967   4.804  16.367  0.00  0.00    +0.000 C 
ATOM      3  O   UNL     1       3.800   4.424  16.508  0.00  0.00    +0.000 OA
BRANCH   2   4
ATOM      4  C   UNL     1       5.616   4.574  15.034  0.00  0.00    +0.000 A 
ATOM      5  C   UNL     1       5.013   3.854  13.994  0.00  0.00    +0.000 A 
ATOM      6  C   UNL     1       5.704   3.650  12.792  0.00  0.00    +0.000 A 
ATOM      7  C   UNL     1       6.982   4.173  12.625  0.00  0.00    +0.000 A 
ATOM      8  F   UNL     1       7.640   3.956  11.479  0.00  0.00    +0.000 F 
ATOM      9  C   UNL     1       7.584   4.913  13.630  0.00  0.00    +0.000 A 
ATOM     10  C   UNL     1       6.901   5.115  14.833  0.00  0.00    +0.000 A 
ENDBRANCH   2   4
ENDBRANCH   1   2
BRANCH   1  11
ATOM     11  S   UNL     1       6.327   7.089  17.135  0.00  0.00    +0.000 S 
BRANCH  11  13
ATOM     12  C   UNL     1       8.042   5.868  18.906  0.00  0.00    +0.000 C 
ATOM     13  C   UNL     1       7.746   7.149  18.175  0.00  0.00    +0.000 C 
ATOM     14  O   UNL     1       8.396   8.175  18.308  0.00  0.00    +0.000 OA
ENDBRANCH  11  13
ENDBRANCH   1  11
BRANCH   1  15
ATOM     15  C   UNL     1       4.783   5.434  18.704  0.00  0.00    +0.000 C 
BRANCH  15  16
ATOM     16  C   UNL     1       4.531   4.165  19.487  0.00  0.00    +0.000 C 
ATOM     17  O   UNL     1       5.397   3.311  19.704  0.00  0.00    +0.000 OA
ATOM     18  N   UNL     1       3.192   3.902  19.713  0.00  0.00    +0.000 N 
ATOM     19  C   UNL     1       2.125   4.886  19.690  0.00  0.00    +0.000 C 
ATOM     20  C   UNL     1       0.972   4.220  20.407  0.00  0.00    +0.000 C 
ATOM     21  C   UNL     1       1.149   2.741  20.092  0.00  0.00    +0.000 C 
ATOM     22  C   UNL     1       2.662   2.544  19.875  0.00  0.00    +0.000 C 
BRANCH  22  23
ATOM     23  C   UNL     1       2.931   1.732  18.587  0.00  0.00    +0.000 C 
ATOM     24  O   UNL     1       3.776   0.856  18.468  0.00  0.00    +0.000 OA
BRANCH  23  25
ATOM     25  O   UNL     1       2.106   2.055  17.558  0.00  0.00    +0.000 OA
ATOM     26  H   UNL     1       2.587   2.442  16.784  0.00  0.00    +0.000 HD
ENDBRANCH  23  25
ENDBRANCH  22  23
ENDBRANCH  15  16
ENDBRANCH   1  15
TORSDOF 8
ENDMDL
