MODEL 1
REMARK VINA RESULT:      -9.3      0.000      0.000
REMARK  Name = 
REMARK  4 active torsions:
REMARK  status: ('A' for Active; 'I' for Inactive)
REMARK    1  A    between atoms: C_5  and  C_6
REMARK    2  A    between atoms: C_9  and  C_10
REMARK    3  A    between atoms: C_13  and  C_14
REMARK    4  A    between atoms: C_14  and  C_15
REMARK                            x       y       z     vdW  Elec       q    Type
REMARK                         _______ _______ _______ _____ _____    ______ ____
ROOT
ATOM      1  C   UNL     1       3.066   6.430  18.624  0.00  0.00    +0.000 A 
ATOM      2  N   UNL     1       3.726   5.888  19.657  0.00  0.00    +0.000 NA
ATOM      3  O   UNL     1       4.380   4.794  19.083  0.00  0.00    +0.000 OA
ATOM      4  C   UNL     1       4.053   4.799  17.757  0.00  0.00    +0.000 A 
ATOM      5  N   UNL     1       3.223   5.764  17.430  0.00  0.00    +0.000 NA
ENDROOT
BRANCH   1   9
ATOM      6  C   UNL     1       1.091   9.392  19.474  0.00  0.00    +0.000 A 
ATOM      7  C   UNL     1       1.506   9.743  18.204  0.00  0.00    +0.000 A 
ATOM      8  C   UNL     1       2.276   8.665  17.715  0.00  0.00    +0.000 A 
ATOM      9  C   UNL     1       2.297   7.706  18.706  0.00  0.00    +0.000 A 
ATOM     10  O   UNL     1       1.553   8.137  19.771  0.00  0.00    +0.000 OA
BRANCH   6  15
ATOM     11 CL   UNL     1      -2.296  12.125  23.597  0.00  0.00    +0.000 Cl
ATOM     12  C   UNL     1      -1.295  11.356  22.429  0.00  0.00    +0.000 A 
ATOM     13  C   UNL     1      -1.216  11.874  21.140  0.00  0.00    +0.000 A 
ATOM     14  C   UNL     1      -0.423  11.233  20.184  0.00  0.00    +0.000 A 
ATOM     15  C   UNL     1       0.297  10.069  20.499  0.00  0.00    +0.000 A 
ATOM     16  C   UNL     1       0.220   9.576  21.813  0.00  0.00    +0.000 A 
ATOM     17  C   UNL     1      -0.574  10.216  22.773  0.00  0.00    +0.000 A 
ENDBRANCH   6  15
ENDBRANCH   1   9
BRANCH   4  18
ATOM     18  C   UNL     1       4.763   3.833  16.880  0.00  0.00    +0.000 C 
BRANCH  18  19
ATOM     19  C   UNL     1       5.831   4.467  16.051  0.00  0.00    +0.000 A 
ATOM     20  C   UNL     1       6.764   5.393  16.481  0.00  0.00    +0.000 A 
ATOM     21  N   UNL     1       7.570   5.716  15.423  0.00  0.00    +0.000 N 
ATOM     22  C   UNL     1       7.178   5.030  14.299  0.00  0.00    +0.000 A 
ATOM     23  C   UNL     1       7.712   5.042  13.004  0.00  0.00    +0.000 A 
ATOM     24  C   UNL     1       7.096   4.237  12.041  0.00  0.00    +0.000 A 
ATOM     25  C   UNL     1       5.986   3.459  12.361  0.00  0.00    +0.000 A 
ATOM     26  C   UNL     1       5.468   3.455  13.661  0.00  0.00    +0.000 A 
ATOM     27  C   UNL     1       6.077   4.248  14.655  0.00  0.00    +0.000 A 
ATOM     28  H   UNL     1       8.345   6.363  15.456  0.00  0.00    +0.000 HD
ENDBRANCH  18  19
ENDBRANCH   4  18
TORSDOF 4
ENDMDL
MODEL 2
REMARK VINA RESULT:      -8.8      3.646      4.789
REMARK  Name = 
REMARK  4 active torsions:
REMARK  status: ('A' for Active; 'I' for Inactive)
REMARK    1  A    between atoms: C_5  and  C_6
REMARK    2  A    between atoms: C_9  and  C_10
REMARK    3  A    between atoms: C_13  and  C_14
REMARK    4  A    between atoms: C_14  and  C_15
REMARK                            x       y       z     vdW  Elec       q    Type
REMARK                         _______ _______ _______ _____ _____    ______ ____
ROOT
ATOM      1  C   UNL     1       1.559   8.940  18.648  0.00  0.00    +0.000 A 
ATOM      2  N   UNL     1       1.821   8.220  19.748  0.00  0.00    +0.000 NA
ATOM      3  O   UNL     1       2.800   7.319  19.317  0.00  0.00    +0.000 OA
ATOM      4  C   UNL     1       3.032   7.600  18.001  0.00  0.00    +0.000 A 
ATOM      5  N   UNL     1       2.273   8.565  17.533  0.00  0.00    +0.000 NA
ENDROOT
BRANCH   1   9
ATOM      6  C   UNL     1      -1.167  11.378  18.521  0.00  0.00    +0.000 A 
ATOM      7  C   UNL     1      -0.125  12.210  18.880  0.00  0.00    +0.000 A 
ATOM      8  C   UNL     1       1.034  11.406  18.946  0.00  0.00    +0.000 A 
ATOM      9  C   UNL     1       0.648  10.121  18.626  0.00  0.00    +0.000 A 
ATOM     10  O   UNL     1      -0.692  10.107  18.341  0.00  0.00    +0.000 OA
BRANCH   6  15
ATOM     11 CL   UNL     1      -7.057  12.081  17.650  0.00  0.00    +0.000 Cl
ATOM     12  C   UNL     1      -5.363  11.915  17.894  0.00  0.00    +0.000 A 
ATOM     13  C   UNL     1      -4.564  11.411  16.872  0.00  0.00    +0.000 A 
ATOM     14  C   UNL     1      -3.191  11.251  17.081  0.00  0.00    +0.000 A 
ATOM     15  C   UNL     1      -2.600  11.589  18.310  0.00  0.00    +0.000 A 
ATOM     16  C   UNL     1      -3.422  12.116  19.320  0.00  0.00    +0.000 A 
ATOM     17  C   UNL     1      -4.797  12.276  19.113  0.00  0.00    +0.000 A 
ENDBRANCH   6  15
ENDBRANCH   1   9
BRANCH   4  18
ATOM     18  C   UNL     1       4.163   6.893  17.346  0.00  0.00    +0.000 C 
BRANCH  18  19
ATOM     19  C   UNL     1       4.453   5.559  17.953  0.00  0.00    +0.000 A 
ATOM     20  C   UNL     1       5.666   5.135  18.462  0.00  0.00    +0.000 A 
ATOM     21  N   UNL     1       5.513   3.860  18.934  0.00  0.00    +0.000 N 
ATOM     22  C   UNL     1       4.223   3.429  18.734  0.00  0.00    +0.000 A 
ATOM     23  C   UNL     1       3.619   2.209  19.062  0.00  0.00    +0.000 A 
ATOM     24  C   UNL     1       2.272   2.041  18.727  0.00  0.00    +0.000 A 
ATOM     25  C   UNL     1       1.562   3.053  18.084  0.00  0.00    +0.000 A 
ATOM     26  C   UNL     1       2.180   4.268  17.769  0.00  0.00    +0.000 A 
ATOM     27  C   UNL     1       3.535   4.468  18.105  0.00  0.00    +0.000 A 
ATOM     28  H   UNL     1       6.238   3.307  19.370  0.00  0.00    +0.000 HD
ENDBRANCH  18  19
ENDBRANCH   4  18
TORSDOF 4
ENDMDL
MODEL 3
REMARK VINA RESULT:      -8.7      4.162      9.173
REMARK  Name = 
REMARK  4 active torsions:
REMARK  status: ('A' for Active; 'I' for Inactive)
REMARK    1  A    between atoms: C_5  and  C_6
REMARK    2  A    between atoms: C_9  and  C_10
REMARK    3  A    between atoms: C_13  and  C_14
REMARK    4  A    between atoms: C_14  and  C_15
REMARK                            x       y       z     vdW  Elec       q    Type
REMARK                         _______ _______ _______ _____ _____    ______ ____
ROOT
ATOM      1  C   UNL     1       1.310   8.585  20.843  0.00  0.00    +0.000 A 
ATOM      2  N   UNL     1       1.342   8.866  22.154  0.00  0.00    +0.000 NA
ATOM      3  O   UNL     1       0.606  10.050  22.248  0.00  0.00    +0.000 OA
ATOM      4  C   UNL     1       0.197  10.355  20.981  0.00  0.00    +0.000 A 
ATOM      5  N   UNL     1       0.630   9.505  20.077  0.00  0.00    +0.000 NA
ENDROOT
BRANCH   1   9
ATOM      6  C   UNL     1       2.991   5.944  18.949  0.00  0.00    +0.000 A 
ATOM      7  C   UNL     1       2.486   5.197  19.995  0.00  0.00    +0.000 A 
ATOM      8  C   UNL     1       1.769   6.089  20.823  0.00  0.00    +0.000 A 
ATOM      9  C   UNL     1       1.868   7.338  20.246  0.00  0.00    +0.000 A 
ATOM     10  O   UNL     1       2.593   7.247  19.088  0.00  0.00    +0.000 OA
BRANCH   6  15
ATOM     11 CL   UNL     1       6.526   4.671  14.278  0.00  0.00    +0.000 Cl
ATOM     12  C   UNL     1       5.483   5.033  15.596  0.00  0.00    +0.000 A 
ATOM     13  C   UNL     1       5.320   6.352  16.005  0.00  0.00    +0.000 A 
ATOM     14  C   UNL     1       4.493   6.643  17.094  0.00  0.00    +0.000 A 
ATOM     15  C   UNL     1       3.822   5.623  17.788  0.00  0.00    +0.000 A 
ATOM     16  C   UNL     1       3.984   4.300  17.345  0.00  0.00    +0.000 A 
ATOM     17  C   UNL     1       4.813   4.006  16.255  0.00  0.00    +0.000 A 
ENDBRANCH   6  15
ENDBRANCH   1   9
BRANCH   4  18
ATOM     18  C   UNL     1      -0.755  11.485  20.828  0.00  0.00    +0.000 C 
BRANCH  18  19
ATOM     19  C   UNL     1      -1.041  11.824  19.402  0.00  0.00    +0.000 A 
ATOM     20  C   UNL     1      -0.549  12.910  18.702  0.00  0.00    +0.000 A 
ATOM     21  N   UNL     1      -1.037  12.855  17.425  0.00  0.00    +0.000 N 
ATOM     22  C   UNL     1      -1.853  11.760  17.272  0.00  0.00    +0.000 A 
ATOM     23  C   UNL     1      -2.553  11.308  16.147  0.00  0.00    +0.000 A 
ATOM     24  C   UNL     1      -3.324  10.150  16.285  0.00  0.00    +0.000 A 
ATOM     25  C   UNL     1      -3.395   9.477  17.503  0.00  0.00    +0.000 A 
ATOM     26  C   UNL     1      -2.683   9.940  18.616  0.00  0.00    +0.000 A 
ATOM     27  C   UNL     1      -1.890  11.099  18.502  0.00  0.00    +0.000 A 
ATOM     28  H   UNL     1      -0.831  13.520  16.692  0.00  0.00    +0.000 HD
ENDBRANCH  18  19
ENDBRANCH   4  18
TORSDOF 4
ENDMDL
MODEL 4
REMARK VINA RESULT:      -8.6      4.316      9.522
REMARK  Name = 
REMARK  4 active torsions:
REMARK  status: ('A' for Active; 'I' for Inactive)
REMARK    1  A    between atoms: C_5  and  C_6
REMARK    2  A    between atoms: C_9  and  C_10
REMARK    3  A    between atoms: C_13  and  C_14
REMARK    4  A    between atoms: C_14  and  C_15
REMARK                            x       y       z     vdW  Elec       q    Type
REMARK                         _______ _______ _______ _____ _____    ______ ____
ROOT
ATOM      1  C   UNL     1       1.063   8.740  20.509  0.00  0.00    +0.000 A 
ATOM      2  N   UNL     1       0.296   8.814  21.606  0.00  0.00    +0.000 NA
ATOM      3  O   UNL     1      -0.189  10.124  21.574  0.00  0.00    +0.000 OA
ATOM      4  C   UNL     1       0.330  10.702  20.450  0.00  0.00    +0.000 A 
ATOM      5  N   UNL     1       1.131   9.905  19.779  0.00  0.00    +0.000 NA
ENDROOT
BRANCH   1   9
ATOM      6  C   UNL     1       2.953   6.064  18.879  0.00  0.00    +0.000 A 
ATOM      7  C   UNL     1       2.511   5.390  20.000  0.00  0.00    +0.000 A 
ATOM      8  C   UNL     1       1.724   6.300  20.739  0.00  0.00    +0.000 A 
ATOM      9  C   UNL     1       1.721   7.488  20.037  0.00  0.00    +0.000 A 
ATOM     10  O   UNL     1       2.450   7.338  18.888  0.00  0.00    +0.000 OA
BRANCH   6  15
ATOM     11 CL   UNL     1       6.580   4.605  14.333  0.00  0.00    +0.000 Cl
ATOM     12  C   UNL     1       5.511   5.017  15.616  0.00  0.00    +0.000 A 
ATOM     13  C   UNL     1       5.280   6.355  15.919  0.00  0.00    +0.000 A 
ATOM     14  C   UNL     1       4.432   6.689  16.979  0.00  0.00    +0.000 A 
ATOM     15  C   UNL     1       3.807   5.695  17.750  0.00  0.00    +0.000 A 
ATOM     16  C   UNL     1       4.038   4.350  17.412  0.00  0.00    +0.000 A 
ATOM     17  C   UNL     1       4.888   4.013  16.352  0.00  0.00    +0.000 A 
ENDBRANCH   6  15
ENDBRANCH   1   9
BRANCH   4  18
ATOM     18  C   UNL     1      -0.173  12.051  20.087  0.00  0.00    +0.000 C 
BRANCH  18  19
ATOM     19  C   UNL     1      -1.591  12.043  19.617  0.00  0.00    +0.000 A 
ATOM     20  C   UNL     1      -2.656  12.694  20.212  0.00  0.00    +0.000 A 
ATOM     21  N   UNL     1      -3.780  12.445  19.471  0.00  0.00    +0.000 N 
ATOM     22  C   UNL     1      -3.478  11.632  18.406  0.00  0.00    +0.000 A 
ATOM     23  C   UNL     1      -4.304  11.131  17.391  0.00  0.00    +0.000 A 
ATOM     24  C   UNL     1      -3.719  10.306  16.426  0.00  0.00    +0.000 A 
ATOM     25  C   UNL     1      -2.364   9.990  16.480  0.00  0.00    +0.000 A 
ATOM     26  C   UNL     1      -1.552  10.503  17.498  0.00  0.00    +0.000 A 
ATOM     27  C   UNL     1      -2.113  11.346  18.478  0.00  0.00    +0.000 A 
ATOM     28  H   UNL     1      -4.703  12.806  19.671  0.00  0.00    +0.000 HD
ENDBRANCH  18  19
ENDBRANCH   4  18
TORSDOF 4
ENDMDL
MODEL 5
REMARK VINA RESULT:      -8.5      3.565      4.810
REMARK  Name = 
REMARK  4 active torsions:
REMARK  status: ('A' for Active; 'I' for Inactive)
REMARK    1  A    between atoms: C_5  and  C_6
REMARK    2  A    between atoms: C_9  and  C_10
REMARK    3  A    between atoms: C_13  and  C_14
REMARK    4  A    between atoms: C_14  and  C_15
REMARK                            x       y       z     vdW  Elec       q    Type
REMARK                         _______ _______ _______ _____ _____    ______ ____
ROOT
ATOM      1  C   UNL     1       1.415   9.124  19.477  0.00  0.00    +0.000 A 
ATOM      2  N   UNL     1       1.371   9.825  18.335  0.00  0.00    +0.000 NA
ATOM      3  O   UNL     1       2.155   9.066  17.461  0.00  0.00    +0.000 OA
ATOM      4  C   UNL     1       2.582   7.978  18.169  0.00  0.00    +0.000 A 
ATOM      5  N   UNL     1       2.182   7.983  19.421  0.00  0.00    +0.000 NA
ENDROOT
BRANCH   1   9
ATOM      6  C   UNL     1      -0.581  10.583  22.176  0.00  0.00    +0.000 A 
ATOM      7  C   UNL     1      -0.563   9.263  22.584  0.00  0.00    +0.000 A 
ATOM      8  C   UNL     1       0.211   8.555  21.638  0.00  0.00    +0.000 A 
ATOM      9  C   UNL     1       0.629   9.472  20.696  0.00  0.00    +0.000 A 
ATOM     10  O   UNL     1       0.168  10.716  21.037  0.00  0.00    +0.000 OA
BRANCH   6  15
ATOM     11 CL   UNL     1      -3.184  15.598  24.180  0.00  0.00    +0.000 Cl
ATOM     12  C   UNL     1      -2.428  14.151  23.639  0.00  0.00    +0.000 A 
ATOM     13  C   UNL     1      -1.162  14.206  23.067  0.00  0.00    +0.000 A 
ATOM     14  C   UNL     1      -0.559  13.033  22.603  0.00  0.00    +0.000 A 
ATOM     15  C   UNL     1      -1.213  11.793  22.702  0.00  0.00    +0.000 A 
ATOM     16  C   UNL     1      -2.482  11.758  23.303  0.00  0.00    +0.000 A 
ATOM     17  C   UNL     1      -3.088  12.932  23.768  0.00  0.00    +0.000 A 
ENDBRANCH   6  15
ENDBRANCH   1   9
BRANCH   4  18
ATOM     18  C   UNL     1       3.296   6.917  17.415  0.00  0.00    +0.000 C 
BRANCH  18  19
ATOM     19  C   UNL     1       3.633   5.726  18.252  0.00  0.00    +0.000 A 
ATOM     20  C   UNL     1       4.815   5.512  18.937  0.00  0.00    +0.000 A 
ATOM     21  N   UNL     1       4.723   4.313  19.590  0.00  0.00    +0.000 N 
ATOM     22  C   UNL     1       3.507   3.725  19.337  0.00  0.00    +0.000 A 
ATOM     23  C   UNL     1       2.980   2.511  19.796  0.00  0.00    +0.000 A 
ATOM     24  C   UNL     1       1.699   2.155  19.363  0.00  0.00    +0.000 A 
ATOM     25  C   UNL     1       0.979   2.979  18.501  0.00  0.00    +0.000 A 
ATOM     26  C   UNL     1       1.519   4.192  18.057  0.00  0.00    +0.000 A 
ATOM     27  C   UNL     1       2.804   4.580  18.486  0.00  0.00    +0.000 A 
ATOM     28  H   UNL     1       5.441   3.910  20.177  0.00  0.00    +0.000 HD
ENDBRANCH  18  19
ENDBRANCH   4  18
TORSDOF 4
ENDMDL
MODEL 6
REMARK VINA RESULT:      -8.5      4.958      7.768
REMARK  Name = 
REMARK  4 active torsions:
REMARK  status: ('A' for Active; 'I' for Inactive)
REMARK    1  A    between atoms: C_5  and  C_6
REMARK    2  A    between atoms: C_9  and  C_10
REMARK    3  A    between atoms: C_13  and  C_14
REMARK    4  A    between atoms: C_14  and  C_15
REMARK                            x       y       z     vdW  Elec       q    Type
REMARK                         _______ _______ _______ _____ _____    ______ ____
ROOT
ATOM      1  C   UNL     1       6.389   6.432  16.803  0.00  0.00    +0.000 A 
ATOM      2  N   UNL     1       5.659   6.813  15.746  0.00  0.00    +0.000 NA
ATOM      3  O   UNL     1       4.852   5.700  15.493  0.00  0.00    +0.000 OA
ATOM      4  C   UNL     1       5.175   4.765  16.435  0.00  0.00    +0.000 A 
ATOM      5  N   UNL     1       6.136   5.152  17.243  0.00  0.00    +0.000 NA
ENDROOT
BRANCH   1   9
ATOM      6  C   UNL     1       8.451   9.119  18.188  0.00  0.00    +0.000 A 
ATOM      7  C   UNL     1       8.754   8.108  19.079  0.00  0.00    +0.000 A 
ATOM      8  C   UNL     1       8.040   6.965  18.656  0.00  0.00    +0.000 A 
ATOM      9  C   UNL     1       7.334   7.329  17.528  0.00  0.00    +0.000 A 
ATOM     10  O   UNL     1       7.604   8.637  17.226  0.00  0.00    +0.000 OA
BRANCH   6  15
ATOM     11 CL   UNL     1      10.161  14.840  17.652  0.00  0.00    +0.000 Cl
ATOM     12  C   UNL     1       9.653  13.207  17.836  0.00  0.00    +0.000 A 
ATOM     13  C   UNL     1      10.540  12.261  18.338  0.00  0.00    +0.000 A 
ATOM     14  C   UNL     1      10.135  10.929  18.462  0.00  0.00    +0.000 A 
ATOM     15  C   UNL     1       8.843  10.525  18.086  0.00  0.00    +0.000 A 
ATOM     16  C   UNL     1       7.956  11.502  17.603  0.00  0.00    +0.000 A 
ATOM     17  C   UNL     1       8.360  12.836  17.477  0.00  0.00    +0.000 A 
ENDBRANCH   6  15
ENDBRANCH   1   9
BRANCH   4  18
ATOM     18  C   UNL     1       4.332   3.543  16.494  0.00  0.00    +0.000 C 
BRANCH  18  19
ATOM     19  C   UNL     1       3.646   3.367  17.809  0.00  0.00    +0.000 A 
ATOM     20  C   UNL     1       3.441   2.172  18.474  0.00  0.00    +0.000 A 
ATOM     21  N   UNL     1       2.788   2.439  19.646  0.00  0.00    +0.000 N 
ATOM     22  C   UNL     1       2.545   3.786  19.761  0.00  0.00    +0.000 A 
ATOM     23  C   UNL     1       1.917   4.505  20.786  0.00  0.00    +0.000 A 
ATOM     24  C   UNL     1       1.800   5.890  20.630  0.00  0.00    +0.000 A 
ATOM     25  C   UNL     1       2.286   6.526  19.490  0.00  0.00    +0.000 A 
ATOM     26  C   UNL     1       2.916   5.792  18.478  0.00  0.00    +0.000 A 
ATOM     27  C   UNL     1       3.057   4.396  18.615  0.00  0.00    +0.000 A 
ATOM     28  H   UNL     1       2.520   1.749  20.336  0.00  0.00    +0.000 HD
ENDBRANCH  18  19
ENDBRANCH   4  18
TORSDOF 4
ENDMDL
MODEL 7
REMARK VINA RESULT:      -8.4      3.070      4.291
REMARK  Name = 
REMARK  4 active torsions:
REMARK  status: ('A' for Active; 'I' for Inactive)
REMARK    1  A    between atoms: C_5  and  C_6
REMARK    2  A    between atoms: C_9  and  C_10
REMARK    3  A    between atoms: C_13  and  C_14
REMARK    4  A    between atoms: C_14  and  C_15
REMARK                            x       y       z     vdW  Elec       q    Type
REMARK                         _______ _______ _______ _____ _____    ______ ____
ROOT
ATOM      1  C   UNL     1       2.065   8.556  18.882  0.00  0.00    +0.000 A 
ATOM      2  N   UNL     1       2.014   9.153  17.683  0.00  0.00    +0.000 NA
ATOM      3  O   UNL     1       2.878   8.381  16.901  0.00  0.00    +0.000 OA
ATOM      4  C   UNL     1       3.352   7.389  17.711  0.00  0.00    +0.000 A 
ATOM      5  N   UNL     1       2.910   7.470  18.946  0.00  0.00    +0.000 NA
ENDROOT
BRANCH   1   9
ATOM      6  C   UNL     1      -0.210  10.033  21.338  0.00  0.00    +0.000 A 
ATOM      7  C   UNL     1       0.082   8.842  21.975  0.00  0.00    +0.000 A 
ATOM      8  C   UNL     1       0.992   8.150  21.147  0.00  0.00    +0.000 A 
ATOM      9  C   UNL     1       1.216   8.948  20.043  0.00  0.00    +0.000 A 
ATOM     10  O   UNL     1       0.503  10.110  20.171  0.00  0.00    +0.000 OA
BRANCH   6  15
ATOM     11 CL   UNL     1      -3.910  14.586  22.569  0.00  0.00    +0.000 Cl
ATOM     12  C   UNL     1      -2.821  13.299  22.229  0.00  0.00    +0.000 A 
ATOM     13  C   UNL     1      -2.371  13.102  20.928  0.00  0.00    +0.000 A 
ATOM     14  C   UNL     1      -1.506  12.040  20.648  0.00  0.00    +0.000 A 
ATOM     15  C   UNL     1      -1.084  11.161  21.659  0.00  0.00    +0.000 A 
ATOM     16  C   UNL     1      -1.534  11.393  22.970  0.00  0.00    +0.000 A 
ATOM     17  C   UNL     1      -2.400  12.456  23.253  0.00  0.00    +0.000 A 
ENDBRANCH   6  15
ENDBRANCH   1   9
BRANCH   4  18
ATOM     18  C   UNL     1       4.163   6.321  17.072  0.00  0.00    +0.000 C 
BRANCH  18  19
ATOM     19  C   UNL     1       4.297   5.098  17.920  0.00  0.00    +0.000 A 
ATOM     20  C   UNL     1       5.453   4.642  18.526  0.00  0.00    +0.000 A 
ATOM     21  N   UNL     1       5.154   3.502  19.220  0.00  0.00    +0.000 N 
ATOM     22  C   UNL     1       3.824   3.189  19.073  0.00  0.00    +0.000 A 
ATOM     23  C   UNL     1       3.085   2.125  19.605  0.00  0.00    +0.000 A 
ATOM     24  C   UNL     1       1.728   2.050  19.275  0.00  0.00    +0.000 A 
ATOM     25  C   UNL     1       1.139   2.998  18.441  0.00  0.00    +0.000 A 
ATOM     26  C   UNL     1       1.893   4.058  17.923  0.00  0.00    +0.000 A 
ATOM     27  C   UNL     1       3.260   4.163  18.248  0.00  0.00    +0.000 A 
ATOM     28  H   UNL     1       5.811   2.961  19.767  0.00  0.00    +0.000 HD
ENDBRANCH  18  19
ENDBRANCH   4  18
TORSDOF 4
ENDMDL
MODEL 8
REMARK VINA RESULT:      -8.4      6.496      8.195
REMARK  Name = 
REMARK  4 active torsions:
REMARK  status: ('A' for Active; 'I' for Inactive)
REMARK    1  A    between atoms: C_5  and  C_6
REMARK    2  A    between atoms: C_9  and  C_10
REMARK    3  A    between atoms: C_13  and  C_14
REMARK    4  A    between atoms: C_14  and  C_15
REMARK                            x       y       z     vdW  Elec       q    Type
REMARK                         _______ _______ _______ _____ _____    ______ ____
ROOT
ATOM      1  C   UNL     1       8.227   8.790  18.146  0.00  0.00    +0.000 A 
ATOM      2  N   UNL     1       7.285   8.772  17.193  0.00  0.00    +0.000 NA
ATOM      3  O   UNL     1       6.915   7.426  17.131  0.00  0.00    +0.000 OA
ATOM      4  C   UNL     1       7.668   6.773  18.065  0.00  0.00    +0.000 A 
ATOM      5  N   UNL     1       8.513   7.560  18.693  0.00  0.00    +0.000 NA
ENDROOT
BRANCH   1   9
ATOM      6  C   UNL     1       9.523  12.136  18.866  0.00  0.00    +0.000 A 
ATOM      7  C   UNL     1       9.825  11.506  20.057  0.00  0.00    +0.000 A 
ATOM      8  C   UNL     1       9.402  10.165  19.928  0.00  0.00    +0.000 A 
ATOM      9  C   UNL     1       8.861  10.037  18.665  0.00  0.00    +0.000 A 
ATOM     10  O   UNL     1       8.958  11.233  18.006  0.00  0.00    +0.000 OA
BRANCH   6  15
ATOM     11 CL   UNL     1      10.165  17.804  17.020  0.00  0.00    +0.000 Cl
ATOM     12  C   UNL     1       9.979  16.167  17.515  0.00  0.00    +0.000 A 
ATOM     13  C   UNL     1       8.738  15.714  17.949  0.00  0.00    +0.000 A 
ATOM     14  C   UNL     1       8.594  14.391  18.376  0.00  0.00    +0.000 A 
ATOM     15  C   UNL     1       9.686  13.506  18.379  0.00  0.00    +0.000 A 
ATOM     16  C   UNL     1      10.925  13.980  17.916  0.00  0.00    +0.000 A 
ATOM     17  C   UNL     1      11.072  15.305  17.488  0.00  0.00    +0.000 A 
ENDBRANCH   6  15
ENDBRANCH   1   9
BRANCH   4  18
ATOM     18  C   UNL     1       7.342   5.347  18.323  0.00  0.00    +0.000 C 
BRANCH  18  19
ATOM     19  C   UNL     1       6.065   4.911  17.684  0.00  0.00    +0.000 A 
ATOM     20  C   UNL     1       5.920   4.390  16.412  0.00  0.00    +0.000 A 
ATOM     21  N   UNL     1       4.596   4.107  16.210  0.00  0.00    +0.000 N 
ATOM     22  C   UNL     1       3.862   4.445  17.322  0.00  0.00    +0.000 A 
ATOM     23  C   UNL     1       2.489   4.326  17.565  0.00  0.00    +0.000 A 
ATOM     24  C   UNL     1       2.008   4.765  18.803  0.00  0.00    +0.000 A 
ATOM     25  C   UNL     1       2.869   5.308  19.754  0.00  0.00    +0.000 A 
ATOM     26  C   UNL     1       4.241   5.414  19.496  0.00  0.00    +0.000 A 
ATOM     27  C   UNL     1       4.753   4.969  18.260  0.00  0.00    +0.000 A 
ATOM     28  H   UNL     1       4.206   3.706  15.369  0.00  0.00    +0.000 HD
ENDBRANCH  18  19
ENDBRANCH   4  18
TORSDOF 4
ENDMDL
MODEL 9
REMARK VINA RESULT:      -8.4      1.378      1.999
REMARK  Name = 
REMARK  4 active torsions:
REMARK  status: ('A' for Active; 'I' for Inactive)
REMARK    1  A    between atoms: C_5  and  C_6
REMARK    2  A    between atoms: C_9  and  C_10
REMARK    3  A    between atoms: C_13  and  C_14
REMARK    4  A    between atoms: C_14  and  C_15
REMARK                            x       y       z     vdW  Elec       q    Type
REMARK                         _______ _______ _______ _____ _____    ______ ____
ROOT
ATOM      1  C   UNL     1       2.354   6.494  19.777  0.00  0.00    +0.000 A 
ATOM      2  N   UNL     1       1.917   5.614  20.688  0.00  0.00    +0.000 NA
ATOM      3  O   UNL     1       2.801   4.540  20.550  0.00  0.00    +0.000 OA
ATOM      4  C   UNL     1       3.688   4.892  19.572  0.00  0.00    +0.000 A 
ATOM      5  N   UNL     1       3.438   6.068  19.043  0.00  0.00    +0.000 NA
ENDROOT
BRANCH   1   9
ATOM      6  C   UNL     1       0.893   9.839  20.046  0.00  0.00    +0.000 A 
ATOM      7  C   UNL     1       1.322   9.874  18.733  0.00  0.00    +0.000 A 
ATOM      8  C   UNL     1       1.900   8.616  18.459  0.00  0.00    +0.000 A 
ATOM      9  C   UNL     1       1.798   7.868  19.614  0.00  0.00    +0.000 A 
ATOM     10  O   UNL     1       1.160   8.605  20.576  0.00  0.00    +0.000 OA
BRANCH   6  15
ATOM     11 CL   UNL     1      -1.660  13.798  23.754  0.00  0.00    +0.000 Cl
ATOM     12  C   UNL     1      -0.955  12.665  22.668  0.00  0.00    +0.000 A 
ATOM     13  C   UNL     1      -1.048  11.303  22.935  0.00  0.00    +0.000 A 
ATOM     14  C   UNL     1      -0.451  10.385  22.065  0.00  0.00    +0.000 A 
ATOM     15  C   UNL     1       0.244  10.813  20.922  0.00  0.00    +0.000 A 
ATOM     16  C   UNL     1       0.305  12.193  20.661  0.00  0.00    +0.000 A 
ATOM     17  C   UNL     1      -0.290  13.114  21.530  0.00  0.00    +0.000 A 
ENDBRANCH   6  15
ENDBRANCH   1   9
BRANCH   4  18
ATOM     18  C   UNL     1       4.846   3.988  19.350  0.00  0.00    +0.000 C 
BRANCH  18  19
ATOM     19  C   UNL     1       5.869   4.561  18.425  0.00  0.00    +0.000 A 
ATOM     20  C   UNL     1       6.979   5.302  18.785  0.00  0.00    +0.000 A 
ATOM     21  N   UNL     1       7.667   5.628  17.648  0.00  0.00    +0.000 N 
ATOM     22  C   UNL     1       7.024   5.126  16.542  0.00  0.00    +0.000 A 
ATOM     23  C   UNL     1       7.367   5.208  15.187  0.00  0.00    +0.000 A 
ATOM     24  C   UNL     1       6.510   4.602  14.263  0.00  0.00    +0.000 A 
ATOM     25  C   UNL     1       5.353   3.947  14.682  0.00  0.00    +0.000 A 
ATOM     26  C   UNL     1       5.029   3.871  16.041  0.00  0.00    +0.000 A 
ATOM     27  C   UNL     1       5.881   4.464  16.994  0.00  0.00    +0.000 A 
ATOM     28  H   UNL     1       8.526   6.160  17.618  0.00  0.00    +0.000 HD
ENDBRANCH  18  19
ENDBRANCH   4  18
TORSDOF 4
ENDMDL
