MODEL 1
REMARK VINA RESULT:      -7.1      0.000      0.000
REMARK  Name = 
REMARK  2 active torsions:
REMARK  status: ('A' for Active; 'I' for Inactive)
REMARK    1  A    between atoms: C_1  and  C_2
REMARK    2  A    between atoms: C_14  and  C_16
REMARK                            x       y       z     vdW  Elec       q    Type
REMARK                         _______ _______ _______ _____ _____    ______ ____
ROOT
ATOM      1  C   UNL     1       6.369  12.823  22.571  0.00  0.00    +0.000 C 
ATOM      2  C   UNL     1       7.857  12.501  22.720  0.00  0.00    +0.000 C 
ATOM      3  C   UNL     1       8.156  11.558  23.906  0.00  0.00    +0.000 C 
ATOM      4  N   UNL     1       8.038  12.232  25.200  0.00  0.00    +0.000 N 
ATOM      5  C   UNL     1       7.003  11.855  26.033  0.00  0.00    +0.000 A 
ATOM      6  C   UNL     1       7.133  11.970  27.416  0.00  0.00    +0.000 A 
ATOM      7  C   UNL     1       6.123  11.500  28.254  0.00  0.00    +0.000 A 
ATOM      8  C   UNL     1       4.986  10.940  27.695  0.00  0.00    +0.000 A 
ATOM      9  C   UNL     1       4.919  10.867  26.317  0.00  0.00    +0.000 A 
ATOM     10  N   UNL     1       5.898  11.296  25.491  0.00  0.00    +0.000 NA
ATOM     11  C   UNL     1       8.694  13.540  25.337  0.00  0.00    +0.000 C 
ATOM     12  C   UNL     1       8.487  14.442  24.097  0.00  0.00    +0.000 C 
ATOM     13  N   UNL     1       8.685  13.723  22.825  0.00  0.00    +0.000 N 
ATOM     14  C   UNL     1       9.667  14.169  21.947  0.00  0.00    +0.000 C 
ATOM     15  O   UNL     1      10.341  15.169  22.232  0.00  0.00    +0.000 OA
ENDROOT
BRANCH  14  16
ATOM     16  C   UNL     1       9.953  13.432  20.611  0.00  0.00    +0.000 C 
ATOM     17  C   UNL     1       8.777  13.588  19.613  0.00  0.00    +0.000 C 
ATOM     18  C   UNL     1       9.053  12.824  18.314  0.00  0.00    +0.000 C 
ATOM     19  C   UNL     1      10.273  13.448  17.626  0.00  0.00    +0.000 C 
ATOM     20  C   UNL     1      11.494  13.349  18.554  0.00  0.00    +0.000 C 
ATOM     21  C   UNL     1      11.784  11.864  18.820  0.00  0.00    +0.000 C 
ATOM     22  C   UNL     1      10.585  11.222  19.529  0.00  0.00    +0.000 C 
ATOM     23  C   UNL     1       9.331  11.348  18.648  0.00  0.00    +0.000 C 
ATOM     24  C   UNL     1      10.349  11.954  20.859  0.00  0.00    +0.000 C 
ATOM     25  C   UNL     1      11.192  14.068  19.890  0.00  0.00    +0.000 C 
ENDBRANCH  14  16
TORSDOF 1
ENDMDL
MODEL 2
REMARK VINA RESULT:      -7.0      4.646      5.649
REMARK  Name = 
REMARK  2 active torsions:
REMARK  status: ('A' for Active; 'I' for Inactive)
REMARK    1  A    between atoms: C_1  and  C_2
REMARK    2  A    between atoms: C_14  and  C_16
REMARK                            x       y       z     vdW  Elec       q    Type
REMARK                         _______ _______ _______ _____ _____    ______ ____
ROOT
ATOM      1  C   UNL     1       6.078  14.524  17.767  0.00  0.00    +0.000 C 
ATOM      2  C   UNL     1       6.996  14.699  18.978  0.00  0.00    +0.000 C 
ATOM      3  C   UNL     1       6.235  15.102  20.261  0.00  0.00    +0.000 C 
ATOM      4  N   UNL     1       5.791  16.496  20.232  0.00  0.00    +0.000 N 
ATOM      5  C   UNL     1       4.434  16.740  20.157  0.00  0.00    +0.000 A 
ATOM      6  C   UNL     1       3.896  17.908  20.696  0.00  0.00    +0.000 A 
ATOM      7  C   UNL     1       2.515  18.103  20.701  0.00  0.00    +0.000 A 
ATOM      8  C   UNL     1       1.693  17.135  20.147  0.00  0.00    +0.000 A 
ATOM      9  C   UNL     1       2.293  16.009  19.622  0.00  0.00    +0.000 A 
ATOM     10  N   UNL     1       3.628  15.792  19.629  0.00  0.00    +0.000 NA
ATOM     11  C   UNL     1       6.775  17.506  19.816  0.00  0.00    +0.000 C 
ATOM     12  C   UNL     1       7.614  17.052  18.598  0.00  0.00    +0.000 C 
ATOM     13  N   UNL     1       8.090  15.661  18.715  0.00  0.00    +0.000 N 
ATOM     14  C   UNL     1       9.458  15.415  18.693  0.00  0.00    +0.000 C 
ATOM     15  O   UNL     1      10.251  16.356  18.553  0.00  0.00    +0.000 OA
ENDROOT
BRANCH  14  16
ATOM     16  C   UNL     1      10.025  13.978  18.854  0.00  0.00    +0.000 C 
ATOM     17  C   UNL     1       9.558  13.051  17.702  0.00  0.00    +0.000 C 
ATOM     18  C   UNL     1      10.090  11.627  17.893  0.00  0.00    +0.000 C 
ATOM     19  C   UNL     1      11.621  11.659  17.812  0.00  0.00    +0.000 C 
ATOM     20  C   UNL     1      12.176  12.572  18.916  0.00  0.00    +0.000 C 
ATOM     21  C   UNL     1      11.767  11.989  20.278  0.00  0.00    +0.000 C 
ATOM     22  C   UNL     1      10.238  11.969  20.393  0.00  0.00    +0.000 C 
ATOM     23  C   UNL     1       9.644  11.103  19.269  0.00  0.00    +0.000 C 
ATOM     24  C   UNL     1       9.714  13.406  20.261  0.00  0.00    +0.000 C 
ATOM     25  C   UNL     1      11.590  13.994  18.760  0.00  0.00    +0.000 C 
ENDBRANCH  14  16
TORSDOF 1
ENDMDL
MODEL 3
REMARK VINA RESULT:      -7.0      0.094      1.520
REMARK  Name = 
REMARK  2 active torsions:
REMARK  status: ('A' for Active; 'I' for Inactive)
REMARK    1  A    between atoms: C_1  and  C_2
REMARK    2  A    between atoms: C_14  and  C_16
REMARK                            x       y       z     vdW  Elec       q    Type
REMARK                         _______ _______ _______ _____ _____    ______ ____
ROOT
ATOM      1  C   UNL     1       6.355  12.837  22.556  0.00  0.00    +0.000 C 
ATOM      2  C   UNL     1       7.843  12.517  22.707  0.00  0.00    +0.000 C 
ATOM      3  C   UNL     1       8.139  11.546  23.870  0.00  0.00    +0.000 C 
ATOM      4  N   UNL     1       8.010  12.186  25.180  0.00  0.00    +0.000 N 
ATOM      5  C   UNL     1       6.972  11.784  25.996  0.00  0.00    +0.000 A 
ATOM      6  C   UNL     1       7.093  11.863  27.383  0.00  0.00    +0.000 A 
ATOM      7  C   UNL     1       6.080  11.367  28.202  0.00  0.00    +0.000 A 
ATOM      8  C   UNL     1       4.949  10.816  27.621  0.00  0.00    +0.000 A 
ATOM      9  C   UNL     1       4.891  10.778  26.242  0.00  0.00    +0.000 A 
ATOM     10  N   UNL     1       5.873  11.233  25.433  0.00  0.00    +0.000 NA
ATOM     11  C   UNL     1       8.659  13.494  25.354  0.00  0.00    +0.000 C 
ATOM     12  C   UNL     1       8.455  14.426  24.136  0.00  0.00    +0.000 C 
ATOM     13  N   UNL     1       8.665  13.741  22.847  0.00  0.00    +0.000 N 
ATOM     14  C   UNL     1       9.649  14.214  21.987  0.00  0.00    +0.000 C 
ATOM     15  O   UNL     1      10.317  15.209  22.302  0.00  0.00    +0.000 OA
ENDROOT
BRANCH  14  16
ATOM     16  C   UNL     1       9.948  13.512  20.634  0.00  0.00    +0.000 C 
ATOM     17  C   UNL     1      11.239  14.069  19.979  0.00  0.00    +0.000 C 
ATOM     18  C   UNL     1      11.502  13.398  18.627  0.00  0.00    +0.000 C 
ATOM     19  C   UNL     1      11.759  11.905  18.860  0.00  0.00    +0.000 C 
ATOM     20  C   UNL     1      10.528  11.268  19.524  0.00  0.00    +0.000 C 
ATOM     21  C   UNL     1       9.331  11.419  18.572  0.00  0.00    +0.000 C 
ATOM     22  C   UNL     1       9.039  12.906  18.341  0.00  0.00    +0.000 C 
ATOM     23  C   UNL     1      10.272  13.589  17.723  0.00  0.00    +0.000 C 
ATOM     24  C   UNL     1       8.718  13.561  19.692  0.00  0.00    +0.000 C 
ATOM     25  C   UNL     1      10.226  11.986  20.859  0.00  0.00    +0.000 C 
ENDBRANCH  14  16
TORSDOF 1
ENDMDL
MODEL 4
REMARK VINA RESULT:      -7.0      0.069      1.501
REMARK  Name = 
REMARK  2 active torsions:
REMARK  status: ('A' for Active; 'I' for Inactive)
REMARK    1  A    between atoms: C_1  and  C_2
REMARK    2  A    between atoms: C_14  and  C_16
REMARK                            x       y       z     vdW  Elec       q    Type
REMARK                         _______ _______ _______ _____ _____    ______ ____
ROOT
ATOM      1  C   UNL     1       6.391  12.815  22.524  0.00  0.00    +0.000 C 
ATOM      2  C   UNL     1       7.878  12.496  22.689  0.00  0.00    +0.000 C 
ATOM      3  C   UNL     1       8.165  11.542  23.869  0.00  0.00    +0.000 C 
ATOM      4  N   UNL     1       8.029  12.203  25.168  0.00  0.00    +0.000 N 
ATOM      5  C   UNL     1       6.985  11.814  25.984  0.00  0.00    +0.000 A 
ATOM      6  C   UNL     1       7.097  11.915  27.370  0.00  0.00    +0.000 A 
ATOM      7  C   UNL     1       6.078  11.433  28.190  0.00  0.00    +0.000 A 
ATOM      8  C   UNL     1       4.950  10.874  27.610  0.00  0.00    +0.000 A 
ATOM      9  C   UNL     1       4.900  10.815  26.232  0.00  0.00    +0.000 A 
ATOM     10  N   UNL     1       5.889  11.257  25.422  0.00  0.00    +0.000 NA
ATOM     11  C   UNL     1       8.678  13.512  25.326  0.00  0.00    +0.000 C 
ATOM     12  C   UNL     1       8.483  14.425  24.093  0.00  0.00    +0.000 C 
ATOM     13  N   UNL     1       8.700  13.721  22.816  0.00  0.00    +0.000 N 
ATOM     14  C   UNL     1       9.691  14.179  21.955  0.00  0.00    +0.000 C 
ATOM     15  O   UNL     1      10.357  15.178  22.259  0.00  0.00    +0.000 OA
ENDROOT
BRANCH  14  16
ATOM     16  C   UNL     1       9.997  13.457  20.615  0.00  0.00    +0.000 C 
ATOM     17  C   UNL     1      10.200  11.934  20.825  0.00  0.00    +0.000 C 
ATOM     18  C   UNL     1      10.541  11.237  19.504  0.00  0.00    +0.000 C 
ATOM     19  C   UNL     1       9.347  11.375  18.553  0.00  0.00    +0.000 C 
ATOM     20  C   UNL     1       9.062  12.863  18.295  0.00  0.00    +0.000 C 
ATOM     21  C   UNL     1      10.298  13.485  17.628  0.00  0.00    +0.000 C 
ATOM     22  C   UNL     1      11.503  13.381  18.570  0.00  0.00    +0.000 C 
ATOM     23  C   UNL     1      11.785  11.903  18.891  0.00  0.00    +0.000 C 
ATOM     24  C   UNL     1      11.178  14.131  19.870  0.00  0.00    +0.000 C 
ATOM     25  C   UNL     1       8.778  13.578  19.637  0.00  0.00    +0.000 C 
ENDBRANCH  14  16
TORSDOF 1
ENDMDL
MODEL 5
REMARK VINA RESULT:      -6.8      4.635      5.761
REMARK  Name = 
REMARK  2 active torsions:
REMARK  status: ('A' for Active; 'I' for Inactive)
REMARK    1  A    between atoms: C_1  and  C_2
REMARK    2  A    between atoms: C_14  and  C_16
REMARK                            x       y       z     vdW  Elec       q    Type
REMARK                         _______ _______ _______ _____ _____    ______ ____
ROOT
ATOM      1  C   UNL     1       6.153  14.615  17.775  0.00  0.00    +0.000 C 
ATOM      2  C   UNL     1       7.054  14.748  19.004  0.00  0.00    +0.000 C 
ATOM      3  C   UNL     1       6.280  15.139  20.282  0.00  0.00    +0.000 C 
ATOM      4  N   UNL     1       5.863  16.542  20.275  0.00  0.00    +0.000 N 
ATOM      5  C   UNL     1       4.512  16.814  20.183  0.00  0.00    +0.000 A 
ATOM      6  C   UNL     1       3.988  17.980  20.738  0.00  0.00    +0.000 A 
ATOM      7  C   UNL     1       2.611  18.202  20.725  0.00  0.00    +0.000 A 
ATOM      8  C   UNL     1       1.780  17.262  20.138  0.00  0.00    +0.000 A 
ATOM      9  C   UNL     1       2.367  16.135  19.599  0.00  0.00    +0.000 A 
ATOM     10  N   UNL     1       3.697  15.893  19.624  0.00  0.00    +0.000 NA
ATOM     11  C   UNL     1       6.873  17.541  19.895  0.00  0.00    +0.000 C 
ATOM     12  C   UNL     1       7.722  17.095  18.682  0.00  0.00    +0.000 C 
ATOM     13  N   UNL     1       8.170  15.693  18.778  0.00  0.00    +0.000 N 
ATOM     14  C   UNL     1       9.534  15.421  18.772  0.00  0.00    +0.000 C 
ATOM     15  O   UNL     1      10.347  16.349  18.665  0.00  0.00    +0.000 OA
ENDROOT
BRANCH  14  16
ATOM     16  C   UNL     1      10.071  13.972  18.913  0.00  0.00    +0.000 C 
ATOM     17  C   UNL     1       9.597  13.317  20.237  0.00  0.00    +0.000 C 
ATOM     18  C   UNL     1      10.165  11.901  20.384  0.00  0.00    +0.000 C 
ATOM     19  C   UNL     1       9.604  11.026  19.257  0.00  0.00    +0.000 C 
ATOM     20  C   UNL     1      10.015  11.611  17.897  0.00  0.00    +0.000 C 
ATOM     21  C   UNL     1      11.549  11.602  17.809  0.00  0.00    +0.000 C 
ATOM     22  C   UNL     1      12.136  12.491  18.913  0.00  0.00    +0.000 C 
ATOM     23  C   UNL     1      11.700  11.964  20.291  0.00  0.00    +0.000 C 
ATOM     24  C   UNL     1      11.609  13.922  18.726  0.00  0.00    +0.000 C 
ATOM     25  C   UNL     1       9.494  13.062  17.774  0.00  0.00    +0.000 C 
ENDBRANCH  14  16
TORSDOF 1
ENDMDL
MODEL 6
REMARK VINA RESULT:      -6.8      4.659      5.747
REMARK  Name = 
REMARK  2 active torsions:
REMARK  status: ('A' for Active; 'I' for Inactive)
REMARK    1  A    between atoms: C_1  and  C_2
REMARK    2  A    between atoms: C_14  and  C_16
REMARK                            x       y       z     vdW  Elec       q    Type
REMARK                         _______ _______ _______ _____ _____    ______ ____
ROOT
ATOM      1  C   UNL     1       6.163  14.564  17.820  0.00  0.00    +0.000 C 
ATOM      2  C   UNL     1       7.114  14.729  19.007  0.00  0.00    +0.000 C 
ATOM      3  C   UNL     1       6.391  15.137  20.310  0.00  0.00    +0.000 C 
ATOM      4  N   UNL     1       5.958  16.535  20.294  0.00  0.00    +0.000 N 
ATOM      5  C   UNL     1       4.601  16.791  20.255  0.00  0.00    +0.000 A 
ATOM      6  C   UNL     1       4.087  17.962  20.810  0.00  0.00    +0.000 A 
ATOM      7  C   UNL     1       2.709  18.169  20.852  0.00  0.00    +0.000 A 
ATOM      8  C   UNL     1       1.864  17.209  20.319  0.00  0.00    +0.000 A 
ATOM      9  C   UNL     1       2.441  16.078  19.776  0.00  0.00    +0.000 A 
ATOM     10  N   UNL     1       3.773  15.850  19.748  0.00  0.00    +0.000 NA
ATOM     11  C   UNL     1       6.939  17.537  19.853  0.00  0.00    +0.000 C 
ATOM     12  C   UNL     1       7.741  17.077  18.613  0.00  0.00    +0.000 C 
ATOM     13  N   UNL     1       8.209  15.682  18.716  0.00  0.00    +0.000 N 
ATOM     14  C   UNL     1       9.574  15.425  18.657  0.00  0.00    +0.000 C 
ATOM     15  O   UNL     1      10.371  16.359  18.497  0.00  0.00    +0.000 OA
ENDROOT
BRANCH  14  16
ATOM     16  C   UNL     1      10.133  13.983  18.802  0.00  0.00    +0.000 C 
ATOM     17  C   UNL     1      11.678  13.958  18.670  0.00  0.00    +0.000 C 
ATOM     18  C   UNL     1      12.215  12.527  18.774  0.00  0.00    +0.000 C 
ATOM     19  C   UNL     1      11.903  11.985  20.174  0.00  0.00    +0.000 C 
ATOM     20  C   UNL     1      10.383  11.986  20.400  0.00  0.00    +0.000 C 
ATOM     21  C   UNL     1       9.737  11.059  19.358  0.00  0.00    +0.000 C 
ATOM     22  C   UNL     1      10.015  11.593  17.948  0.00  0.00    +0.000 C 
ATOM     23  C   UNL     1      11.533  11.655  17.705  0.00  0.00    +0.000 C 
ATOM     24  C   UNL     1       9.423  13.005  17.830  0.00  0.00    +0.000 C 
ATOM     25  C   UNL     1       9.832  13.421  20.234  0.00  0.00    +0.000 C 
ENDBRANCH  14  16
TORSDOF 1
ENDMDL
MODEL 7
REMARK VINA RESULT:      -6.6      4.171      6.335
REMARK  Name = 
REMARK  2 active torsions:
REMARK  status: ('A' for Active; 'I' for Inactive)
REMARK    1  A    between atoms: C_1  and  C_2
REMARK    2  A    between atoms: C_14  and  C_16
REMARK                            x       y       z     vdW  Elec       q    Type
REMARK                         _______ _______ _______ _____ _____    ______ ____
ROOT
ATOM      1  C   UNL     1       6.851  16.876  18.693  0.00  0.00    +0.000 C 
ATOM      2  C   UNL     1       6.805  15.356  18.859  0.00  0.00    +0.000 C 
ATOM      3  C   UNL     1       5.499  14.728  18.325  0.00  0.00    +0.000 C 
ATOM      4  N   UNL     1       4.355  14.989  19.200  0.00  0.00    +0.000 N 
ATOM      5  C   UNL     1       3.357  15.818  18.729  0.00  0.00    +0.000 A 
ATOM      6  C   UNL     1       2.045  15.667  19.174  0.00  0.00    +0.000 A 
ATOM      7  C   UNL     1       1.026  16.444  18.624  0.00  0.00    +0.000 A 
ATOM      8  C   UNL     1       1.339  17.378  17.649  0.00  0.00    +0.000 A 
ATOM      9  C   UNL     1       2.661  17.482  17.262  0.00  0.00    +0.000 A 
ATOM     10  N   UNL     1       3.656  16.721  17.769  0.00  0.00    +0.000 NA
ATOM     11  C   UNL     1       4.546  14.761  20.640  0.00  0.00    +0.000 C 
ATOM     12  C   UNL     1       5.906  15.292  21.150  0.00  0.00    +0.000 C 
ATOM     13  N   UNL     1       7.030  14.941  20.262  0.00  0.00    +0.000 N 
ATOM     14  C   UNL     1       8.079  14.185  20.773  0.00  0.00    +0.000 C 
ATOM     15  O   UNL     1       8.068  13.839  21.962  0.00  0.00    +0.000 OA
ENDROOT
BRANCH  14  16
ATOM     16  C   UNL     1       9.271  13.746  19.879  0.00  0.00    +0.000 C 
ATOM     17  C   UNL     1      10.167  14.952  19.496  0.00  0.00    +0.000 C 
ATOM     18  C   UNL     1      11.316  14.515  18.582  0.00  0.00    +0.000 C 
ATOM     19  C   UNL     1      12.220  13.548  19.356  0.00  0.00    +0.000 C 
ATOM     20  C   UNL     1      11.407  12.319  19.791  0.00  0.00    +0.000 C 
ATOM     21  C   UNL     1      10.891  11.608  18.531  0.00  0.00    +0.000 C 
ATOM     22  C   UNL     1       9.964  12.547  17.749  0.00  0.00    +0.000 C 
ATOM     23  C   UNL     1      10.734  13.815  17.341  0.00  0.00    +0.000 C 
ATOM     24  C   UNL     1       8.783  12.936  18.651  0.00  0.00    +0.000 C 
ATOM     25  C   UNL     1      10.212  12.767  20.663  0.00  0.00    +0.000 C 
ENDBRANCH  14  16
TORSDOF 1
ENDMDL
MODEL 8
REMARK VINA RESULT:      -6.4      4.125      6.360
REMARK  Name = 
REMARK  2 active torsions:
REMARK  status: ('A' for Active; 'I' for Inactive)
REMARK    1  A    between atoms: C_1  and  C_2
REMARK    2  A    between atoms: C_14  and  C_16
REMARK                            x       y       z     vdW  Elec       q    Type
REMARK                         _______ _______ _______ _____ _____    ______ ____
ROOT
ATOM      1  C   UNL     1       6.963  16.843  18.714  0.00  0.00    +0.000 C 
ATOM      2  C   UNL     1       6.920  15.323  18.879  0.00  0.00    +0.000 C 
ATOM      3  C   UNL     1       5.616  14.693  18.345  0.00  0.00    +0.000 C 
ATOM      4  N   UNL     1       4.471  14.951  19.221  0.00  0.00    +0.000 N 
ATOM      5  C   UNL     1       3.472  15.779  18.750  0.00  0.00    +0.000 A 
ATOM      6  C   UNL     1       2.160  15.625  19.195  0.00  0.00    +0.000 A 
ATOM      7  C   UNL     1       1.140  16.401  18.645  0.00  0.00    +0.000 A 
ATOM      8  C   UNL     1       1.451  17.335  17.671  0.00  0.00    +0.000 A 
ATOM      9  C   UNL     1       2.772  17.442  17.284  0.00  0.00    +0.000 A 
ATOM     10  N   UNL     1       3.769  16.682  17.790  0.00  0.00    +0.000 NA
ATOM     11  C   UNL     1       4.663  14.724  20.661  0.00  0.00    +0.000 C 
ATOM     12  C   UNL     1       6.022  15.257  21.170  0.00  0.00    +0.000 C 
ATOM     13  N   UNL     1       7.147  14.907  20.282  0.00  0.00    +0.000 N 
ATOM     14  C   UNL     1       8.198  14.154  20.792  0.00  0.00    +0.000 C 
ATOM     15  O   UNL     1       8.187  13.807  21.981  0.00  0.00    +0.000 OA
ENDROOT
BRANCH  14  16
ATOM     16  C   UNL     1       9.390  13.717  19.898  0.00  0.00    +0.000 C 
ATOM     17  C   UNL     1      10.301  12.696  20.626  0.00  0.00    +0.000 C 
ATOM     18  C   UNL     1      11.495  12.303  19.751  0.00  0.00    +0.000 C 
ATOM     19  C   UNL     1      10.973  11.584  18.501  0.00  0.00    +0.000 C 
ATOM     20  C   UNL     1      10.044  12.524  17.717  0.00  0.00    +0.000 C 
ATOM     21  C   UNL     1      10.854  13.753  17.277  0.00  0.00    +0.000 C 
ATOM     22  C   UNL     1      11.368  14.503  18.512  0.00  0.00    +0.000 C 
ATOM     23  C   UNL     1      12.264  13.573  19.349  0.00  0.00    +0.000 C 
ATOM     24  C   UNL     1      10.164  14.946  19.356  0.00  0.00    +0.000 C 
ATOM     25  C   UNL     1       8.871  12.969  18.621  0.00  0.00    +0.000 C 
ENDBRANCH  14  16
TORSDOF 1
ENDMDL
MODEL 9
REMARK VINA RESULT:      -6.4      4.207      6.267
REMARK  Name = 
REMARK  2 active torsions:
REMARK  status: ('A' for Active; 'I' for Inactive)
REMARK    1  A    between atoms: C_1  and  C_2
REMARK    2  A    between atoms: C_14  and  C_16
REMARK                            x       y       z     vdW  Elec       q    Type
REMARK                         _______ _______ _______ _____ _____    ______ ____
ROOT
ATOM      1  C   UNL     1       6.854  16.795  18.574  0.00  0.00    +0.000 C 
ATOM      2  C   UNL     1       6.765  15.280  18.762  0.00  0.00    +0.000 C 
ATOM      3  C   UNL     1       5.435  14.683  18.252  0.00  0.00    +0.000 C 
ATOM      4  N   UNL     1       4.309  14.991  19.136  0.00  0.00    +0.000 N 
ATOM      5  C   UNL     1       3.331  15.843  18.664  0.00  0.00    +0.000 A 
ATOM      6  C   UNL     1       2.020  15.737  19.126  0.00  0.00    +0.000 A 
ATOM      7  C   UNL     1       1.019  16.537  18.575  0.00  0.00    +0.000 A 
ATOM      8  C   UNL     1       1.348  17.447  17.584  0.00  0.00    +0.000 A 
ATOM      9  C   UNL     1       2.668  17.506  17.181  0.00  0.00    +0.000 A 
ATOM     10  N   UNL     1       3.646  16.722  17.687  0.00  0.00    +0.000 NA
ATOM     11  C   UNL     1       4.510  14.778  20.577  0.00  0.00    +0.000 C 
ATOM     12  C   UNL     1       5.891  15.276  21.064  0.00  0.00    +0.000 C 
ATOM     13  N   UNL     1       6.994  14.878  20.169  0.00  0.00    +0.000 N 
ATOM     14  C   UNL     1       8.026  14.099  20.679  0.00  0.00    +0.000 C 
ATOM     15  O   UNL     1       8.018  13.771  21.873  0.00  0.00    +0.000 OA
ENDROOT
BRANCH  14  16
ATOM     16  C   UNL     1       9.194  13.612  19.778  0.00  0.00    +0.000 C 
ATOM     17  C   UNL     1       8.685  13.152  18.388  0.00  0.00    +0.000 C 
ATOM     18  C   UNL     1       9.839  12.637  17.522  0.00  0.00    +0.000 C 
ATOM     19  C   UNL     1      10.808  13.794  17.254  0.00  0.00    +0.000 C 
ATOM     20  C   UNL     1      11.357  14.326  18.587  0.00  0.00    +0.000 C 
ATOM     21  C   UNL     1      12.125  13.192  19.283  0.00  0.00    +0.000 C 
ATOM     22  C   UNL     1      11.172  12.029  19.584  0.00  0.00    +0.000 C 
ATOM     23  C   UNL     1      10.562  11.504  18.272  0.00  0.00    +0.000 C 
ATOM     24  C   UNL     1      10.048  12.538  20.499  0.00  0.00    +0.000 C 
ATOM     25  C   UNL     1      10.186  14.790  19.485  0.00  0.00    +0.000 C 
ENDBRANCH  14  16
TORSDOF 1
ENDMDL
