MODEL 1
REMARK VINA RESULT:      -7.0      0.000      0.000
REMARK  Name = 
REMARK  6 active torsions:
REMARK  status: ('A' for Active; 'I' for Inactive)
REMARK    1  A    between atoms: C_1  and  C_2
REMARK    2  A    between atoms: C_2  and  C_3
REMARK    3  A    between atoms: C_2  and  S_4
REMARK    4  A    between atoms: S_4  and  C_5
REMARK    5  A    between atoms: C_10  and  N_11
REMARK    6  A    between atoms: C_12  and  C_14
REMARK                            x       y       z     vdW  Elec       q    Type
REMARK                         _______ _______ _______ _____ _____    ______ ____
ROOT
ATOM      1  C   UNL     1       4.389   4.073  18.246  0.00  0.00    +0.000 A 
ATOM      2  C   UNL     1       3.816   4.981  17.354  0.00  0.00    +0.000 A 
ATOM      3  C   UNL     1       4.490   6.160  17.009  0.00  0.00    +0.000 A 
ATOM      4  C   UNL     1       5.749   6.460  17.562  0.00  0.00    +0.000 A 
ATOM      5  C   UNL     1       6.452   7.643  17.262  0.00  0.00    +0.000 A 
ATOM      6  C   UNL     1       7.687   7.882  17.864  0.00  0.00    +0.000 A 
ATOM      7  N   UNL     1       8.240   7.003  18.715  0.00  0.00    +0.000 NA
ATOM      8  C   UNL     1       7.563   5.869  18.994  0.00  0.00    +0.000 A 
ATOM      9  C   UNL     1       6.321   5.543  18.461  0.00  0.00    +0.000 A 
ATOM     10  C   UNL     1       5.640   4.358  18.798  0.00  0.00    +0.000 A 
ENDROOT
BRANCH   6  11
ATOM     11  N   UNL     1       8.356   9.076  17.557  0.00  0.00    +0.000 N 
ATOM     12  C   UNL     1       8.918   9.921  18.491  0.00  0.00    +0.000 C 
ATOM     13  O   UNL     1       8.922   9.809  19.706  0.00  0.00    +0.000 OA
ATOM     14  H   UNL     1       8.432   9.327  16.585  0.00  0.00    +0.000 HD
BRANCH  12  15
ATOM     15  C   UNL     1       9.627  11.088  17.869  0.00  0.00    +0.000 C 
ATOM     16  C   UNL     1       8.953  12.441  17.777  0.00  0.00    +0.000 C 
ATOM     17  C   UNL     1      10.066  12.229  18.760  0.00  0.00    +0.000 C 
ENDBRANCH  12  15
ENDBRANCH   6  11
BRANCH   1  18
ATOM     18  S   UNL     1       3.545   2.585  18.760  0.00  0.00    +0.000 S 
BRANCH  18  20
ATOM     19  C   UNL     1       0.772   2.571  18.932  0.00  0.00    +0.000 C 
ATOM     20  C   UNL     1       2.007   3.264  19.499  0.00  0.00    +0.000 C 
ATOM     21  C   UNL     1       2.072   3.066  21.015  0.00  0.00    +0.000 C 
ENDBRANCH  18  20
ENDBRANCH   1  18
TORSDOF 4
ENDMDL
MODEL 2
REMARK VINA RESULT:      -6.6      5.571      7.155
REMARK  Name = 
REMARK  6 active torsions:
REMARK  status: ('A' for Active; 'I' for Inactive)
REMARK    1  A    between atoms: C_1  and  C_2
REMARK    2  A    between atoms: C_2  and  C_3
REMARK    3  A    between atoms: C_2  and  S_4
REMARK    4  A    between atoms: S_4  and  C_5
REMARK    5  A    between atoms: C_10  and  N_11
REMARK    6  A    between atoms: C_12  and  C_14
REMARK                            x       y       z     vdW  Elec       q    Type
REMARK                         _______ _______ _______ _____ _____    ______ ____
ROOT
ATOM      1  C   UNL     1       0.699   9.625  19.886  0.00  0.00    +0.000 A 
ATOM      2  C   UNL     1       1.068  10.104  18.628  0.00  0.00    +0.000 A 
ATOM      3  C   UNL     1       1.962   9.380  17.826  0.00  0.00    +0.000 A 
ATOM      4  C   UNL     1       2.514   8.167  18.275  0.00  0.00    +0.000 A 
ATOM      5  C   UNL     1       3.433   7.419  17.514  0.00  0.00    +0.000 A 
ATOM      6  C   UNL     1       3.954   6.234  18.033  0.00  0.00    +0.000 A 
ATOM      7  N   UNL     1       3.591   5.771  19.240  0.00  0.00    +0.000 NA
ATOM      8  C   UNL     1       2.706   6.491  19.962  0.00  0.00    +0.000 A 
ATOM      9  C   UNL     1       2.140   7.690  19.544  0.00  0.00    +0.000 A 
ATOM     10  C   UNL     1       1.238   8.419  20.340  0.00  0.00    +0.000 A 
ENDROOT
BRANCH   6  11
ATOM     11  N   UNL     1       4.879   5.519  17.257  0.00  0.00    +0.000 N 
ATOM     12  C   UNL     1       4.628   4.299  16.665  0.00  0.00    +0.000 C 
ATOM     13  O   UNL     1       3.609   3.628  16.720  0.00  0.00    +0.000 OA
ATOM     14  H   UNL     1       5.787   5.933  17.121  0.00  0.00    +0.000 HD
BRANCH  12  15
ATOM     15  C   UNL     1       5.777   3.803  15.839  0.00  0.00    +0.000 C 
ATOM     16  C   UNL     1       5.885   4.162  14.372  0.00  0.00    +0.000 C 
ATOM     17  C   UNL     1       6.812   4.799  15.365  0.00  0.00    +0.000 C 
ENDBRANCH  12  15
ENDBRANCH   6  11
BRANCH   1  18
ATOM     18  S   UNL     1      -0.391  10.538  20.967  0.00  0.00    +0.000 S 
BRANCH  18  20
ATOM     19  C   UNL     1      -2.198  12.411  19.994  0.00  0.00    +0.000 C 
ATOM     20  C   UNL     1      -0.715  12.052  19.979  0.00  0.00    +0.000 C 
ATOM     21  C   UNL     1       0.110  13.197  20.569  0.00  0.00    +0.000 C 
ENDBRANCH  18  20
ENDBRANCH   1  18
TORSDOF 4
ENDMDL
MODEL 3
REMARK VINA RESULT:      -6.6      5.952      7.403
REMARK  Name = 
REMARK  6 active torsions:
REMARK  status: ('A' for Active; 'I' for Inactive)
REMARK    1  A    between atoms: C_1  and  C_2
REMARK    2  A    between atoms: C_2  and  C_3
REMARK    3  A    between atoms: C_2  and  S_4
REMARK    4  A    between atoms: S_4  and  C_5
REMARK    5  A    between atoms: C_10  and  N_11
REMARK    6  A    between atoms: C_12  and  C_14
REMARK                            x       y       z     vdW  Elec       q    Type
REMARK                         _______ _______ _______ _____ _____    ______ ____
ROOT
ATOM      1  C   UNL     1       3.975   6.221  17.960  0.00  0.00    +0.000 A 
ATOM      2  C   UNL     1       3.548   5.743  19.201  0.00  0.00    +0.000 A 
ATOM      3  C   UNL     1       2.583   6.444  19.938  0.00  0.00    +0.000 A 
ATOM      4  C   UNL     1       2.035   7.645  19.452  0.00  0.00    +0.000 A 
ATOM      5  C   UNL     1       1.082   8.394  20.170  0.00  0.00    +0.000 A 
ATOM      6  C   UNL     1       0.598   9.587  19.633  0.00  0.00    +0.000 A 
ATOM      7  N   UNL     1       1.003  10.039  18.436  0.00  0.00    +0.000 NA
ATOM      8  C   UNL     1       1.914   9.314  17.752  0.00  0.00    +0.000 A 
ATOM      9  C   UNL     1       2.470   8.122  18.203  0.00  0.00    +0.000 A 
ATOM     10  C   UNL     1       3.434   7.411  17.467  0.00  0.00    +0.000 A 
ENDROOT
BRANCH   6  11
ATOM     11  N   UNL     1      -0.340  10.318  20.378  0.00  0.00    +0.000 N 
ATOM     12  C   UNL     1      -0.027  11.364  21.221  0.00  0.00    +0.000 C 
ATOM     13  O   UNL     1       1.075  11.817  21.485  0.00  0.00    +0.000 OA
ATOM     14  H   UNL     1      -1.309  10.060  20.282  0.00  0.00    +0.000 HD
BRANCH  12  15
ATOM     15  C   UNL     1      -1.239  12.002  21.833  0.00  0.00    +0.000 C 
ATOM     16  C   UNL     1      -1.636  11.693  23.261  0.00  0.00    +0.000 C 
ATOM     17  C   UNL     1      -1.044  13.030  22.925  0.00  0.00    +0.000 C 
ENDBRANCH  12  15
ENDBRANCH   6  11
BRANCH   1  18
ATOM     18  S   UNL     1       5.241   5.395  17.010  0.00  0.00    +0.000 S 
BRANCH  18  20
ATOM     19  C   UNL     1       7.770   4.627  17.869  0.00  0.00    +0.000 C 
ATOM     20  C   UNL     1       6.745   5.750  18.003  0.00  0.00    +0.000 C 
ATOM     21  C   UNL     1       7.344   7.070  17.516  0.00  0.00    +0.000 C 
ENDBRANCH  18  20
ENDBRANCH   1  18
TORSDOF 4
ENDMDL
MODEL 4
REMARK VINA RESULT:      -6.6      5.158      6.708
REMARK  Name = 
REMARK  6 active torsions:
REMARK  status: ('A' for Active; 'I' for Inactive)
REMARK    1  A    between atoms: C_1  and  C_2
REMARK    2  A    between atoms: C_2  and  C_3
REMARK    3  A    between atoms: C_2  and  S_4
REMARK    4  A    between atoms: S_4  and  C_5
REMARK    5  A    between atoms: C_10  and  N_11
REMARK    6  A    between atoms: C_12  and  C_14
REMARK                            x       y       z     vdW  Elec       q    Type
REMARK                         _______ _______ _______ _____ _____    ______ ____
ROOT
ATOM      1  C   UNL     1       1.052   9.109  20.087  0.00  0.00    +0.000 A 
ATOM      2  C   UNL     1       1.236   9.587  18.789  0.00  0.00    +0.000 A 
ATOM      3  C   UNL     1       1.979   8.848  17.858  0.00  0.00    +0.000 A 
ATOM      4  C   UNL     1       2.563   7.618  18.214  0.00  0.00    +0.000 A 
ATOM      5  C   UNL     1       3.336   6.854  17.319  0.00  0.00    +0.000 A 
ATOM      6  C   UNL     1       3.901   5.653  17.748  0.00  0.00    +0.000 A 
ATOM      7  N   UNL     1       3.715   5.191  18.995  0.00  0.00    +0.000 NA
ATOM      8  C   UNL     1       2.969   5.927  19.846  0.00  0.00    +0.000 A 
ATOM      9  C   UNL     1       2.375   7.142  19.523  0.00  0.00    +0.000 A 
ATOM     10  C   UNL     1       1.624   7.887  20.450  0.00  0.00    +0.000 A 
ENDROOT
BRANCH   6  11
ATOM     11  N   UNL     1       4.678   4.921  16.838  0.00  0.00    +0.000 N 
ATOM     12  C   UNL     1       5.811   5.400  16.213  0.00  0.00    +0.000 C 
ATOM     13  O   UNL     1       6.316   6.507  16.310  0.00  0.00    +0.000 OA
ATOM     14  H   UNL     1       4.388   3.979  16.634  0.00  0.00    +0.000 HD
BRANCH  12  15
ATOM     15  C   UNL     1       6.475   4.374  15.344  0.00  0.00    +0.000 C 
ATOM     16  C   UNL     1       5.928   4.054  13.969  0.00  0.00    +0.000 C 
ATOM     17  C   UNL     1       7.202   4.836  14.101  0.00  0.00    +0.000 C 
ENDBRANCH  12  15
ENDBRANCH   6  11
BRANCH   1  18
ATOM     18  S   UNL     1       0.163  10.041  21.325  0.00  0.00    +0.000 S 
BRANCH  18  20
ATOM     19  C   UNL     1      -1.570  12.150  20.810  0.00  0.00    +0.000 C 
ATOM     20  C   UNL     1      -0.197  11.603  20.430  0.00  0.00    +0.000 C 
ATOM     21  C   UNL     1       0.890  12.621  20.780  0.00  0.00    +0.000 C 
ENDBRANCH  18  20
ENDBRANCH   1  18
TORSDOF 4
ENDMDL
MODEL 5
REMARK VINA RESULT:      -6.6      5.575      6.347
REMARK  Name = 
REMARK  6 active torsions:
REMARK  status: ('A' for Active; 'I' for Inactive)
REMARK    1  A    between atoms: C_1  and  C_2
REMARK    2  A    between atoms: C_2  and  C_3
REMARK    3  A    between atoms: C_2  and  S_4
REMARK    4  A    between atoms: S_4  and  C_5
REMARK    5  A    between atoms: C_10  and  N_11
REMARK    6  A    between atoms: C_12  and  C_14
REMARK                            x       y       z     vdW  Elec       q    Type
REMARK                         _______ _______ _______ _____ _____    ______ ____
ROOT
ATOM      1  C   UNL     1       3.269   4.926  19.217  0.00  0.00    +0.000 A 
ATOM      2  C   UNL     1       3.529   5.445  17.947  0.00  0.00    +0.000 A 
ATOM      3  C   UNL     1       3.115   6.741  17.610  0.00  0.00    +0.000 A 
ATOM      4  C   UNL     1       2.420   7.540  18.536  0.00  0.00    +0.000 A 
ATOM      5  C   UNL     1       1.965   8.838  18.233  0.00  0.00    +0.000 A 
ATOM      6  C   UNL     1       1.265   9.565  19.196  0.00  0.00    +0.000 A 
ATOM      7  N   UNL     1       1.023   9.067  20.419  0.00  0.00    +0.000 NA
ATOM      8  C   UNL     1       1.466   7.824  20.704  0.00  0.00    +0.000 A 
ATOM      9  C   UNL     1       2.159   7.013  19.813  0.00  0.00    +0.000 A 
ATOM     10  C   UNL     1       2.582   5.713  20.145  0.00  0.00    +0.000 A 
ENDROOT
BRANCH   6  11
ATOM     11  N   UNL     1       0.812  10.850  18.859  0.00  0.00    +0.000 N 
ATOM     12  C   UNL     1      -0.512  11.191  18.680  0.00  0.00    +0.000 C 
ATOM     13  O   UNL     1      -1.495  10.470  18.753  0.00  0.00    +0.000 OA
ATOM     14  H   UNL     1       1.506  11.570  18.748  0.00  0.00    +0.000 HD
BRANCH  12  15
ATOM     15  C   UNL     1      -0.704  12.651  18.393  0.00  0.00    +0.000 C 
ATOM     16  C   UNL     1      -0.838  13.649  19.523  0.00  0.00    +0.000 C 
ATOM     17  C   UNL     1       0.423  13.607  18.711  0.00  0.00    +0.000 C 
ENDBRANCH  12  15
ENDBRANCH   6  11
BRANCH   1  18
ATOM     18  S   UNL     1       3.725   3.261  19.674  0.00  0.00    +0.000 S 
BRANCH  18  20
ATOM     19  C   UNL     1       1.354   2.794  21.045  0.00  0.00    +0.000 C 
ATOM     20  C   UNL     1       2.087   2.434  19.756  0.00  0.00    +0.000 C 
ATOM     21  C   UNL     1       1.265   2.872  18.543  0.00  0.00    +0.000 C 
ENDBRANCH  18  20
ENDBRANCH   1  18
TORSDOF 4
ENDMDL
MODEL 6
REMARK VINA RESULT:      -6.5      6.844      8.720
REMARK  Name = 
REMARK  6 active torsions:
REMARK  status: ('A' for Active; 'I' for Inactive)
REMARK    1  A    between atoms: C_1  and  C_2
REMARK    2  A    between atoms: C_2  and  C_3
REMARK    3  A    between atoms: C_2  and  S_4
REMARK    4  A    between atoms: S_4  and  C_5
REMARK    5  A    between atoms: C_10  and  N_11
REMARK    6  A    between atoms: C_12  and  C_14
REMARK                            x       y       z     vdW  Elec       q    Type
REMARK                         _______ _______ _______ _____ _____    ______ ____
ROOT
ATOM      1  C   UNL     1      -0.199  11.002  20.932  0.00  0.00    +0.000 A 
ATOM      2  C   UNL     1       0.012  10.082  21.961  0.00  0.00    +0.000 A 
ATOM      3  C   UNL     1       0.734   8.905  21.725  0.00  0.00    +0.000 A 
ATOM      4  C   UNL     1       1.251   8.618  20.448  0.00  0.00    +0.000 A 
ATOM      5  C   UNL     1       1.962   7.437  20.160  0.00  0.00    +0.000 A 
ATOM      6  C   UNL     1       2.428   7.212  18.865  0.00  0.00    +0.000 A 
ATOM      7  N   UNL     1       2.232   8.102  17.879  0.00  0.00    +0.000 NA
ATOM      8  C   UNL     1       1.553   9.234  18.163  0.00  0.00    +0.000 A 
ATOM      9  C   UNL     1       1.035   9.547  19.415  0.00  0.00    +0.000 A 
ATOM     10  C   UNL     1       0.313  10.729  19.661  0.00  0.00    +0.000 A 
ENDROOT
BRANCH   6  11
ATOM     11  N   UNL     1       3.120   6.019  18.606  0.00  0.00    +0.000 N 
ATOM     12  C   UNL     1       2.556   4.891  18.049  0.00  0.00    +0.000 C 
ATOM     13  O   UNL     1       1.396   4.715  17.712  0.00  0.00    +0.000 OA
ATOM     14  H   UNL     1       4.099   5.993  18.840  0.00  0.00    +0.000 HD
BRANCH  12  15
ATOM     15  C   UNL     1       3.550   3.791  17.826  0.00  0.00    +0.000 C 
ATOM     16  C   UNL     1       3.820   2.763  18.904  0.00  0.00    +0.000 C 
ATOM     17  C   UNL     1       3.044   2.373  17.681  0.00  0.00    +0.000 C 
ENDBRANCH  12  15
ENDBRANCH   6  11
BRANCH   1  18
ATOM     18  S   UNL     1      -1.161  12.488  21.168  0.00  0.00    +0.000 S 
BRANCH  18  20
ATOM     19  C   UNL     1      -1.182  13.937  23.538  0.00  0.00    +0.000 C 
ATOM     20  C   UNL     1      -1.354  12.522  22.994  0.00  0.00    +0.000 C 
ATOM     21  C   UNL     1      -2.746  11.990  23.341  0.00  0.00    +0.000 C 
ENDBRANCH  18  20
ENDBRANCH   1  18
TORSDOF 4
ENDMDL
MODEL 7
REMARK VINA RESULT:      -6.5      5.934      6.412
REMARK  Name = 
REMARK  6 active torsions:
REMARK  status: ('A' for Active; 'I' for Inactive)
REMARK    1  A    between atoms: C_1  and  C_2
REMARK    2  A    between atoms: C_2  and  C_3
REMARK    3  A    between atoms: C_2  and  S_4
REMARK    4  A    between atoms: S_4  and  C_5
REMARK    5  A    between atoms: C_10  and  N_11
REMARK    6  A    between atoms: C_12  and  C_14
REMARK                            x       y       z     vdW  Elec       q    Type
REMARK                         _______ _______ _______ _____ _____    ______ ____
ROOT
ATOM      1  C   UNL     1       2.500   5.944  19.363  0.00  0.00    +0.000 A 
ATOM      2  C   UNL     1       2.680   6.605  18.146  0.00  0.00    +0.000 A 
ATOM      3  C   UNL     1       2.320   7.953  18.010  0.00  0.00    +0.000 A 
ATOM      4  C   UNL     1       1.760   8.663  19.088  0.00  0.00    +0.000 A 
ATOM      5  C   UNL     1       1.362  10.010  18.989  0.00  0.00    +0.000 A 
ATOM      6  C   UNL     1       0.795  10.644  20.094  0.00  0.00    +0.000 A 
ATOM      7  N   UNL     1       0.631  10.009  21.265  0.00  0.00    +0.000 NA
ATOM      8  C   UNL     1       1.019   8.719  21.354  0.00  0.00    +0.000 A 
ATOM      9  C   UNL     1       1.579   7.992  20.309  0.00  0.00    +0.000 A 
ATOM     10  C   UNL     1       1.948   6.641  20.441  0.00  0.00    +0.000 A 
ENDROOT
BRANCH   6  11
ATOM     11  N   UNL     1       0.395  11.982  19.960  0.00  0.00    +0.000 N 
ATOM     12  C   UNL     1       1.091  13.062  20.464  0.00  0.00    +0.000 C 
ATOM     13  O   UNL     1       2.126  13.058  21.111  0.00  0.00    +0.000 OA
ATOM     14  H   UNL     1      -0.457  12.162  19.455  0.00  0.00    +0.000 HD
BRANCH  12  15
ATOM     15  C   UNL     1       0.463  14.377  20.109  0.00  0.00    +0.000 C 
ATOM     16  C   UNL     1       1.055  15.248  19.021  0.00  0.00    +0.000 C 
ATOM     17  C   UNL     1      -0.228  14.513  18.771  0.00  0.00    +0.000 C 
ENDBRANCH  12  15
ENDBRANCH   6  11
BRANCH   1  18
ATOM     18  S   UNL     1       2.890   4.213  19.570  0.00  0.00    +0.000 S 
BRANCH  18  20
ATOM     19  C   UNL     1       0.708   2.625  18.912  0.00  0.00    +0.000 C 
ATOM     20  C   UNL     1       1.254   3.513  20.025  0.00  0.00    +0.000 C 
ATOM     21  C   UNL     1       1.418   2.704  21.312  0.00  0.00    +0.000 C 
ENDBRANCH  18  20
ENDBRANCH   1  18
TORSDOF 4
ENDMDL
MODEL 8
REMARK VINA RESULT:      -6.5      5.478      5.971
REMARK  Name = 
REMARK  6 active torsions:
REMARK  status: ('A' for Active; 'I' for Inactive)
REMARK    1  A    between atoms: C_1  and  C_2
REMARK    2  A    between atoms: C_2  and  C_3
REMARK    3  A    between atoms: C_2  and  S_4
REMARK    4  A    between atoms: S_4  and  C_5
REMARK    5  A    between atoms: C_10  and  N_11
REMARK    6  A    between atoms: C_12  and  C_14
REMARK                            x       y       z     vdW  Elec       q    Type
REMARK                         _______ _______ _______ _____ _____    ______ ____
ROOT
ATOM      1  C   UNL     1       3.282   5.533  19.008  0.00  0.00    +0.000 A 
ATOM      2  C   UNL     1       3.663   6.081  17.782  0.00  0.00    +0.000 A 
ATOM      3  C   UNL     1       3.259   7.375  17.427  0.00  0.00    +0.000 A 
ATOM      4  C   UNL     1       2.454   8.143  18.289  0.00  0.00    +0.000 A 
ATOM      5  C   UNL     1       2.006   9.437  17.963  0.00  0.00    +0.000 A 
ATOM      6  C   UNL     1       1.194  10.131  18.860  0.00  0.00    +0.000 A 
ATOM      7  N   UNL     1       0.837   9.605  20.042  0.00  0.00    +0.000 NA
ATOM      8  C   UNL     1       1.274   8.366  20.350  0.00  0.00    +0.000 A 
ATOM      9  C   UNL     1       2.073   7.585  19.522  0.00  0.00    +0.000 A 
ATOM     10  C   UNL     1       2.487   6.288  19.874  0.00  0.00    +0.000 A 
ENDROOT
BRANCH   6  11
ATOM     11  N   UNL     1       0.751  11.413  18.500  0.00  0.00    +0.000 N 
ATOM     12  C   UNL     1       1.113  12.577  19.146  0.00  0.00    +0.000 C 
ATOM     13  O   UNL     1       1.834  12.706  20.122  0.00  0.00    +0.000 OA
ATOM     14  H   UNL     1       0.131  11.483  17.710  0.00  0.00    +0.000 HD
BRANCH  12  15
ATOM     15  C   UNL     1       0.541  13.804  18.500  0.00  0.00    +0.000 C 
ATOM     16  C   UNL     1      -0.339  14.752  19.287  0.00  0.00    +0.000 C 
ATOM     17  C   UNL     1       1.061  15.158  18.930  0.00  0.00    +0.000 C 
ENDBRANCH  12  15
ENDBRANCH   6  11
BRANCH   1  18
ATOM     18  S   UNL     1       3.724   3.868  19.482  0.00  0.00    +0.000 S 
BRANCH  18  20
ATOM     19  C   UNL     1       1.634   2.048  19.281  0.00  0.00    +0.000 C 
ATOM     20  C   UNL     1       2.126   3.224  20.119  0.00  0.00    +0.000 C 
ATOM     21  C   UNL     1       2.327   2.788  21.572  0.00  0.00    +0.000 C 
ENDBRANCH  18  20
ENDBRANCH   1  18
TORSDOF 4
ENDMDL
MODEL 9
REMARK VINA RESULT:      -6.4      5.749      6.361
REMARK  Name = 
REMARK  6 active torsions:
REMARK  status: ('A' for Active; 'I' for Inactive)
REMARK    1  A    between atoms: C_1  and  C_2
REMARK    2  A    between atoms: C_2  and  C_3
REMARK    3  A    between atoms: C_2  and  S_4
REMARK    4  A    between atoms: S_4  and  C_5
REMARK    5  A    between atoms: C_10  and  N_11
REMARK    6  A    between atoms: C_12  and  C_14
REMARK                            x       y       z     vdW  Elec       q    Type
REMARK                         _______ _______ _______ _____ _____    ______ ____
ROOT
ATOM      1  C   UNL     1       3.280   5.440  18.968  0.00  0.00    +0.000 A 
ATOM      2  C   UNL     1       3.646   6.016  17.751  0.00  0.00    +0.000 A 
ATOM      3  C   UNL     1       3.262   7.327  17.441  0.00  0.00    +0.000 A 
ATOM      4  C   UNL     1       2.490   8.085  18.341  0.00  0.00    +0.000 A 
ATOM      5  C   UNL     1       2.062   9.398  18.061  0.00  0.00    +0.000 A 
ATOM      6  C   UNL     1       1.282  10.081  18.994  0.00  0.00    +0.000 A 
ATOM      7  N   UNL     1       0.938   9.528  20.167  0.00  0.00    +0.000 NA
ATOM      8  C   UNL     1       1.356   8.272  20.431  0.00  0.00    +0.000 A 
ATOM      9  C   UNL     1       2.123   7.500  19.564  0.00  0.00    +0.000 A 
ATOM     10  C   UNL     1       2.517   6.185  19.871  0.00  0.00    +0.000 A 
ENDROOT
BRANCH   6  11
ATOM     11  N   UNL     1       0.859  11.381  18.680  0.00  0.00    +0.000 N 
ATOM     12  C   UNL     1      -0.460  11.777  18.595  0.00  0.00    +0.000 C 
ATOM     13  O   UNL     1      -1.463  11.098  18.747  0.00  0.00    +0.000 OA
ATOM     14  H   UNL     1       1.572  12.072  18.511  0.00  0.00    +0.000 HD
BRANCH  12  15
ATOM     15  C   UNL     1      -0.613  13.241  18.310  0.00  0.00    +0.000 C 
ATOM     16  C   UNL     1      -0.726  14.240  19.442  0.00  0.00    +0.000 C 
ATOM     17  C   UNL     1       0.537  14.167  18.637  0.00  0.00    +0.000 C 
ENDBRANCH  12  15
ENDBRANCH   6  11
BRANCH   1  18
ATOM     18  S   UNL     1       3.696   3.754  19.385  0.00  0.00    +0.000 S 
BRANCH  18  20
ATOM     19  C   UNL     1       1.559   1.984  19.246  0.00  0.00    +0.000 C 
ATOM     20  C   UNL     1       2.111   3.137  20.078  0.00  0.00    +0.000 C 
ATOM     21  C   UNL     1       2.361   2.677  21.516  0.00  0.00    +0.000 C 
ENDBRANCH  18  20
ENDBRANCH   1  18
TORSDOF 4
ENDMDL
