MODEL 1
REMARK VINA RESULT:      -7.2      0.000      0.000
REMARK  Name = 
REMARK  6 active torsions:
REMARK  status: ('A' for Active; 'I' for Inactive)
REMARK    1  A    between atoms: C_1  and  C_2
REMARK    2  A    between atoms: C_2  and  C_3
REMARK    3  A    between atoms: C_3  and  C_4
REMARK    4  A    between atoms: C_4  and  O_5
REMARK    5  A    between atoms: O_5  and  C_6
REMARK    6  A    between atoms: C_9  and  C_10
REMARK                            x       y       z     vdW  Elec       q    Type
REMARK                         _______ _______ _______ _____ _____    ______ ____
ROOT
ATOM      1  C   UNL     1       4.845   5.636  16.956  0.00  0.00    +0.000 A 
ATOM      2  C   UNL     1       3.925   6.397  17.683  0.00  0.00    +0.000 A 
ATOM      3  C   UNL     1       2.807   5.805  18.258  0.00  0.00    +0.000 A 
ATOM      4  C   UNL     1       2.570   4.437  18.122  0.00  0.00    +0.000 A 
ATOM      5  C   UNL     1       3.503   3.669  17.402  0.00  0.00    +0.000 A 
ATOM      6  C   UNL     1       4.630   4.266  16.822  0.00  0.00    +0.000 A 
ENDROOT
BRANCH   4   7
ATOM      7  C   UNL     1       1.307   3.863  18.739  0.00  0.00    +0.000 C 
ATOM      8  C   UNL     1       1.331   2.337  18.801  0.00  0.00    +0.000 C 
ATOM      9  N   UNL     1       1.807   2.054  20.123  0.00  0.00    +0.000 N 
ATOM     10  C   UNL     1       1.694   3.137  20.969  0.00  0.00    +0.000 C 
ATOM     11  O   UNL     1       2.002   3.139  22.149  0.00  0.00    +0.000 OA
ATOM     12  C   UNL     1       1.096   4.284  20.197  0.00  0.00    +0.000 C 
ATOM     13  H   UNL     1       2.173   1.169  20.447  0.00  0.00    +0.000 HD
ENDBRANCH   4   7
BRANCH   1  14
ATOM     14  O   UNL     1       5.969   6.139  16.349  0.00  0.00    +0.000 OA
BRANCH  14  15
ATOM     15  C   UNL     1       7.194   5.742  16.969  0.00  0.00    +0.000 C 
BRANCH  15  16
ATOM     16  C   UNL     1       7.591   6.718  18.063  0.00  0.00    +0.000 C 
BRANCH  16  18
ATOM     17  C   UNL     1       8.488   9.044  18.418  0.00  0.00    +0.000 C 
ATOM     18  C   UNL     1       7.761   8.115  17.465  0.00  0.00    +0.000 C 
ENDBRANCH  16  18
ENDBRANCH  15  16
ENDBRANCH  14  15
ENDBRANCH   1  14
TORSDOF 5
ENDMDL
MODEL 2
REMARK VINA RESULT:      -7.1      0.740      1.202
REMARK  Name = 
REMARK  6 active torsions:
REMARK  status: ('A' for Active; 'I' for Inactive)
REMARK    1  A    between atoms: C_1  and  C_2
REMARK    2  A    between atoms: C_2  and  C_3
REMARK    3  A    between atoms: C_3  and  C_4
REMARK    4  A    between atoms: C_4  and  O_5
REMARK    5  A    between atoms: O_5  and  C_6
REMARK    6  A    between atoms: C_9  and  C_10
REMARK                            x       y       z     vdW  Elec       q    Type
REMARK                         _______ _______ _______ _____ _____    ______ ____
ROOT
ATOM      1  C   UNL     1       4.476   6.211  16.975  0.00  0.00    +0.000 A 
ATOM      2  C   UNL     1       3.481   6.810  17.753  0.00  0.00    +0.000 A 
ATOM      3  C   UNL     1       2.484   6.047  18.348  0.00  0.00    +0.000 A 
ATOM      4  C   UNL     1       2.446   4.662  18.179  0.00  0.00    +0.000 A 
ATOM      5  C   UNL     1       3.453   4.058  17.407  0.00  0.00    +0.000 A 
ATOM      6  C   UNL     1       4.459   4.828  16.808  0.00  0.00    +0.000 A 
ENDROOT
BRANCH   4   7
ATOM      7  C   UNL     1       1.303   3.894  18.820  0.00  0.00    +0.000 C 
ATOM      8  C   UNL     1       1.555   2.388  18.843  0.00  0.00    +0.000 C 
ATOM      9  N   UNL     1       2.113   2.152  20.142  0.00  0.00    +0.000 N 
ATOM     10  C   UNL     1       1.870   3.189  21.019  0.00  0.00    +0.000 C 
ATOM     11  O   UNL     1       2.214   3.213  22.188  0.00  0.00    +0.000 OA
ATOM     12  C   UNL     1       1.082   4.249  20.294  0.00  0.00    +0.000 C 
ATOM     13  H   UNL     1       2.617   1.325  20.433  0.00  0.00    +0.000 HD
ENDBRANCH   4   7
BRANCH   1  14
ATOM     14  O   UNL     1       5.491   6.888  16.347  0.00  0.00    +0.000 OA
BRANCH  14  15
ATOM     15  C   UNL     1       6.794   6.366  16.614  0.00  0.00    +0.000 C 
BRANCH  15  16
ATOM     16  C   UNL     1       7.581   7.303  17.515  0.00  0.00    +0.000 C 
BRANCH  16  18
ATOM     17  C   UNL     1       7.697   5.081  18.694  0.00  0.00    +0.000 C 
ATOM     18  C   UNL     1       7.978   6.568  18.795  0.00  0.00    +0.000 C 
ENDBRANCH  16  18
ENDBRANCH  15  16
ENDBRANCH  14  15
ENDBRANCH   1  14
TORSDOF 5
ENDMDL
MODEL 3
REMARK VINA RESULT:      -7.1      0.773      1.763
REMARK  Name = 
REMARK  6 active torsions:
REMARK  status: ('A' for Active; 'I' for Inactive)
REMARK    1  A    between atoms: C_1  and  C_2
REMARK    2  A    between atoms: C_2  and  C_3
REMARK    3  A    between atoms: C_3  and  C_4
REMARK    4  A    between atoms: C_4  and  O_5
REMARK    5  A    between atoms: O_5  and  C_6
REMARK    6  A    between atoms: C_9  and  C_10
REMARK                            x       y       z     vdW  Elec       q    Type
REMARK                         _______ _______ _______ _____ _____    ______ ____
ROOT
ATOM      1  C   UNL     1       4.565   6.192  16.920  0.00  0.00    +0.000 A 
ATOM      2  C   UNL     1       4.458   4.813  16.721  0.00  0.00    +0.000 A 
ATOM      3  C   UNL     1       3.421   4.087  17.294  0.00  0.00    +0.000 A 
ATOM      4  C   UNL     1       2.460   4.715  18.088  0.00  0.00    +0.000 A 
ATOM      5  C   UNL     1       2.559   6.105  18.277  0.00  0.00    +0.000 A 
ATOM      6  C   UNL     1       3.605   6.836  17.699  0.00  0.00    +0.000 A 
ENDROOT
BRANCH   4   7
ATOM      7  C   UNL     1       1.380   3.856  18.719  0.00  0.00    +0.000 C 
ATOM      8  C   UNL     1       1.768   2.379  18.772  0.00  0.00    +0.000 C 
ATOM      9  N   UNL     1       2.318   2.214  20.086  0.00  0.00    +0.000 N 
ATOM     10  C   UNL     1       1.963   3.237  20.940  0.00  0.00    +0.000 C 
ATOM     11  O   UNL     1       2.280   3.310  22.115  0.00  0.00    +0.000 OA
ATOM     12  C   UNL     1       1.096   4.211  20.183  0.00  0.00    +0.000 C 
ATOM     13  H   UNL     1       2.890   1.442  20.399  0.00  0.00    +0.000 HD
ENDBRANCH   4   7
BRANCH   1  14
ATOM     14  O   UNL     1       5.558   6.983  16.399  0.00  0.00    +0.000 OA
BRANCH  14  15
ATOM     15  C   UNL     1       6.875   6.456  16.574  0.00  0.00    +0.000 C 
BRANCH  15  16
ATOM     16  C   UNL     1       7.572   7.115  17.751  0.00  0.00    +0.000 C 
BRANCH  16  18
ATOM     17  C   UNL     1       7.756   4.669  18.320  0.00  0.00    +0.000 C 
ATOM     18  C   UNL     1       7.788   6.086  18.861  0.00  0.00    +0.000 C 
ENDBRANCH  16  18
ENDBRANCH  15  16
ENDBRANCH  14  15
ENDBRANCH   1  14
TORSDOF 5
ENDMDL
MODEL 4
REMARK VINA RESULT:      -7.0      2.517      6.394
REMARK  Name = 
REMARK  6 active torsions:
REMARK  status: ('A' for Active; 'I' for Inactive)
REMARK    1  A    between atoms: C_1  and  C_2
REMARK    2  A    between atoms: C_2  and  C_3
REMARK    3  A    between atoms: C_3  and  C_4
REMARK    4  A    between atoms: C_4  and  O_5
REMARK    5  A    between atoms: O_5  and  C_6
REMARK    6  A    between atoms: C_9  and  C_10
REMARK                            x       y       z     vdW  Elec       q    Type
REMARK                         _______ _______ _______ _____ _____    ______ ____
ROOT
ATOM      1  C   UNL     1       2.359   3.982  17.879  0.00  0.00    +0.000 A 
ATOM      2  C   UNL     1       3.516   3.201  17.800  0.00  0.00    +0.000 A 
ATOM      3  C   UNL     1       4.775   3.788  17.818  0.00  0.00    +0.000 A 
ATOM      4  C   UNL     1       4.919   5.173  17.910  0.00  0.00    +0.000 A 
ATOM      5  C   UNL     1       3.756   5.958  18.002  0.00  0.00    +0.000 A 
ATOM      6  C   UNL     1       2.486   5.365  17.985  0.00  0.00    +0.000 A 
ENDROOT
BRANCH   4   7
ATOM      7  C   UNL     1       6.322   5.751  17.880  0.00  0.00    +0.000 C 
ATOM      8  C   UNL     1       7.397   4.679  18.049  0.00  0.00    +0.000 C 
ATOM      9  N   UNL     1       7.771   4.350  16.705  0.00  0.00    +0.000 N 
ATOM     10  C   UNL     1       7.386   5.315  15.798  0.00  0.00    +0.000 C 
ATOM     11  O   UNL     1       7.614   5.283  14.601  0.00  0.00    +0.000 OA
ATOM     12  C   UNL     1       6.679   6.417  16.546  0.00  0.00    +0.000 C 
ATOM     13  H   UNL     1       8.279   3.526  16.412  0.00  0.00    +0.000 HD
ENDBRANCH   4   7
BRANCH   1  14
ATOM     14  O   UNL     1       1.079   3.487  17.860  0.00  0.00    +0.000 OA
BRANCH  14  15
ATOM     15  C   UNL     1       0.747   2.685  18.995  0.00  0.00    +0.000 C 
BRANCH  15  16
ATOM     16  C   UNL     1       0.736   3.519  20.264  0.00  0.00    +0.000 C 
BRANCH  16  18
ATOM     17  C   UNL     1       2.849   2.715  21.372  0.00  0.00    +0.000 C 
ATOM     18  C   UNL     1       1.333   2.708  21.415  0.00  0.00    +0.000 C 
ENDBRANCH  16  18
ENDBRANCH  15  16
ENDBRANCH  14  15
ENDBRANCH   1  14
TORSDOF 5
ENDMDL
MODEL 5
REMARK VINA RESULT:      -6.9      2.547      6.102
REMARK  Name = 
REMARK  6 active torsions:
REMARK  status: ('A' for Active; 'I' for Inactive)
REMARK    1  A    between atoms: C_1  and  C_2
REMARK    2  A    between atoms: C_2  and  C_3
REMARK    3  A    between atoms: C_3  and  C_4
REMARK    4  A    between atoms: C_4  and  O_5
REMARK    5  A    between atoms: O_5  and  C_6
REMARK    6  A    between atoms: C_9  and  C_10
REMARK                            x       y       z     vdW  Elec       q    Type
REMARK                         _______ _______ _______ _____ _____    ______ ____
ROOT
ATOM      1  C   UNL     1       2.253   3.977  17.686  0.00  0.00    +0.000 A 
ATOM      2  C   UNL     1       3.263   3.133  17.216  0.00  0.00    +0.000 A 
ATOM      3  C   UNL     1       4.522   3.632  16.903  0.00  0.00    +0.000 A 
ATOM      4  C   UNL     1       4.809   4.991  17.046  0.00  0.00    +0.000 A 
ATOM      5  C   UNL     1       3.797   5.837  17.531  0.00  0.00    +0.000 A 
ATOM      6  C   UNL     1       2.528   5.333  17.847  0.00  0.00    +0.000 A 
ENDROOT
BRANCH   4   7
ATOM      7  C   UNL     1       6.191   5.476  16.644  0.00  0.00    +0.000 C 
ATOM      8  C   UNL     1       6.480   6.889  17.148  0.00  0.00    +0.000 C 
ATOM      9  N   UNL     1       7.184   6.679  18.379  0.00  0.00    +0.000 N 
ATOM     10  C   UNL     1       7.695   5.402  18.485  0.00  0.00    +0.000 C 
ATOM     11  O   UNL     1       8.356   4.988  19.421  0.00  0.00    +0.000 OA
ATOM     12  C   UNL     1       7.328   4.638  17.239  0.00  0.00    +0.000 C 
ATOM     13  H   UNL     1       7.331   7.366  19.106  0.00  0.00    +0.000 HD
ENDBRANCH   4   7
BRANCH   1  14
ATOM     14  O   UNL     1       0.983   3.570  18.010  0.00  0.00    +0.000 OA
BRANCH  14  15
ATOM     15  C   UNL     1       0.910   2.772  19.194  0.00  0.00    +0.000 C 
BRANCH  15  16
ATOM     16  C   UNL     1       0.832   3.645  20.434  0.00  0.00    +0.000 C 
BRANCH  16  18
ATOM     17  C   UNL     1       3.056   2.578  20.938  0.00  0.00    +0.000 C 
ATOM     18  C   UNL     1       1.747   3.075  21.519  0.00  0.00    +0.000 C 
ENDBRANCH  16  18
ENDBRANCH  15  16
ENDBRANCH  14  15
ENDBRANCH   1  14
TORSDOF 5
ENDMDL
MODEL 6
REMARK VINA RESULT:      -6.9      0.491      1.298
REMARK  Name = 
REMARK  6 active torsions:
REMARK  status: ('A' for Active; 'I' for Inactive)
REMARK    1  A    between atoms: C_1  and  C_2
REMARK    2  A    between atoms: C_2  and  C_3
REMARK    3  A    between atoms: C_3  and  C_4
REMARK    4  A    between atoms: C_4  and  O_5
REMARK    5  A    between atoms: O_5  and  C_6
REMARK    6  A    between atoms: C_9  and  C_10
REMARK                            x       y       z     vdW  Elec       q    Type
REMARK                         _______ _______ _______ _____ _____    ______ ____
ROOT
ATOM      1  C   UNL     1       5.096   5.329  17.215  0.00  0.00    +0.000 A 
ATOM      2  C   UNL     1       4.505   4.152  16.747  0.00  0.00    +0.000 A 
ATOM      3  C   UNL     1       3.286   3.716  17.251  0.00  0.00    +0.000 A 
ATOM      4  C   UNL     1       2.621   4.438  18.243  0.00  0.00    +0.000 A 
ATOM      5  C   UNL     1       3.208   5.629  18.705  0.00  0.00    +0.000 A 
ATOM      6  C   UNL     1       4.437   6.069  18.195  0.00  0.00    +0.000 A 
ENDROOT
BRANCH   4   7
ATOM      7  C   UNL     1       1.314   3.882  18.780  0.00  0.00    +0.000 C 
ATOM      8  C   UNL     1       1.268   2.356  18.731  0.00  0.00    +0.000 C 
ATOM      9  N   UNL     1       1.690   1.955  20.041  0.00  0.00    +0.000 N 
ATOM     10  C   UNL     1       1.600   2.978  20.961  0.00  0.00    +0.000 C 
ATOM     11  O   UNL     1       1.871   2.880  22.146  0.00  0.00    +0.000 OA
ATOM     12  C   UNL     1       1.077   4.205  20.260  0.00  0.00    +0.000 C 
ATOM     13  H   UNL     1       2.006   1.033  20.309  0.00  0.00    +0.000 HD
ENDBRANCH   4   7
BRANCH   1  14
ATOM     14  O   UNL     1       6.298   5.827  16.779  0.00  0.00    +0.000 OA
BRANCH  14  15
ATOM     15  C   UNL     1       7.089   6.425  17.808  0.00  0.00    +0.000 C 
BRANCH  15  16
ATOM     16  C   UNL     1       7.568   7.806  17.393  0.00  0.00    +0.000 C 
BRANCH  16  18
ATOM     17  C   UNL     1       8.719   9.867  18.267  0.00  0.00    +0.000 C 
ATOM     18  C   UNL     1       8.460   8.390  18.489  0.00  0.00    +0.000 C 
ENDBRANCH  16  18
ENDBRANCH  15  16
ENDBRANCH  14  15
ENDBRANCH   1  14
TORSDOF 5
ENDMDL
MODEL 7
REMARK VINA RESULT:      -6.9      2.481      5.955
REMARK  Name = 
REMARK  6 active torsions:
REMARK  status: ('A' for Active; 'I' for Inactive)
REMARK    1  A    between atoms: C_1  and  C_2
REMARK    2  A    between atoms: C_2  and  C_3
REMARK    3  A    between atoms: C_3  and  C_4
REMARK    4  A    between atoms: C_4  and  O_5
REMARK    5  A    between atoms: O_5  and  C_6
REMARK    6  A    between atoms: C_9  and  C_10
REMARK                            x       y       z     vdW  Elec       q    Type
REMARK                         _______ _______ _______ _____ _____    ______ ____
ROOT
ATOM      1  C   UNL     1       2.025   4.033  17.747  0.00  0.00    +0.000 A 
ATOM      2  C   UNL     1       2.337   5.379  17.960  0.00  0.00    +0.000 A 
ATOM      3  C   UNL     1       3.538   5.913  17.509  0.00  0.00    +0.000 A 
ATOM      4  C   UNL     1       4.467   5.119  16.837  0.00  0.00    +0.000 A 
ATOM      5  C   UNL     1       4.149   3.768  16.611  0.00  0.00    +0.000 A 
ATOM      6  C   UNL     1       2.937   3.230  17.065  0.00  0.00    +0.000 A 
ENDROOT
BRANCH   4   7
ATOM      7  C   UNL     1       5.778   5.756  16.411  0.00  0.00    +0.000 C 
ATOM      8  C   UNL     1       6.198   6.897  17.335  0.00  0.00    +0.000 C 
ATOM      9  N   UNL     1       7.090   6.275  18.268  0.00  0.00    +0.000 N 
ATOM     10  C   UNL     1       7.566   5.062  17.817  0.00  0.00    +0.000 C 
ATOM     11  O   UNL     1       8.360   4.355  18.413  0.00  0.00    +0.000 OA
ATOM     12  C   UNL     1       6.969   4.791  16.460  0.00  0.00    +0.000 C 
ATOM     13  H   UNL     1       7.381   6.656  19.159  0.00  0.00    +0.000 HD
ENDBRANCH   4   7
BRANCH   1  14
ATOM     14  O   UNL     1       0.868   3.423  18.164  0.00  0.00    +0.000 OA
BRANCH  14  15
ATOM     15  C   UNL     1       1.020   2.630  19.343  0.00  0.00    +0.000 C 
BRANCH  15  16
ATOM     16  C   UNL     1       0.986   3.498  20.590  0.00  0.00    +0.000 C 
BRANCH  16  18
ATOM     17  C   UNL     1       3.313   2.553  20.769  0.00  0.00    +0.000 C 
ATOM     18  C   UNL     1       2.115   3.081  21.534  0.00  0.00    +0.000 C 
ENDBRANCH  16  18
ENDBRANCH  15  16
ENDBRANCH  14  15
ENDBRANCH   1  14
TORSDOF 5
ENDMDL
MODEL 8
REMARK VINA RESULT:      -6.9      0.542      1.400
REMARK  Name = 
REMARK  6 active torsions:
REMARK  status: ('A' for Active; 'I' for Inactive)
REMARK    1  A    between atoms: C_1  and  C_2
REMARK    2  A    between atoms: C_2  and  C_3
REMARK    3  A    between atoms: C_3  and  C_4
REMARK    4  A    between atoms: C_4  and  O_5
REMARK    5  A    between atoms: O_5  and  C_6
REMARK    6  A    between atoms: C_9  and  C_10
REMARK                            x       y       z     vdW  Elec       q    Type
REMARK                         _______ _______ _______ _____ _____    ______ ____
ROOT
ATOM      1  C   UNL     1       4.722   5.224  16.735  0.00  0.00    +0.000 A 
ATOM      2  C   UNL     1       4.328   3.882  16.713  0.00  0.00    +0.000 A 
ATOM      3  C   UNL     1       3.189   3.462  17.389  0.00  0.00    +0.000 A 
ATOM      4  C   UNL     1       2.410   4.367  18.111  0.00  0.00    +0.000 A 
ATOM      5  C   UNL     1       2.797   5.718  18.122  0.00  0.00    +0.000 A 
ATOM      6  C   UNL     1       3.946   6.141  17.440  0.00  0.00    +0.000 A 
ENDROOT
BRANCH   4   7
ATOM      7  C   UNL     1       1.203   3.832  18.862  0.00  0.00    +0.000 C 
ATOM      8  C   UNL     1       1.216   2.309  18.976  0.00  0.00    +0.000 C 
ATOM      9  N   UNL     1       1.810   2.064  20.258  0.00  0.00    +0.000 N 
ATOM     10  C   UNL     1       1.788   3.178  21.072  0.00  0.00    +0.000 C 
ATOM     11  O   UNL     1       2.204   3.216  22.217  0.00  0.00    +0.000 OA
ATOM     12  C   UNL     1       1.132   4.306  20.318  0.00  0.00    +0.000 C 
ATOM     13  H   UNL     1       2.196   1.186  20.578  0.00  0.00    +0.000 HD
ENDBRANCH   4   7
BRANCH   1  14
ATOM     14  O   UNL     1       5.834   5.722  16.104  0.00  0.00    +0.000 OA
BRANCH  14  15
ATOM     15  C   UNL     1       7.071   5.282  16.668  0.00  0.00    +0.000 C 
BRANCH  15  16
ATOM     16  C   UNL     1       7.032   5.352  18.185  0.00  0.00    +0.000 C 
BRANCH  16  18
ATOM     17  C   UNL     1       7.766   7.723  17.762  0.00  0.00    +0.000 C 
ATOM     18  C   UNL     1       7.902   6.514  18.667  0.00  0.00    +0.000 C 
ENDBRANCH  16  18
ENDBRANCH  15  16
ENDBRANCH  14  15
ENDBRANCH   1  14
TORSDOF 5
ENDMDL
MODEL 9
REMARK VINA RESULT:      -6.8      2.473      6.197
REMARK  Name = 
REMARK  6 active torsions:
REMARK  status: ('A' for Active; 'I' for Inactive)
REMARK    1  A    between atoms: C_1  and  C_2
REMARK    2  A    between atoms: C_2  and  C_3
REMARK    3  A    between atoms: C_3  and  C_4
REMARK    4  A    between atoms: C_4  and  O_5
REMARK    5  A    between atoms: O_5  and  C_6
REMARK    6  A    between atoms: C_9  and  C_10
REMARK                            x       y       z     vdW  Elec       q    Type
REMARK                         _______ _______ _______ _____ _____    ______ ____
ROOT
ATOM      1  C   UNL     1       2.833   5.649  19.751  0.00  0.00    +0.000 A 
ATOM      2  C   UNL     1       2.551   6.485  18.667  0.00  0.00    +0.000 A 
ATOM      3  C   UNL     1       3.507   6.735  17.690  0.00  0.00    +0.000 A 
ATOM      4  C   UNL     1       4.777   6.162  17.768  0.00  0.00    +0.000 A 
ATOM      5  C   UNL     1       5.057   5.310  18.851  0.00  0.00    +0.000 A 
ATOM      6  C   UNL     1       4.092   5.058  19.835  0.00  0.00    +0.000 A 
ENDROOT
BRANCH   4   7
ATOM      7  C   UNL     1       5.788   6.513  16.691  0.00  0.00    +0.000 C 
ATOM      8  C   UNL     1       7.197   6.036  17.038  0.00  0.00    +0.000 C 
ATOM      9  N   UNL     1       7.305   4.768  16.377  0.00  0.00    +0.000 N 
ATOM     10  C   UNL     1       6.355   4.603  15.392  0.00  0.00    +0.000 C 
ATOM     11  O   UNL     1       6.257   3.626  14.669  0.00  0.00    +0.000 OA
ATOM     12  C   UNL     1       5.499   5.843  15.343  0.00  0.00    +0.000 C 
ATOM     13  H   UNL     1       7.996   4.055  16.567  0.00  0.00    +0.000 HD
ENDBRANCH   4   7
BRANCH   1  14
ATOM     14  O   UNL     1       1.953   5.354  20.762  0.00  0.00    +0.000 OA
BRANCH  14  15
ATOM     15  C   UNL     1       1.759   3.955  20.977  0.00  0.00    +0.000 C 
BRANCH  15  16
ATOM     16  C   UNL     1       0.891   3.353  19.886  0.00  0.00    +0.000 C 
BRANCH  16  18
ATOM     17  C   UNL     1       2.206   2.551  17.893  0.00  0.00    +0.000 C 
ATOM     18  C   UNL     1       1.623   2.174  19.242  0.00  0.00    +0.000 C 
ENDBRANCH  16  18
ENDBRANCH  15  16
ENDBRANCH  14  15
ENDBRANCH   1  14
TORSDOF 5
ENDMDL
