MODEL 1
REMARK VINA RESULT:      -8.8      0.000      0.000
REMARK  Name = 
REMARK  8 active torsions:
REMARK  status: ('A' for Active; 'I' for Inactive)
REMARK    1  A    between atoms: C_1  and  O_2
REMARK    2  A    between atoms: O_2  and  C_3
REMARK    3  A    between atoms: C_6  and  C_7
REMARK    4  A    between atoms: C_7  and  C_8
REMARK    5  A    between atoms: C_7  and  N_9
REMARK    6  A    between atoms: N_9  and  C_10
REMARK    7  A    between atoms: N_17  and  C_18
REMARK    8  A    between atoms: C_24  and  C_25
REMARK                            x       y       z     vdW  Elec       q    Type
REMARK                         _______ _______ _______ _____ _____    ______ ____
ROOT
ATOM      1  C   UNL     1       1.951   4.920  19.637  0.00  0.00    +0.000 A 
ATOM      2  N   UNL     1       1.073   4.602  20.600  0.00  0.00    +0.000 NA
ATOM      3  C   UNL     1       1.110   3.345  21.048  0.00  0.00    +0.000 A 
ATOM      4  N   UNL     1       2.051   2.457  20.721  0.00  0.00    +0.000 NA
ATOM      5  C   UNL     1       2.806   2.811  19.660  0.00  0.00    +0.000 A 
ATOM      6  C   UNL     1       2.546   3.918  18.894  0.00  0.00    +0.000 A 
ATOM      7  C   UNL     1       3.171   3.945  17.521  0.00  0.00    +0.000 C 
ATOM      8  N   UNL     1       4.633   3.716  17.570  0.00  0.00    +0.000 N 
ATOM      9  C   UNL     1       5.118   3.341  18.917  0.00  0.00    +0.000 C 
ATOM     10  C   UNL     1       4.206   2.246  19.523  0.00  0.00    +0.000 C 
ENDROOT
BRANCH   8  11
ATOM     11  C   UNL     1       5.492   4.035  16.518  0.00  0.00    +0.000 A 
ATOM     12  C   UNL     1       5.182   3.660  15.190  0.00  0.00    +0.000 A 
ATOM     13  C   UNL     1       5.942   4.074  14.081  0.00  0.00    +0.000 A 
ATOM     14  C   UNL     1       7.052   4.880  14.259  0.00  0.00    +0.000 A 
ATOM     15 CL   UNL     1       7.939   5.458  12.906  0.00  0.00    +0.000 Cl
ATOM     16  C   UNL     1       7.451   5.204  15.544  0.00  0.00    +0.000 A 
ATOM     17  C   UNL     1       6.710   4.753  16.660  0.00  0.00    +0.000 A 
BRANCH  17  18
ATOM     18  C   UNL     1       7.334   4.987  17.933  0.00  0.00    +0.000 C 
ATOM     19  N   UNL     1       7.822   5.202  18.965  0.00  0.00    +0.000 NA
ENDBRANCH  17  18
ENDBRANCH   8  11
BRANCH   1  20
ATOM     20  N   UNL     1       2.616   6.164  19.756  0.00  0.00    +0.000 N 
ATOM     21  H   UNL     1       2.631   6.372  20.755  0.00  0.00    +0.000 HD
BRANCH  20  22
ATOM     22  C   UNL     1       2.032   7.318  19.027  0.00  0.00    +0.000 C 
ATOM     23  C   UNL     1       3.101   7.713  17.998  0.00  0.00    +0.000 C 
BRANCH  22  27
ATOM     24  C   UNL     1       0.515  10.470  21.491  0.00  0.00    +0.000 A 
ATOM     25  N   UNL     1       0.570  10.691  20.171  0.00  0.00    +0.000 NA
ATOM     26  C   UNL     1       1.106   9.697  19.422  0.00  0.00    +0.000 A 
ATOM     27  C   UNL     1       1.597   8.490  19.906  0.00  0.00    +0.000 A 
ATOM     28  C   UNL     1       1.491   8.400  21.285  0.00  0.00    +0.000 A 
ATOM     29  N   UNL     1       0.974   9.361  22.089  0.00  0.00    +0.000 NA
BRANCH  24  31
ATOM     30  C   UNL     1      -1.193  10.914  23.046  0.00  0.00    +0.000 C 
ATOM     31  O   UNL     1      -0.058  11.397  22.334  0.00  0.00    +0.000 OA
ENDBRANCH  24  31
ENDBRANCH  22  27
ENDBRANCH  20  22
ENDBRANCH   1  20
TORSDOF 6
ENDMDL
MODEL 2
REMARK VINA RESULT:      -7.9      3.706      7.804
REMARK  Name = 
REMARK  8 active torsions:
REMARK  status: ('A' for Active; 'I' for Inactive)
REMARK    1  A    between atoms: C_1  and  O_2
REMARK    2  A    between atoms: O_2  and  C_3
REMARK    3  A    between atoms: C_6  and  C_7
REMARK    4  A    between atoms: C_7  and  C_8
REMARK    5  A    between atoms: C_7  and  N_9
REMARK    6  A    between atoms: N_9  and  C_10
REMARK    7  A    between atoms: N_17  and  C_18
REMARK    8  A    between atoms: C_24  and  C_25
REMARK                            x       y       z     vdW  Elec       q    Type
REMARK                         _______ _______ _______ _____ _____    ______ ____
ROOT
ATOM      1  C   UNL     1       4.588   4.686  19.596  0.00  0.00    +0.000 A 
ATOM      2  N   UNL     1       4.839   3.369  19.633  0.00  0.00    +0.000 NA
ATOM      3  C   UNL     1       3.833   2.562  19.290  0.00  0.00    +0.000 A 
ATOM      4  N   UNL     1       2.678   2.978  18.768  0.00  0.00    +0.000 NA
ATOM      5  C   UNL     1       2.459   4.305  18.888  0.00  0.00    +0.000 A 
ATOM      6  C   UNL     1       3.281   5.137  19.604  0.00  0.00    +0.000 A 
ATOM      7  C   UNL     1       2.696   6.464  20.018  0.00  0.00    +0.000 C 
ATOM      8  N   UNL     1       2.131   7.206  18.869  0.00  0.00    +0.000 N 
ATOM      9  C   UNL     1       2.107   6.413  17.619  0.00  0.00    +0.000 C 
ATOM     10  C   UNL     1       1.543   4.999  17.900  0.00  0.00    +0.000 C 
ENDROOT
BRANCH   8  11
ATOM     11  C   UNL     1       1.857   8.574  18.903  0.00  0.00    +0.000 A 
ATOM     12  C   UNL     1       2.448   9.454  17.968  0.00  0.00    +0.000 A 
ATOM     13  C   UNL     1       2.100  10.815  17.872  0.00  0.00    +0.000 A 
ATOM     14  C   UNL     1       1.146  11.350  18.718  0.00  0.00    +0.000 A 
ATOM     15 CL   UNL     1       0.655  12.988  18.557  0.00  0.00    +0.000 Cl
ATOM     16  C   UNL     1       0.600  10.554  19.710  0.00  0.00    +0.000 A 
ATOM     17  C   UNL     1       0.981   9.198  19.832  0.00  0.00    +0.000 A 
BRANCH  17  18
ATOM     18  C   UNL     1       0.498   8.539  21.013  0.00  0.00    +0.000 C 
ATOM     19  N   UNL     1       0.097   8.034  21.979  0.00  0.00    +0.000 NA
ENDBRANCH  17  18
ENDBRANCH   8  11
BRANCH   1  20
ATOM     20  N   UNL     1       5.589   5.517  19.036  0.00  0.00    +0.000 N 
ATOM     21  H   UNL     1       5.105   6.117  18.367  0.00  0.00    +0.000 HD
BRANCH  20  22
ATOM     22  C   UNL     1       6.725   4.847  18.355  0.00  0.00    +0.000 C 
ATOM     23  C   UNL     1       7.975   5.576  18.868  0.00  0.00    +0.000 C 
BRANCH  22  27
ATOM     24  C   UNL     1       6.702   4.512  14.089  0.00  0.00    +0.000 A 
ATOM     25  N   UNL     1       7.541   5.404  14.634  0.00  0.00    +0.000 NA
ATOM     26  C   UNL     1       7.486   5.528  15.982  0.00  0.00    +0.000 A 
ATOM     27  C   UNL     1       6.643   4.817  16.829  0.00  0.00    +0.000 A 
ATOM     28  C   UNL     1       5.823   3.943  16.135  0.00  0.00    +0.000 A 
ATOM     29  N   UNL     1       5.823   3.780  14.789  0.00  0.00    +0.000 NA
BRANCH  24  31
ATOM     30  C   UNL     1       5.948   3.145  12.331  0.00  0.00    +0.000 C 
ATOM     31  O   UNL     1       6.715   4.275  12.732  0.00  0.00    +0.000 OA
ENDBRANCH  24  31
ENDBRANCH  22  27
ENDBRANCH  20  22
ENDBRANCH   1  20
TORSDOF 6
ENDMDL
MODEL 3
REMARK VINA RESULT:      -7.6      1.498      1.924
REMARK  Name = 
REMARK  8 active torsions:
REMARK  status: ('A' for Active; 'I' for Inactive)
REMARK    1  A    between atoms: C_1  and  O_2
REMARK    2  A    between atoms: O_2  and  C_3
REMARK    3  A    between atoms: C_6  and  C_7
REMARK    4  A    between atoms: C_7  and  C_8
REMARK    5  A    between atoms: C_7  and  N_9
REMARK    6  A    between atoms: N_9  and  C_10
REMARK    7  A    between atoms: N_17  and  C_18
REMARK    8  A    between atoms: C_24  and  C_25
REMARK                            x       y       z     vdW  Elec       q    Type
REMARK                         _______ _______ _______ _____ _____    ______ ____
ROOT
ATOM      1  C   UNL     1       1.485   4.007  18.847  0.00  0.00    +0.000 A 
ATOM      2  N   UNL     1       0.663   3.638  19.841  0.00  0.00    +0.000 NA
ATOM      3  C   UNL     1       1.156   2.774  20.731  0.00  0.00    +0.000 A 
ATOM      4  N   UNL     1       2.434   2.394  20.783  0.00  0.00    +0.000 NA
ATOM      5  C   UNL     1       3.153   2.703  19.683  0.00  0.00    +0.000 A 
ATOM      6  C   UNL     1       2.592   3.235  18.550  0.00  0.00    +0.000 A 
ATOM      7  C   UNL     1       3.401   3.114  17.281  0.00  0.00    +0.000 C 
ATOM      8  N   UNL     1       4.773   3.644  17.444  0.00  0.00    +0.000 N 
ATOM      9  C   UNL     1       5.096   4.004  18.842  0.00  0.00    +0.000 C 
ATOM     10  C   UNL     1       4.655   2.869  19.798  0.00  0.00    +0.000 C 
ENDROOT
BRANCH   8  11
ATOM     11  C   UNL     1       5.596   3.977  16.367  0.00  0.00    +0.000 A 
ATOM     12  C   UNL     1       5.192   3.714  15.038  0.00  0.00    +0.000 A 
ATOM     13  C   UNL     1       5.919   4.152  13.916  0.00  0.00    +0.000 A 
ATOM     14  C   UNL     1       7.090   4.869  14.083  0.00  0.00    +0.000 A 
ATOM     15 CL   UNL     1       7.943   5.479  12.722  0.00  0.00    +0.000 Cl
ATOM     16  C   UNL     1       7.578   5.078  15.361  0.00  0.00    +0.000 A 
ATOM     17  C   UNL     1       6.867   4.601  16.486  0.00  0.00    +0.000 A 
BRANCH  17  18
ATOM     18  C   UNL     1       7.572   4.705  17.733  0.00  0.00    +0.000 C 
ATOM     19  N   UNL     1       8.169   4.788  18.727  0.00  0.00    +0.000 NA
ENDBRANCH  17  18
ENDBRANCH   8  11
BRANCH   1  20
ATOM     20  N   UNL     1       1.501   5.380  18.501  0.00  0.00    +0.000 N 
ATOM     21  H   UNL     1       1.820   5.414  17.532  0.00  0.00    +0.000 HD
BRANCH  20  22
ATOM     22  C   UNL     1       2.351   6.276  19.324  0.00  0.00    +0.000 C 
ATOM     23  C   UNL     1       2.077   5.854  20.775  0.00  0.00    +0.000 C 
BRANCH  22  27
ATOM     24  C   UNL     1       1.442  10.391  18.581  0.00  0.00    +0.000 A 
ATOM     25  N   UNL     1       2.082   9.717  17.616  0.00  0.00    +0.000 NA
ATOM     26  C   UNL     1       2.406   8.431  17.901  0.00  0.00    +0.000 A 
ATOM     27  C   UNL     1       2.134   7.772  19.094  0.00  0.00    +0.000 A 
ATOM     28  C   UNL     1       1.483   8.588  20.005  0.00  0.00    +0.000 A 
ATOM     29  N   UNL     1       1.140   9.881  19.784  0.00  0.00    +0.000 NA
BRANCH  24  31
ATOM     30  C   UNL     1       2.084  12.634  18.290  0.00  0.00    +0.000 C 
ATOM     31  O   UNL     1       1.024  11.686  18.371  0.00  0.00    +0.000 OA
ENDBRANCH  24  31
ENDBRANCH  22  27
ENDBRANCH  20  22
ENDBRANCH   1  20
TORSDOF 6
ENDMDL
MODEL 4
REMARK VINA RESULT:      -7.5      3.866      7.836
REMARK  Name = 
REMARK  8 active torsions:
REMARK  status: ('A' for Active; 'I' for Inactive)
REMARK    1  A    between atoms: C_1  and  O_2
REMARK    2  A    between atoms: O_2  and  C_3
REMARK    3  A    between atoms: C_6  and  C_7
REMARK    4  A    between atoms: C_7  and  C_8
REMARK    5  A    between atoms: C_7  and  N_9
REMARK    6  A    between atoms: N_9  and  C_10
REMARK    7  A    between atoms: N_17  and  C_18
REMARK    8  A    between atoms: C_24  and  C_25
REMARK                            x       y       z     vdW  Elec       q    Type
REMARK                         _______ _______ _______ _____ _____    ______ ____
ROOT
ATOM      1  C   UNL     1       4.651   4.121  19.777  0.00  0.00    +0.000 A 
ATOM      2  N   UNL     1       5.115   2.881  19.558  0.00  0.00    +0.000 NA
ATOM      3  C   UNL     1       4.205   1.946  19.276  0.00  0.00    +0.000 A 
ATOM      4  N   UNL     1       2.915   2.198  19.044  0.00  0.00    +0.000 NA
ATOM      5  C   UNL     1       2.513   3.432  19.411  0.00  0.00    +0.000 A 
ATOM      6  C   UNL     1       3.318   4.309  20.092  0.00  0.00    +0.000 A 
ATOM      7  C   UNL     1       2.624   5.439  20.811  0.00  0.00    +0.000 C 
ATOM      8  N   UNL     1       1.722   6.197  19.916  0.00  0.00    +0.000 N 
ATOM      9  C   UNL     1       1.571   5.577  18.580  0.00  0.00    +0.000 C 
ATOM     10  C   UNL     1       1.313   4.058  18.727  0.00  0.00    +0.000 C 
ENDROOT
BRANCH   8  11
ATOM     11  C   UNL     1       1.242   7.473  20.217  0.00  0.00    +0.000 A 
ATOM     12  C   UNL     1       0.368   7.679  21.308  0.00  0.00    +0.000 A 
ATOM     13  C   UNL     1      -0.034   8.958  21.736  0.00  0.00    +0.000 A 
ATOM     14  C   UNL     1       0.422  10.086  21.079  0.00  0.00    +0.000 A 
ATOM     15 CL   UNL     1       0.004  11.655  21.642  0.00  0.00    +0.000 Cl
ATOM     16  C   UNL     1       1.209   9.938  19.950  0.00  0.00    +0.000 A 
ATOM     17  C   UNL     1       1.578   8.651  19.497  0.00  0.00    +0.000 A 
BRANCH  17  18
ATOM     18  C   UNL     1       2.223   8.625  18.214  0.00  0.00    +0.000 C 
ATOM     19  N   UNL     1       2.724   8.625  17.166  0.00  0.00    +0.000 NA
ENDBRANCH  17  18
ENDBRANCH   8  11
BRANCH   1  20
ATOM     20  N   UNL     1       5.367   5.190  19.187  0.00  0.00    +0.000 N 
ATOM     21  H   UNL     1       4.733   5.599  18.501  0.00  0.00    +0.000 HD
BRANCH  20  22
ATOM     22  C   UNL     1       6.654   4.861  18.524  0.00  0.00    +0.000 C 
ATOM     23  C   UNL     1       7.647   5.906  19.054  0.00  0.00    +0.000 C 
BRANCH  22  27
ATOM     24  C   UNL     1       6.766   4.514  14.261  0.00  0.00    +0.000 A 
ATOM     25  N   UNL     1       7.429   5.538  14.814  0.00  0.00    +0.000 NA
ATOM     26  C   UNL     1       7.330   5.655  16.161  0.00  0.00    +0.000 A 
ATOM     27  C   UNL     1       6.607   4.813  16.997  0.00  0.00    +0.000 A 
ATOM     28  C   UNL     1       5.960   3.809  16.294  0.00  0.00    +0.000 A 
ATOM     29  N   UNL     1       6.013   3.644  14.950  0.00  0.00    +0.000 NA
BRANCH  24  31
ATOM     30  C   UNL     1       5.845   3.393  12.410  0.00  0.00    +0.000 C 
ATOM     31  O   UNL     1       6.844   4.279  12.906  0.00  0.00    +0.000 OA
ENDBRANCH  24  31
ENDBRANCH  22  27
ENDBRANCH  20  22
ENDBRANCH   1  20
TORSDOF 6
ENDMDL
MODEL 5
REMARK VINA RESULT:      -7.4      4.262      7.529
REMARK  Name = 
REMARK  8 active torsions:
REMARK  status: ('A' for Active; 'I' for Inactive)
REMARK    1  A    between atoms: C_1  and  O_2
REMARK    2  A    between atoms: O_2  and  C_3
REMARK    3  A    between atoms: C_6  and  C_7
REMARK    4  A    between atoms: C_7  and  C_8
REMARK    5  A    between atoms: C_7  and  N_9
REMARK    6  A    between atoms: N_9  and  C_10
REMARK    7  A    between atoms: N_17  and  C_18
REMARK    8  A    between atoms: C_24  and  C_25
REMARK                            x       y       z     vdW  Elec       q    Type
REMARK                         _______ _______ _______ _____ _____    ______ ____
ROOT
ATOM      1  C   UNL     1       0.093  12.247  21.031  0.00  0.00    +0.000 A 
ATOM      2  N   UNL     1      -0.573  13.187  21.718  0.00  0.00    +0.000 NA
ATOM      3  C   UNL     1      -1.233  12.775  22.802  0.00  0.00    +0.000 A 
ATOM      4  N   UNL     1      -1.138  11.550  23.322  0.00  0.00    +0.000 NA
ATOM      5  C   UNL     1      -0.562  10.642  22.506  0.00  0.00    +0.000 A 
ATOM      6  C   UNL     1      -0.228  10.913  21.203  0.00  0.00    +0.000 A 
ATOM      7  C   UNL     1      -0.017   9.722  20.303  0.00  0.00    +0.000 C 
ATOM      8  N   UNL     1       0.959   8.763  20.869  0.00  0.00    +0.000 N 
ATOM      9  C   UNL     1       1.368   9.096  22.251  0.00  0.00    +0.000 C 
ATOM     10  C   UNL     1       0.121   9.430  23.107  0.00  0.00    +0.000 C 
ENDROOT
BRANCH   8  11
ATOM     11  C   UNL     1       1.594   7.780  20.108  0.00  0.00    +0.000 A 
ATOM     12  C   UNL     1       1.799   6.482  20.627  0.00  0.00    +0.000 A 
ATOM     13  C   UNL     1       2.308   5.420  19.856  0.00  0.00    +0.000 A 
ATOM     14  C   UNL     1       2.639   5.622  18.528  0.00  0.00    +0.000 A 
ATOM     15 CL   UNL     1       3.184   4.315  17.555  0.00  0.00    +0.000 Cl
ATOM     16  C   UNL     1       2.541   6.895  17.993  0.00  0.00    +0.000 A 
ATOM     17  C   UNL     1       2.068   7.969  18.781  0.00  0.00    +0.000 A 
BRANCH  17  18
ATOM     18  C   UNL     1       2.201   9.265  18.177  0.00  0.00    +0.000 C 
ATOM     19  N   UNL     1       2.278  10.313  17.682  0.00  0.00    +0.000 NA
ENDBRANCH  17  18
ENDBRANCH   8  11
BRANCH   1  20
ATOM     20  N   UNL     1       1.393  12.579  20.578  0.00  0.00    +0.000 N 
ATOM     21  H   UNL     1       1.958  12.685  21.422  0.00  0.00    +0.000 HD
BRANCH  20  22
ATOM     22  C   UNL     1       1.530  13.800  19.745  0.00  0.00    +0.000 C 
ATOM     23  C   UNL     1       0.753  13.486  18.459  0.00  0.00    +0.000 C 
BRANCH  22  27
ATOM     24  C   UNL     1       5.434  15.339  18.909  0.00  0.00    +0.000 A 
ATOM     25  N   UNL     1       4.812  14.672  17.929  0.00  0.00    +0.000 NA
ATOM     26  C   UNL     1       3.600  14.148  18.240  0.00  0.00    +0.000 A 
ATOM     27  C   UNL     1       2.967  14.245  19.473  0.00  0.00    +0.000 A 
ATOM     28  C   UNL     1       3.726  14.947  20.396  0.00  0.00    +0.000 A 
ATOM     29  N   UNL     1       4.945  15.487  20.149  0.00  0.00    +0.000 NA
BRANCH  24  31
ATOM     30  C   UNL     1       7.524  15.210  17.838  0.00  0.00    +0.000 C 
ATOM     31  O   UNL     1       6.646  15.952  18.679  0.00  0.00    +0.000 OA
ENDBRANCH  24  31
ENDBRANCH  22  27
ENDBRANCH  20  22
ENDBRANCH   1  20
TORSDOF 6
ENDMDL
MODEL 6
REMARK VINA RESULT:      -7.4      4.227      7.476
REMARK  Name = 
REMARK  8 active torsions:
REMARK  status: ('A' for Active; 'I' for Inactive)
REMARK    1  A    between atoms: C_1  and  O_2
REMARK    2  A    between atoms: O_2  and  C_3
REMARK    3  A    between atoms: C_6  and  C_7
REMARK    4  A    between atoms: C_7  and  C_8
REMARK    5  A    between atoms: C_7  and  N_9
REMARK    6  A    between atoms: N_9  and  C_10
REMARK    7  A    between atoms: N_17  and  C_18
REMARK    8  A    between atoms: C_24  and  C_25
REMARK                            x       y       z     vdW  Elec       q    Type
REMARK                         _______ _______ _______ _____ _____    ______ ____
ROOT
ATOM      1  C   UNL     1      -0.404  12.126  20.981  0.00  0.00    +0.000 A 
ATOM      2  N   UNL     1      -1.122  13.010  21.690  0.00  0.00    +0.000 NA
ATOM      3  C   UNL     1      -1.619  12.579  22.852  0.00  0.00    +0.000 A 
ATOM      4  N   UNL     1      -1.314  11.407  23.411  0.00  0.00    +0.000 NA
ATOM      5  C   UNL     1      -0.701  10.536  22.582  0.00  0.00    +0.000 A 
ATOM      6  C   UNL     1      -0.529  10.775  21.243  0.00  0.00    +0.000 A 
ATOM      7  C   UNL     1      -0.246   9.571  20.377  0.00  0.00    +0.000 C 
ATOM      8  N   UNL     1       0.896   8.778  20.884  0.00  0.00    +0.000 N 
ATOM      9  C   UNL     1       1.384   9.236  22.204  0.00  0.00    +0.000 C 
ATOM     10  C   UNL     1       0.189   9.456  23.164  0.00  0.00    +0.000 C 
ENDROOT
BRANCH   8  11
ATOM     11  C   UNL     1       1.582   7.843  20.107  0.00  0.00    +0.000 A 
ATOM     12  C   UNL     1       1.861   6.551  20.607  0.00  0.00    +0.000 A 
ATOM     13  C   UNL     1       2.426   5.531  19.819  0.00  0.00    +0.000 A 
ATOM     14  C   UNL     1       2.739   5.769  18.493  0.00  0.00    +0.000 A 
ATOM     15 CL   UNL     1       3.352   4.509  17.499  0.00  0.00    +0.000 Cl
ATOM     16  C   UNL     1       2.568   7.043  17.977  0.00  0.00    +0.000 A 
ATOM     17  C   UNL     1       2.040   8.077  18.782  0.00  0.00    +0.000 A 
BRANCH  17  18
ATOM     18  C   UNL     1       2.098   9.387  18.196  0.00  0.00    +0.000 C 
ATOM     19  N   UNL     1       2.176  10.444  17.722  0.00  0.00    +0.000 NA
ENDBRANCH  17  18
ENDBRANCH   8  11
BRANCH   1  20
ATOM     20  N   UNL     1       0.793  12.596  20.388  0.00  0.00    +0.000 N 
ATOM     21  H   UNL     1       1.424  12.794  21.166  0.00  0.00    +0.000 HD
BRANCH  20  22
ATOM     22  C   UNL     1       0.695  13.798  19.522  0.00  0.00    +0.000 C 
ATOM     23  C   UNL     1      -0.057  13.319  18.272  0.00  0.00    +0.000 C 
BRANCH  22  27
ATOM     24  C   UNL     1       4.561  15.487  18.811  0.00  0.00    +0.000 A 
ATOM     25  N   UNL     1       3.752  16.135  19.659  0.00  0.00    +0.000 NA
ATOM     26  C   UNL     1       2.514  15.607  19.822  0.00  0.00    +0.000 A 
ATOM     27  C   UNL     1       2.026  14.470  19.189  0.00  0.00    +0.000 A 
ATOM     28  C   UNL     1       2.960  13.910  18.331  0.00  0.00    +0.000 A 
ATOM     29  N   UNL     1       4.208  14.393  18.119  0.00  0.00    +0.000 NA
BRANCH  24  31
ATOM     30  C   UNL     1       6.139  17.193  19.172  0.00  0.00    +0.000 C 
ATOM     31  O   UNL     1       5.856  15.913  18.614  0.00  0.00    +0.000 OA
ENDBRANCH  24  31
ENDBRANCH  22  27
ENDBRANCH  20  22
ENDBRANCH   1  20
TORSDOF 6
ENDMDL
MODEL 7
REMARK VINA RESULT:      -7.3      1.703      1.732
REMARK  Name = 
REMARK  8 active torsions:
REMARK  status: ('A' for Active; 'I' for Inactive)
REMARK    1  A    between atoms: C_1  and  O_2
REMARK    2  A    between atoms: O_2  and  C_3
REMARK    3  A    between atoms: C_6  and  C_7
REMARK    4  A    between atoms: C_7  and  C_8
REMARK    5  A    between atoms: C_7  and  N_9
REMARK    6  A    between atoms: N_9  and  C_10
REMARK    7  A    between atoms: N_17  and  C_18
REMARK    8  A    between atoms: C_24  and  C_25
REMARK                            x       y       z     vdW  Elec       q    Type
REMARK                         _______ _______ _______ _____ _____    ______ ____
ROOT
ATOM      1  C   UNL     1       2.139   5.541  19.355  0.00  0.00    +0.000 A 
ATOM      2  N   UNL     1       1.314   5.334  20.391  0.00  0.00    +0.000 NA
ATOM      3  C   UNL     1       1.474   4.190  21.061  0.00  0.00    +0.000 A 
ATOM      4  N   UNL     1       2.486   3.342  20.870  0.00  0.00    +0.000 NA
ATOM      5  C   UNL     1       3.185   3.555  19.735  0.00  0.00    +0.000 A 
ATOM      6  C   UNL     1       2.810   4.473  18.787  0.00  0.00    +0.000 A 
ATOM      7  C   UNL     1       3.402   4.297  17.411  0.00  0.00    +0.000 C 
ATOM      8  N   UNL     1       4.879   4.209  17.449  0.00  0.00    +0.000 N 
ATOM      9  C   UNL     1       5.423   4.135  18.823  0.00  0.00    +0.000 C 
ATOM     10  C   UNL     1       4.628   3.098  19.653  0.00  0.00    +0.000 C 
ENDROOT
BRANCH   8  11
ATOM     11  C   UNL     1       5.685   4.399  16.325  0.00  0.00    +0.000 A 
ATOM     12  C   UNL     1       5.517   3.601  15.171  0.00  0.00    +0.000 A 
ATOM     13  C   UNL     1       6.207   3.841  13.968  0.00  0.00    +0.000 A 
ATOM     14  C   UNL     1       7.102   4.892  13.877  0.00  0.00    +0.000 A 
ATOM     15 CL   UNL     1       7.888   5.244  12.390  0.00  0.00    +0.000 Cl
ATOM     16  C   UNL     1       7.370   5.650  15.003  0.00  0.00    +0.000 A 
ATOM     17  C   UNL     1       6.707   5.381  16.222  0.00  0.00    +0.000 A 
BRANCH  17  18
ATOM     18  C   UNL     1       7.214   6.102  17.356  0.00  0.00    +0.000 C 
ATOM     19  N   UNL     1       7.621   6.659  18.291  0.00  0.00    +0.000 NA
ENDBRANCH  17  18
ENDBRANCH   8  11
BRANCH   1  20
ATOM     20  N   UNL     1       2.690   6.838  19.218  0.00  0.00    +0.000 N 
ATOM     21  H   UNL     1       2.302   7.382  19.990  0.00  0.00    +0.000 HD
BRANCH  20  22
ATOM     22  C   UNL     1       2.435   7.552  17.942  0.00  0.00    +0.000 C 
ATOM     23  C   UNL     1       3.820   7.710  17.298  0.00  0.00    +0.000 C 
BRANCH  22  27
ATOM     24  C   UNL     1       0.351  11.223  18.642  0.00  0.00    +0.000 A 
ATOM     25  N   UNL     1      -0.382  10.152  18.307  0.00  0.00    +0.000 NA
ATOM     26  C   UNL     1       0.310   9.017  18.038  0.00  0.00    +0.000 A 
ATOM     27  C   UNL     1       1.693   8.881  18.077  0.00  0.00    +0.000 A 
ATOM     28  C   UNL     1       2.324  10.066  18.422  0.00  0.00    +0.000 A 
ATOM     29  N   UNL     1       1.691  11.233  18.695  0.00  0.00    +0.000 NA
BRANCH  24  31
ATOM     30  C   UNL     1      -1.600  12.264  19.442  0.00  0.00    +0.000 C 
ATOM     31  O   UNL     1      -0.260  12.410  18.983  0.00  0.00    +0.000 OA
ENDBRANCH  24  31
ENDBRANCH  22  27
ENDBRANCH  20  22
ENDBRANCH   1  20
TORSDOF 6
ENDMDL
MODEL 8
REMARK VINA RESULT:      -7.0      4.876     10.937
REMARK  Name = 
REMARK  8 active torsions:
REMARK  status: ('A' for Active; 'I' for Inactive)
REMARK    1  A    between atoms: C_1  and  O_2
REMARK    2  A    between atoms: O_2  and  C_3
REMARK    3  A    between atoms: C_6  and  C_7
REMARK    4  A    between atoms: C_7  and  C_8
REMARK    5  A    between atoms: C_7  and  N_9
REMARK    6  A    between atoms: N_9  and  C_10
REMARK    7  A    between atoms: N_17  and  C_18
REMARK    8  A    between atoms: C_24  and  C_25
REMARK                            x       y       z     vdW  Elec       q    Type
REMARK                         _______ _______ _______ _____ _____    ______ ____
ROOT
ATOM      1  C   UNL     1       1.383  12.776  18.791  0.00  0.00    +0.000 A 
ATOM      2  N   UNL     1       2.444  13.043  18.015  0.00  0.00    +0.000 NA
ATOM      3  C   UNL     1       2.996  14.250  18.156  0.00  0.00    +0.000 A 
ATOM      4  N   UNL     1       2.668  15.121  19.112  0.00  0.00    +0.000 NA
ATOM      5  C   UNL     1       1.517  14.833  19.756  0.00  0.00    +0.000 A 
ATOM      6  C   UNL     1       0.682  13.814  19.375  0.00  0.00    +0.000 A 
ATOM      7  C   UNL     1      -0.738  13.886  19.880  0.00  0.00    +0.000 C 
ATOM      8  N   UNL     1      -0.797  14.043  21.351  0.00  0.00    +0.000 N 
ATOM      9  C   UNL     1       0.529  14.269  21.966  0.00  0.00    +0.000 C 
ATOM     10  C   UNL     1       1.307  15.343  21.168  0.00  0.00    +0.000 C 
ENDROOT
BRANCH   8  11
ATOM     11  C   UNL     1      -1.946  13.784  22.101  0.00  0.00    +0.000 A 
ATOM     12  C   UNL     1      -2.960  14.759  22.233  0.00  0.00    +0.000 A 
ATOM     13  C   UNL     1      -4.193  14.502  22.861  0.00  0.00    +0.000 A 
ATOM     14  C   UNL     1      -4.456  13.251  23.389  0.00  0.00    +0.000 A 
ATOM     15 CL   UNL     1      -5.988  12.900  24.084  0.00  0.00    +0.000 Cl
ATOM     16  C   UNL     1      -3.464  12.285  23.365  0.00  0.00    +0.000 A 
ATOM     17  C   UNL     1      -2.212  12.559  22.771  0.00  0.00    +0.000 A 
BRANCH  17  18
ATOM     18  C   UNL     1      -1.209  11.553  22.987  0.00  0.00    +0.000 C 
ATOM     19  N   UNL     1      -0.415  10.720  23.143  0.00  0.00    +0.000 NA
ENDBRANCH  17  18
ENDBRANCH   8  11
BRANCH   1  20
ATOM     20  N   UNL     1       1.333  11.498  19.397  0.00  0.00    +0.000 N 
ATOM     21  H   UNL     1       2.300  11.265  19.626  0.00  0.00    +0.000 HD
BRANCH  20  22
ATOM     22  C   UNL     1       0.743  10.392  18.600  0.00  0.00    +0.000 C 
ATOM     23  C   UNL     1      -0.734  10.354  19.017  0.00  0.00    +0.000 C 
BRANCH  22  27
ATOM     24  C   UNL     1       2.933   6.759  19.160  0.00  0.00    +0.000 A 
ATOM     25  N   UNL     1       2.990   7.334  17.951  0.00  0.00    +0.000 NA
ATOM     26  C   UNL     1       2.243   8.453  17.787  0.00  0.00    +0.000 A 
ATOM     27  C   UNL     1       1.434   9.038  18.754  0.00  0.00    +0.000 A 
ATOM     28  C   UNL     1       1.457   8.335  19.948  0.00  0.00    +0.000 A 
ATOM     29  N   UNL     1       2.176   7.207  20.172  0.00  0.00    +0.000 NA
BRANCH  24  31
ATOM     30  C   UNL     1       3.326   4.485  18.706  0.00  0.00    +0.000 C 
ATOM     31  O   UNL     1       3.694   5.647  19.444  0.00  0.00    +0.000 OA
ENDBRANCH  24  31
ENDBRANCH  22  27
ENDBRANCH  20  22
ENDBRANCH   1  20
TORSDOF 6
ENDMDL
MODEL 9
REMARK VINA RESULT:      -7.0      5.086      8.805
REMARK  Name = 
REMARK  8 active torsions:
REMARK  status: ('A' for Active; 'I' for Inactive)
REMARK    1  A    between atoms: C_1  and  O_2
REMARK    2  A    between atoms: O_2  and  C_3
REMARK    3  A    between atoms: C_6  and  C_7
REMARK    4  A    between atoms: C_7  and  C_8
REMARK    5  A    between atoms: C_7  and  N_9
REMARK    6  A    between atoms: N_9  and  C_10
REMARK    7  A    between atoms: N_17  and  C_18
REMARK    8  A    between atoms: C_24  and  C_25
REMARK                            x       y       z     vdW  Elec       q    Type
REMARK                         _______ _______ _______ _____ _____    ______ ____
ROOT
ATOM      1  C   UNL     1       0.213  14.720  18.606  0.00  0.00    +0.000 A 
ATOM      2  N   UNL     1      -0.347  15.915  18.842  0.00  0.00    +0.000 NA
ATOM      3  C   UNL     1      -1.166  15.992  19.893  0.00  0.00    +0.000 A 
ATOM      4  N   UNL     1      -1.327  15.021  20.794  0.00  0.00    +0.000 NA
ATOM      5  C   UNL     1      -0.837  13.822  20.415  0.00  0.00    +0.000 A 
ATOM      6  C   UNL     1      -0.342  13.580  19.159  0.00  0.00    +0.000 A 
ATOM      7  C   UNL     1      -0.250  12.134  18.741  0.00  0.00    +0.000 C 
ATOM      8  N   UNL     1       0.493  11.316  19.726  0.00  0.00    +0.000 N 
ATOM      9  C   UNL     1       0.821  12.054  20.966  0.00  0.00    +0.000 C 
ATOM     10  C   UNL     1      -0.427  12.818  21.473  0.00  0.00    +0.000 C 
ENDROOT
BRANCH   8  11
ATOM     11  C   UNL     1       1.023  10.059  19.431  0.00  0.00    +0.000 A 
ATOM     12  C   UNL     1       1.596   9.793  18.166  0.00  0.00    +0.000 A 
ATOM     13  C   UNL     1       2.263   8.592  17.865  0.00  0.00    +0.000 A 
ATOM     14  C   UNL     1       2.379   7.602  18.824  0.00  0.00    +0.000 A 
ATOM     15 CL   UNL     1       3.262   6.165  18.496  0.00  0.00    +0.000 Cl
ATOM     16  C   UNL     1       1.760   7.774  20.051  0.00  0.00    +0.000 A 
ATOM     17  C   UNL     1       1.054   8.965  20.336  0.00  0.00    +0.000 A 
BRANCH  17  18
ATOM     18  C   UNL     1       0.297   8.939  21.556  0.00  0.00    +0.000 C 
ATOM     19  N   UNL     1      -0.295   8.899  22.555  0.00  0.00    +0.000 NA
ENDBRANCH  17  18
ENDBRANCH   8  11
BRANCH   1  20
ATOM     20  N   UNL     1       1.587  14.708  18.264  0.00  0.00    +0.000 N 
ATOM     21  H   UNL     1       1.941  13.805  18.582  0.00  0.00    +0.000 HD
BRANCH  20  22
ATOM     22  C   UNL     1       2.436  15.788  18.827  0.00  0.00    +0.000 C 
ATOM     23  C   UNL     1       3.445  16.112  17.717  0.00  0.00    +0.000 C 
BRANCH  22  27
ATOM     24  C   UNL     1       4.257  14.555  22.497  0.00  0.00    +0.000 A 
ATOM     25  N   UNL     1       2.981  14.957  22.547  0.00  0.00    +0.000 NA
ATOM     26  C   UNL     1       2.447  15.395  21.380  0.00  0.00    +0.000 A 
ATOM     27  C   UNL     1       3.109  15.460  20.160  0.00  0.00    +0.000 A 
ATOM     28  C   UNL     1       4.422  15.028  20.254  0.00  0.00    +0.000 A 
ATOM     29  N   UNL     1       5.015  14.588  21.391  0.00  0.00    +0.000 NA
BRANCH  24  31
ATOM     30  C   UNL     1       5.889  13.085  23.338  0.00  0.00    +0.000 C 
ATOM     31  O   UNL     1       4.876  14.046  23.618  0.00  0.00    +0.000 OA
ENDBRANCH  24  31
ENDBRANCH  22  27
ENDBRANCH  20  22
ENDBRANCH   1  20
TORSDOF 6
ENDMDL
