MODEL 1
REMARK VINA RESULT:      -8.2      0.000      0.000
REMARK  Name = 
REMARK  2 active torsions:
REMARK  status: ('A' for Active; 'I' for Inactive)
REMARK    1  A    between atoms: C_1  and  C_2
REMARK    2  A    between atoms: C_9  and  C_10
REMARK                            x       y       z     vdW  Elec       q    Type
REMARK                         _______ _______ _______ _____ _____    ______ ____
ROOT
ATOM      1  C   UNL     1       1.407   8.090  21.108  0.00  0.00    +0.000 C 
ATOM      2  C   UNL     1       1.781   6.840  20.366  0.00  0.00    +0.000 A 
ATOM      3  C   UNL     1       1.429   5.562  20.829  0.00  0.00    +0.000 A 
ATOM      4  C   UNL     1       1.964   4.415  20.234  0.00  0.00    +0.000 A 
ATOM      5  C   UNL     1       2.821   4.549  19.143  0.00  0.00    +0.000 A 
ATOM      6  C   UNL     1       3.485   3.382  18.537  0.00  0.00    +0.000 A 
ATOM      7  O   UNL     1       3.276   2.239  18.922  0.00  0.00    +0.000 OA
ATOM      8  C   UNL     1       4.442   3.661  17.453  0.00  0.00    +0.000 A 
ATOM      9  C   UNL     1       4.591   4.928  17.035  0.00  0.00    +0.000 A 
ATOM     10  O   UNL     1       3.915   6.014  17.550  0.00  0.00    +0.000 OA
ATOM     11  C   UNL     1       3.103   5.810  18.629  0.00  0.00    +0.000 A 
ATOM     12  C   UNL     1       2.587   6.954  19.233  0.00  0.00    +0.000 A 
ENDROOT
BRANCH   9  13
ATOM     13  C   UNL     1       5.575   5.217  15.938  0.00  0.00    +0.000 C 
ATOM     14  O   UNL     1       6.267   6.221  15.948  0.00  0.00    +0.000 OA
ATOM     15  N   UNL     1       5.552   4.218  14.981  0.00  0.00    +0.000 N 
ATOM     16  C   UNL     1       6.321   4.283  13.849  0.00  0.00    +0.000 A 
ATOM     17  N   UNL     1       7.187   5.192  13.459  0.00  0.00    +0.000 NA
ATOM     18  N   UNL     1       7.670   4.772  12.242  0.00  0.00    +0.000 NA
ATOM     19  N   UNL     1       7.120   3.624  11.883  0.00  0.00    +0.000 NA
ATOM     20  N   UNL     1       6.278   3.321  12.877  0.00  0.00    +0.000 N 
ATOM     21  H   UNL     1       4.920   3.442  15.117  0.00  0.00    +0.000 HD
ATOM     22  H   UNL     1       5.733   2.474  12.826  0.00  0.00    +0.000 HD
ENDBRANCH   9  13
TORSDOF 1
ENDMDL
MODEL 2
REMARK VINA RESULT:      -8.0      1.297      2.570
REMARK  Name = 
REMARK  2 active torsions:
REMARK  status: ('A' for Active; 'I' for Inactive)
REMARK    1  A    between atoms: C_1  and  C_2
REMARK    2  A    between atoms: C_9  and  C_10
REMARK                            x       y       z     vdW  Elec       q    Type
REMARK                         _______ _______ _______ _____ _____    ______ ____
ROOT
ATOM      1  C   UNL     1       2.136   2.528  21.478  0.00  0.00    +0.000 C 
ATOM      2  C   UNL     1       2.415   3.848  20.820  0.00  0.00    +0.000 A 
ATOM      3  C   UNL     1       1.605   4.975  21.031  0.00  0.00    +0.000 A 
ATOM      4  C   UNL     1       1.764   6.124  20.250  0.00  0.00    +0.000 A 
ATOM      5  C   UNL     1       2.767   6.159  19.283  0.00  0.00    +0.000 A 
ATOM      6  C   UNL     1       2.920   7.305  18.371  0.00  0.00    +0.000 A 
ATOM      7  O   UNL     1       2.214   8.303  18.453  0.00  0.00    +0.000 OA
ATOM      8  C   UNL     1       3.953   7.183  17.330  0.00  0.00    +0.000 A 
ATOM      9  C   UNL     1       4.733   6.090  17.320  0.00  0.00    +0.000 A 
ATOM     10  O   UNL     1       4.642   5.049  18.220  0.00  0.00    +0.000 OA
ATOM     11  C   UNL     1       3.625   5.075  19.131  0.00  0.00    +0.000 A 
ATOM     12  C   UNL     1       3.455   3.923  19.893  0.00  0.00    +0.000 A 
ENDROOT
BRANCH   9  13
ATOM     13  C   UNL     1       5.780   5.957  16.252  0.00  0.00    +0.000 C 
ATOM     14  O   UNL     1       6.786   6.645  16.255  0.00  0.00    +0.000 OA
ATOM     15  N   UNL     1       5.420   4.992  15.328  0.00  0.00    +0.000 N 
ATOM     16  C   UNL     1       6.186   4.726  14.224  0.00  0.00    +0.000 A 
ATOM     17  N   UNL     1       7.330   5.245  13.837  0.00  0.00    +0.000 NA
ATOM     18  N   UNL     1       7.657   4.626  12.653  0.00  0.00    +0.000 NA
ATOM     19  N   UNL     1       6.739   3.737  12.312  0.00  0.00    +0.000 NA
ATOM     20  N   UNL     1       5.821   3.801  13.284  0.00  0.00    +0.000 N 
ATOM     21  H   UNL     1       4.548   4.501  15.466  0.00  0.00    +0.000 HD
ATOM     22  H   UNL     1       5.010   3.205  13.240  0.00  0.00    +0.000 HD
ENDBRANCH   9  13
TORSDOF 1
ENDMDL
MODEL 3
REMARK VINA RESULT:      -7.9      3.929      7.322
REMARK  Name = 
REMARK  2 active torsions:
REMARK  status: ('A' for Active; 'I' for Inactive)
REMARK    1  A    between atoms: C_1  and  C_2
REMARK    2  A    between atoms: C_9  and  C_10
REMARK                            x       y       z     vdW  Elec       q    Type
REMARK                         _______ _______ _______ _____ _____    ______ ____
ROOT
ATOM      1  C   UNL     1       6.106   2.621  11.685  0.00  0.00    +0.000 C 
ATOM      2  C   UNL     1       6.214   3.627  12.793  0.00  0.00    +0.000 A 
ATOM      3  C   UNL     1       7.325   4.474  12.930  0.00  0.00    +0.000 A 
ATOM      4  C   UNL     1       7.494   5.250  14.081  0.00  0.00    +0.000 A 
ATOM      5  C   UNL     1       6.521   5.211  15.079  0.00  0.00    +0.000 A 
ATOM      6  C   UNL     1       6.692   5.935  16.350  0.00  0.00    +0.000 A 
ATOM      7  O   UNL     1       7.663   6.648  16.569  0.00  0.00    +0.000 OA
ATOM      8  C   UNL     1       5.643   5.737  17.364  0.00  0.00    +0.000 A 
ATOM      9  C   UNL     1       4.575   4.987  17.049  0.00  0.00    +0.000 A 
ATOM     10  O   UNL     1       4.376   4.369  15.832  0.00  0.00    +0.000 OA
ATOM     11  C   UNL     1       5.379   4.438  14.907  0.00  0.00    +0.000 A 
ATOM     12  C   UNL     1       5.219   3.649  13.771  0.00  0.00    +0.000 A 
ENDROOT
BRANCH   9  13
ATOM     13  C   UNL     1       3.509   4.774  18.086  0.00  0.00    +0.000 C 
ATOM     14  O   UNL     1       2.465   5.403  18.067  0.00  0.00    +0.000 OA
ATOM     15  N   UNL     1       3.899   3.812  19.001  0.00  0.00    +0.000 N 
ATOM     16  C   UNL     1       3.120   3.482  20.079  0.00  0.00    +0.000 A 
ATOM     17  N   UNL     1       1.938   3.928  20.443  0.00  0.00    +0.000 NA
ATOM     18  N   UNL     1       1.616   3.268  21.606  0.00  0.00    +0.000 NA
ATOM     19  N   UNL     1       2.574   2.426  21.956  0.00  0.00    +0.000 NA
ATOM     20  N   UNL     1       3.511   2.561  21.011  0.00  0.00    +0.000 N 
ATOM     21  H   UNL     1       4.801   3.375  18.878  0.00  0.00    +0.000 HD
ATOM     22  H   UNL     1       4.355   2.011  21.067  0.00  0.00    +0.000 HD
ENDBRANCH   9  13
TORSDOF 1
ENDMDL
MODEL 4
REMARK VINA RESULT:      -7.8      3.974      7.316
REMARK  Name = 
REMARK  2 active torsions:
REMARK  status: ('A' for Active; 'I' for Inactive)
REMARK    1  A    between atoms: C_1  and  C_2
REMARK    2  A    between atoms: C_9  and  C_10
REMARK                            x       y       z     vdW  Elec       q    Type
REMARK                         _______ _______ _______ _____ _____    ______ ____
ROOT
ATOM      1  C   UNL     1       6.026   2.653  11.779  0.00  0.00    +0.000 C 
ATOM      2  C   UNL     1       6.188   3.606  12.927  0.00  0.00    +0.000 A 
ATOM      3  C   UNL     1       7.074   4.694  12.877  0.00  0.00    +0.000 A 
ATOM      4  C   UNL     1       7.357   5.438  14.027  0.00  0.00    +0.000 A 
ATOM      5  C   UNL     1       6.715   5.116  15.222  0.00  0.00    +0.000 A 
ATOM      6  C   UNL     1       7.043   5.805  16.482  0.00  0.00    +0.000 A 
ATOM      7  O   UNL     1       7.848   6.726  16.532  0.00  0.00    +0.000 OA
ATOM      8  C   UNL     1       6.370   5.311  17.695  0.00  0.00    +0.000 A 
ATOM      9  C   UNL     1       5.457   4.335  17.573  0.00  0.00    +0.000 A 
ATOM     10  O   UNL     1       5.093   3.739  16.383  0.00  0.00    +0.000 OA
ATOM     11  C   UNL     1       5.774   4.093  15.254  0.00  0.00    +0.000 A 
ATOM     12  C   UNL     1       5.507   3.339  14.115  0.00  0.00    +0.000 A 
ENDROOT
BRANCH   9  13
ATOM     13  C   UNL     1       4.777   3.821  18.810  0.00  0.00    +0.000 C 
ATOM     14  O   UNL     1       5.411   3.339  19.733  0.00  0.00    +0.000 OA
ATOM     15  N   UNL     1       3.405   3.974  18.717  0.00  0.00    +0.000 N 
ATOM     16  C   UNL     1       2.560   3.527  19.698  0.00  0.00    +0.000 A 
ATOM     17  N   UNL     1       2.822   2.938  20.844  0.00  0.00    +0.000 NA
ATOM     18  N   UNL     1       1.607   2.694  21.441  0.00  0.00    +0.000 NA
ATOM     19  N   UNL     1       0.610   3.125  20.686  0.00  0.00    +0.000 NA
ATOM     20  N   UNL     1       1.200   3.638  19.600  0.00  0.00    +0.000 N 
ATOM     21  H   UNL     1       3.028   4.398  17.882  0.00  0.00    +0.000 HD
ATOM     22  H   UNL     1       0.632   4.033  18.867  0.00  0.00    +0.000 HD
ENDBRANCH   9  13
TORSDOF 1
ENDMDL
MODEL 5
REMARK VINA RESULT:      -7.8      5.317      7.642
REMARK  Name = 
REMARK  2 active torsions:
REMARK  status: ('A' for Active; 'I' for Inactive)
REMARK    1  A    between atoms: C_1  and  C_2
REMARK    2  A    between atoms: C_9  and  C_10
REMARK                            x       y       z     vdW  Elec       q    Type
REMARK                         _______ _______ _______ _____ _____    ______ ____
ROOT
ATOM      1  C   UNL     1       6.100   5.055  14.484  0.00  0.00    +0.000 C 
ATOM      2  C   UNL     1       5.429   4.886  15.815  0.00  0.00    +0.000 A 
ATOM      3  C   UNL     1       5.268   3.629  16.419  0.00  0.00    +0.000 A 
ATOM      4  C   UNL     1       4.462   3.478  17.551  0.00  0.00    +0.000 A 
ATOM      5  C   UNL     1       3.849   4.600  18.107  0.00  0.00    +0.000 A 
ATOM      6  C   UNL     1       2.917   4.487  19.241  0.00  0.00    +0.000 A 
ATOM      7  O   UNL     1       2.679   3.416  19.786  0.00  0.00    +0.000 OA
ATOM      8  C   UNL     1       2.259   5.729  19.677  0.00  0.00    +0.000 A 
ATOM      9  C   UNL     1       2.598   6.882  19.079  0.00  0.00    +0.000 A 
ATOM     10  O   UNL     1       3.526   7.002  18.066  0.00  0.00    +0.000 OA
ATOM     11  C   UNL     1       4.076   5.859  17.561  0.00  0.00    +0.000 A 
ATOM     12  C   UNL     1       4.862   6.008  16.422  0.00  0.00    +0.000 A 
ENDROOT
BRANCH   9  13
ATOM     13  C   UNL     1       1.919   8.150  19.513  0.00  0.00    +0.000 C 
ATOM     14  O   UNL     1       1.731   9.072  18.738  0.00  0.00    +0.000 OA
ATOM     15  N   UNL     1       1.577   8.090  20.853  0.00  0.00    +0.000 N 
ATOM     16  C   UNL     1       0.997   9.151  21.498  0.00  0.00    +0.000 A 
ATOM     17  N   UNL     1       0.641  10.332  21.045  0.00  0.00    +0.000 NA
ATOM     18  N   UNL     1       0.114  11.016  22.115  0.00  0.00    +0.000 NA
ATOM     19  N   UNL     1       0.136  10.275  23.211  0.00  0.00    +0.000 NA
ATOM     20  N   UNL     1       0.689   9.118  22.831  0.00  0.00    +0.000 N 
ATOM     21  H   UNL     1       1.798   7.249  21.364  0.00  0.00    +0.000 HD
ATOM     22  H   UNL     1       0.815   8.382  23.508  0.00  0.00    +0.000 HD
ENDBRANCH   9  13
TORSDOF 1
ENDMDL
MODEL 6
REMARK VINA RESULT:      -7.5      5.761      7.946
REMARK  Name = 
REMARK  2 active torsions:
REMARK  status: ('A' for Active; 'I' for Inactive)
REMARK    1  A    between atoms: C_1  and  C_2
REMARK    2  A    between atoms: C_9  and  C_10
REMARK                            x       y       z     vdW  Elec       q    Type
REMARK                         _______ _______ _______ _____ _____    ______ ____
ROOT
ATOM      1  C   UNL     1       5.078   3.793  15.713  0.00  0.00    +0.000 C 
ATOM      2  C   UNL     1       4.463   3.918  17.077  0.00  0.00    +0.000 A 
ATOM      3  C   UNL     1       4.199   2.800  17.884  0.00  0.00    +0.000 A 
ATOM      4  C   UNL     1       3.442   2.926  19.053  0.00  0.00    +0.000 A 
ATOM      5  C   UNL     1       2.984   4.185  19.436  0.00  0.00    +0.000 A 
ATOM      6  C   UNL     1       2.105   4.363  20.605  0.00  0.00    +0.000 A 
ATOM      7  O   UNL     1       1.782   3.428  21.326  0.00  0.00    +0.000 OA
ATOM      8  C   UNL     1       1.609   5.726  20.852  0.00  0.00    +0.000 A 
ATOM      9  C   UNL     1       2.039   6.722  20.061  0.00  0.00    +0.000 A 
ATOM     10  O   UNL     1       2.920   6.571  19.011  0.00  0.00    +0.000 OA
ATOM     11  C   UNL     1       3.316   5.306  18.683  0.00  0.00    +0.000 A 
ATOM     12  C   UNL     1       4.053   5.179  17.509  0.00  0.00    +0.000 A 
ENDROOT
BRANCH   9  13
ATOM     13  C   UNL     1       1.524   8.112  20.303  0.00  0.00    +0.000 C 
ATOM     14  O   UNL     1       1.705   9.009  19.497  0.00  0.00    +0.000 OA
ATOM     15  N   UNL     1       0.864   8.188  21.517  0.00  0.00    +0.000 N 
ATOM     16  C   UNL     1       0.354   9.368  21.990  0.00  0.00    +0.000 A 
ATOM     17  N   UNL     1       0.345  10.568  21.453  0.00  0.00    +0.000 NA
ATOM     18  N   UNL     1      -0.287  11.392  22.354  0.00  0.00    +0.000 NA
ATOM     19  N   UNL     1      -0.668  10.720  23.427  0.00  0.00    +0.000 NA
ATOM     20  N   UNL     1      -0.266   9.463  23.206  0.00  0.00    +0.000 N 
ATOM     21  H   UNL     1       0.794   7.349  22.075  0.00  0.00    +0.000 HD
ATOM     22  H   UNL     1      -0.447   8.755  23.900  0.00  0.00    +0.000 HD
ENDBRANCH   9  13
TORSDOF 1
ENDMDL
MODEL 7
REMARK VINA RESULT:      -7.4      4.837      6.787
REMARK  Name = 
REMARK  2 active torsions:
REMARK  status: ('A' for Active; 'I' for Inactive)
REMARK    1  A    between atoms: C_1  and  C_2
REMARK    2  A    between atoms: C_9  and  C_10
REMARK                            x       y       z     vdW  Elec       q    Type
REMARK                         _______ _______ _______ _____ _____    ______ ____
ROOT
ATOM      1  C   UNL     1      -1.294  11.087  23.050  0.00  0.00    +0.000 C 
ATOM      2  C   UNL     1      -0.382  10.836  21.885  0.00  0.00    +0.000 A 
ATOM      3  C   UNL     1      -0.257  11.746  20.823  0.00  0.00    +0.000 A 
ATOM      4  C   UNL     1       0.435  11.395  19.659  0.00  0.00    +0.000 A 
ATOM      5  C   UNL     1       1.042  10.143  19.578  0.00  0.00    +0.000 A 
ATOM      6  C   UNL     1       1.703   9.686  18.344  0.00  0.00    +0.000 A 
ATOM      7  O   UNL     1       1.802  10.399  17.354  0.00  0.00    +0.000 OA
ATOM      8  C   UNL     1       2.221   8.308  18.349  0.00  0.00    +0.000 A 
ATOM      9  C   UNL     1       2.133   7.590  19.480  0.00  0.00    +0.000 A 
ATOM     10  O   UNL     1       1.581   8.042  20.660  0.00  0.00    +0.000 OA
ATOM     11  C   UNL     1       0.991   9.274  20.662  0.00  0.00    +0.000 A 
ATOM     12  C   UNL     1       0.285   9.613  21.813  0.00  0.00    +0.000 A 
ENDROOT
BRANCH   9  13
ATOM     13  C   UNL     1       2.649   6.179  19.484  0.00  0.00    +0.000 C 
ATOM     14  O   UNL     1       3.271   5.724  18.540  0.00  0.00    +0.000 OA
ATOM     15  N   UNL     1       2.312   5.535  20.662  0.00  0.00    +0.000 N 
ATOM     16  C   UNL     1       2.622   4.219  20.880  0.00  0.00    +0.000 A 
ATOM     17  N   UNL     1       3.265   3.359  20.122  0.00  0.00    +0.000 NA
ATOM     18  N   UNL     1       3.290   2.172  20.817  0.00  0.00    +0.000 NA
ATOM     19  N   UNL     1       2.681   2.292  21.985  0.00  0.00    +0.000 NA
ATOM     20  N   UNL     1       2.260   3.561  22.024  0.00  0.00    +0.000 N 
ATOM     21  H   UNL     1       1.793   6.053  21.356  0.00  0.00    +0.000 HD
ATOM     22  H   UNL     1       1.757   3.892  22.832  0.00  0.00    +0.000 HD
ENDBRANCH   9  13
TORSDOF 1
ENDMDL
MODEL 8
REMARK VINA RESULT:      -7.4      1.307      2.700
REMARK  Name = 
REMARK  2 active torsions:
REMARK  status: ('A' for Active; 'I' for Inactive)
REMARK    1  A    between atoms: C_1  and  C_2
REMARK    2  A    between atoms: C_9  and  C_10
REMARK                            x       y       z     vdW  Elec       q    Type
REMARK                         _______ _______ _______ _____ _____    ______ ____
ROOT
ATOM      1  C   UNL     1       0.957   1.390  19.458  0.00  0.00    +0.000 C 
ATOM      2  C   UNL     1       1.565   2.761  19.401  0.00  0.00    +0.000 A 
ATOM      3  C   UNL     1       1.015   3.853  20.091  0.00  0.00    +0.000 A 
ATOM      4  C   UNL     1       1.475   5.153  19.856  0.00  0.00    +0.000 A 
ATOM      5  C   UNL     1       2.522   5.352  18.958  0.00  0.00    +0.000 A 
ATOM      6  C   UNL     1       2.985   6.705  18.602  0.00  0.00    +0.000 A 
ATOM      7  O   UNL     1       2.516   7.711  19.117  0.00  0.00    +0.000 OA
ATOM      8  C   UNL     1       4.031   6.791  17.570  0.00  0.00    +0.000 A 
ATOM      9  C   UNL     1       4.547   5.653  17.078  0.00  0.00    +0.000 A 
ATOM     10  O   UNL     1       4.168   4.384  17.464  0.00  0.00    +0.000 OA
ATOM     11  C   UNL     1       3.125   4.264  18.337  0.00  0.00    +0.000 A 
ATOM     12  C   UNL     1       2.654   2.972  18.555  0.00  0.00    +0.000 A 
ENDROOT
BRANCH   9  13
ATOM     13  C   UNL     1       5.605   5.737  16.016  0.00  0.00    +0.000 C 
ATOM     14  O   UNL     1       6.432   6.633  16.008  0.00  0.00    +0.000 OA
ATOM     15  N   UNL     1       5.478   4.698  15.111  0.00  0.00    +0.000 N 
ATOM     16  C   UNL     1       6.293   4.590  14.015  0.00  0.00    +0.000 A 
ATOM     17  N   UNL     1       7.294   5.345  13.621  0.00  0.00    +0.000 NA
ATOM     18  N   UNL     1       7.761   4.792  12.452  0.00  0.00    +0.000 NA
ATOM     19  N   UNL     1       7.068   3.713  12.126  0.00  0.00    +0.000 NA
ATOM     20  N   UNL     1       6.152   3.589  13.093  0.00  0.00    +0.000 N 
ATOM     21  H   UNL     1       4.737   4.027  15.256  0.00  0.00    +0.000 HD
ATOM     22  H   UNL     1       5.495   2.825  13.059  0.00  0.00    +0.000 HD
ENDBRANCH   9  13
TORSDOF 1
ENDMDL
MODEL 9
REMARK VINA RESULT:      -7.3      5.258      7.501
REMARK  Name = 
REMARK  2 active torsions:
REMARK  status: ('A' for Active; 'I' for Inactive)
REMARK    1  A    between atoms: C_1  and  C_2
REMARK    2  A    between atoms: C_9  and  C_10
REMARK                            x       y       z     vdW  Elec       q    Type
REMARK                         _______ _______ _______ _____ _____    ______ ____
ROOT
ATOM      1  C   UNL     1       6.501   4.824  14.348  0.00  0.00    +0.000 C 
ATOM      2  C   UNL     1       5.846   5.004  15.686  0.00  0.00    +0.000 A 
ATOM      3  C   UNL     1       5.818   3.983  16.649  0.00  0.00    +0.000 A 
ATOM      4  C   UNL     1       5.028   4.105  17.796  0.00  0.00    +0.000 A 
ATOM      5  C   UNL     1       4.297   5.274  18.000  0.00  0.00    +0.000 A 
ATOM      6  C   UNL     1       3.378   5.420  19.141  0.00  0.00    +0.000 A 
ATOM      7  O   UNL     1       3.253   4.550  19.993  0.00  0.00    +0.000 OA
ATOM      8  C   UNL     1       2.589   6.662  19.195  0.00  0.00    +0.000 A 
ATOM      9  C   UNL     1       2.806   7.604  18.263  0.00  0.00    +0.000 A 
ATOM     10  O   UNL     1       3.720   7.502  17.236  0.00  0.00    +0.000 OA
ATOM     11  C   UNL     1       4.390   6.321  17.089  0.00  0.00    +0.000 A 
ATOM     12  C   UNL     1       5.160   6.193  15.936  0.00  0.00    +0.000 A 
ENDROOT
BRANCH   9  13
ATOM     13  C   UNL     1       1.994   8.867  18.309  0.00  0.00    +0.000 C 
ATOM     14  O   UNL     1       1.992   9.659  17.382  0.00  0.00    +0.000 OA
ATOM     15  N   UNL     1       1.306   8.966  19.505  0.00  0.00    +0.000 N 
ATOM     16  C   UNL     1       0.539  10.060  19.809  0.00  0.00    +0.000 A 
ATOM     17  N   UNL     1       0.280  11.140  19.106  0.00  0.00    +0.000 NA
ATOM     18  N   UNL     1      -0.538  11.924  19.886  0.00  0.00    +0.000 NA
ATOM     19  N   UNL     1      -0.788  11.343  21.047  0.00  0.00    +0.000 NA
ATOM     20  N   UNL     1      -0.115  10.187  21.004  0.00  0.00    +0.000 N 
ATOM     21  H   UNL     1       1.409   8.220  20.178  0.00  0.00    +0.000 HD
ATOM     22  H   UNL     1      -0.152   9.562  21.794  0.00  0.00    +0.000 HD
ENDBRANCH   9  13
TORSDOF 1
ENDMDL
