MODEL 1
REMARK VINA RESULT:      -8.9      0.000      0.000
REMARK  Name = 
REMARK  4 active torsions:
REMARK  status: ('A' for Active; 'I' for Inactive)
REMARK    1  A    between atoms: S_2  and  N_4
REMARK    2  A    between atoms: N_4  and  C_5
REMARK    3  A    between atoms: C_8  and  C_9
REMARK    4  A    between atoms: N_17  and  C_18
REMARK                            x       y       z     vdW  Elec       q    Type
REMARK                         _______ _______ _______ _____ _____    ______ ____
ROOT
ATOM      1  C   UNL     1       1.267   8.231  20.803  0.00  0.00    +0.000 A 
ATOM      2  C   UNL     1       1.429   8.531  22.163  0.00  0.00    +0.000 A 
ATOM      3  C   UNL     1       0.847   9.669  22.732  0.00  0.00    +0.000 A 
ATOM      4  C   UNL     1       0.069  10.541  21.990  0.00  0.00    +0.000 A 
ATOM      5  N   UNL     1      -0.425  11.623  22.596  0.00  0.00    +0.000 NA
ATOM      6  C   UNL     1      -1.198  12.420  21.854  0.00  0.00    +0.000 A 
ATOM      7  N   UNL     1      -1.557  12.207  20.587  0.00  0.00    +0.000 NA
ATOM      8  C   UNL     1      -1.062  11.109  19.986  0.00  0.00    +0.000 A 
ATOM      9  N   UNL     1      -1.497  10.809  18.670  0.00  0.00    +0.000 N 
ATOM     10  C   UNL     1      -0.175  10.237  20.645  0.00  0.00    +0.000 A 
ATOM     11  C   UNL     1       0.435   9.091  20.065  0.00  0.00    +0.000 A 
ATOM     12  H   UNL     1      -0.732  10.839  18.008  0.00  0.00    +0.000 HD
ENDROOT
BRANCH   9  13
ATOM     13  C   UNL     1      -2.756  11.157  18.122  0.00  0.00    +0.000 A 
ATOM     14  C   UNL     1      -3.729  11.793  18.927  0.00  0.00    +0.000 A 
ATOM     15  C   UNL     1      -4.974  12.185  18.441  0.00  0.00    +0.000 A 
ATOM     16  C   UNL     1      -5.327  11.951  17.113  0.00  0.00    +0.000 A 
ATOM     17  C   UNL     1      -4.393  11.273  16.327  0.00  0.00    +0.000 A 
ATOM     18  N   UNL     1      -4.445  10.883  15.015  0.00  0.00    +0.000 N 
ATOM     19  N   UNL     1      -3.365  10.196  14.603  0.00  0.00    +0.000 NA
ATOM     20  C   UNL     1      -2.580  10.184  15.684  0.00  0.00    +0.000 A 
ATOM     21  C   UNL     1      -3.148  10.856  16.795  0.00  0.00    +0.000 A 
ATOM     22  H   UNL     1      -5.194  11.048  14.353  0.00  0.00    +0.000 HD
ENDBRANCH   9  13
BRANCH   1  26
ATOM     23  C   UNL     1       3.217   4.850  18.975  0.00  0.00    +0.000 A 
ATOM     24  C   UNL     1       3.370   6.118  18.425  0.00  0.00    +0.000 A 
ATOM     25  C   UNL     1       2.730   7.215  19.014  0.00  0.00    +0.000 A 
ATOM     26  C   UNL     1       1.947   7.075  20.175  0.00  0.00    +0.000 A 
ATOM     27  C   UNL     1       1.853   5.783  20.730  0.00  0.00    +0.000 A 
ATOM     28  C   UNL     1       2.484   4.682  20.142  0.00  0.00    +0.000 A 
BRANCH  23  29
ATOM     29  N   UNL     1       3.825   3.714  18.367  0.00  0.00    +0.000 N 
ATOM     30  H   UNL     1       4.768   3.882  18.014  0.00  0.00    +0.000 HD
BRANCH  29  32
ATOM     31  O   UNL     1       3.618   1.214  18.326  0.00  0.00    +0.000 OA
ATOM     32  S   UNL     1       3.826   2.280  19.278  0.00  0.00    +0.000 S 
ATOM     33  O   UNL     1       4.985   2.285  20.148  0.00  0.00    +0.000 OA
ATOM     34  H   UNL     1       2.743   2.301  20.072  0.00  0.00    +0.000 HD
ENDBRANCH  29  32
ENDBRANCH  23  29
ENDBRANCH   1  26
TORSDOF 4
ENDMDL
MODEL 2
REMARK VINA RESULT:      -8.8      1.356      1.727
REMARK  Name = 
REMARK  4 active torsions:
REMARK  status: ('A' for Active; 'I' for Inactive)
REMARK    1  A    between atoms: S_2  and  N_4
REMARK    2  A    between atoms: N_4  and  C_5
REMARK    3  A    between atoms: C_8  and  C_9
REMARK    4  A    between atoms: N_17  and  C_18
REMARK                            x       y       z     vdW  Elec       q    Type
REMARK                         _______ _______ _______ _____ _____    ______ ____
ROOT
ATOM      1  C   UNL     1       1.482   8.267  20.495  0.00  0.00    +0.000 A 
ATOM      2  C   UNL     1       1.605   8.351  21.888  0.00  0.00    +0.000 A 
ATOM      3  C   UNL     1       0.927   9.331  22.621  0.00  0.00    +0.000 A 
ATOM      4  C   UNL     1       0.088  10.249  22.013  0.00  0.00    +0.000 A 
ATOM      5  N   UNL     1      -0.498  11.175  22.775  0.00  0.00    +0.000 NA
ATOM      6  C   UNL     1      -1.326  12.020  22.155  0.00  0.00    +0.000 A 
ATOM      7  N   UNL     1      -1.653  11.990  20.863  0.00  0.00    +0.000 NA
ATOM      8  C   UNL     1      -1.064  11.048  20.103  0.00  0.00    +0.000 A 
ATOM      9  N   UNL     1      -1.460  10.935  18.745  0.00  0.00    +0.000 N 
ATOM     10  C   UNL     1      -0.117  10.152  20.631  0.00  0.00    +0.000 A 
ATOM     11  C   UNL     1       0.590   9.169  19.887  0.00  0.00    +0.000 A 
ATOM     12  H   UNL     1      -0.693  11.134  18.115  0.00  0.00    +0.000 HD
ENDROOT
BRANCH   9  13
ATOM     13  C   UNL     1      -2.737  11.269  18.232  0.00  0.00    +0.000 A 
ATOM     14  C   UNL     1      -3.689  11.909  19.059  0.00  0.00    +0.000 A 
ATOM     15  C   UNL     1      -4.951  12.288  18.606  0.00  0.00    +0.000 A 
ATOM     16  C   UNL     1      -5.343  12.035  17.293  0.00  0.00    +0.000 A 
ATOM     17  C   UNL     1      -4.430  11.352  16.487  0.00  0.00    +0.000 A 
ATOM     18  N   UNL     1      -4.520  10.945  15.182  0.00  0.00    +0.000 N 
ATOM     19  N   UNL     1      -3.449  10.259  14.746  0.00  0.00    +0.000 NA
ATOM     20  C   UNL     1      -2.631  10.265  15.802  0.00  0.00    +0.000 A 
ATOM     21  C   UNL     1      -3.168  10.949  16.922  0.00  0.00    +0.000 A 
ATOM     22  H   UNL     1      -5.289  11.096  14.541  0.00  0.00    +0.000 HD
ENDBRANCH   9  13
BRANCH   1  26
ATOM     23  C   UNL     1       3.772   5.437  18.186  0.00  0.00    +0.000 A 
ATOM     24  C   UNL     1       3.202   5.046  19.393  0.00  0.00    +0.000 A 
ATOM     25  C   UNL     1       2.465   5.967  20.147  0.00  0.00    +0.000 A 
ATOM     26  C   UNL     1       2.260   7.286  19.702  0.00  0.00    +0.000 A 
ATOM     27  C   UNL     1       2.813   7.633  18.453  0.00  0.00    +0.000 A 
ATOM     28  C   UNL     1       3.556   6.719  17.699  0.00  0.00    +0.000 A 
BRANCH  23  29
ATOM     29  N   UNL     1       4.559   4.528  17.425  0.00  0.00    +0.000 N 
ATOM     30  H   UNL     1       4.235   4.391  16.466  0.00  0.00    +0.000 HD
BRANCH  29  32
ATOM     31  O   UNL     1       6.718   4.403  18.699  0.00  0.00    +0.000 OA
ATOM     32  S   UNL     1       6.234   4.815  17.401  0.00  0.00    +0.000 S 
ATOM     33  O   UNL     1       6.784   4.247  16.188  0.00  0.00    +0.000 OA
ATOM     34  H   UNL     1       6.418   6.144  17.329  0.00  0.00    +0.000 HD
ENDBRANCH  29  32
ENDBRANCH  23  29
ENDBRANCH   1  26
TORSDOF 4
ENDMDL
MODEL 3
REMARK VINA RESULT:      -8.8      5.720      9.339
REMARK  Name = 
REMARK  4 active torsions:
REMARK  status: ('A' for Active; 'I' for Inactive)
REMARK    1  A    between atoms: S_2  and  N_4
REMARK    2  A    between atoms: N_4  and  C_5
REMARK    3  A    between atoms: C_8  and  C_9
REMARK    4  A    between atoms: N_17  and  C_18
REMARK                            x       y       z     vdW  Elec       q    Type
REMARK                         _______ _______ _______ _____ _____    ______ ____
ROOT
ATOM      1  C   UNL     1       0.280  10.303  20.010  0.00  0.00    +0.000 A 
ATOM      2  C   UNL     1       0.498  10.965  18.794  0.00  0.00    +0.000 A 
ATOM      3  C   UNL     1       1.370  10.448  17.830  0.00  0.00    +0.000 A 
ATOM      4  C   UNL     1       2.041   9.252  18.016  0.00  0.00    +0.000 A 
ATOM      5  N   UNL     1       2.882   8.841  17.064  0.00  0.00    +0.000 NA
ATOM      6  C   UNL     1       3.483   7.666  17.269  0.00  0.00    +0.000 A 
ATOM      7  N   UNL     1       3.284   6.852  18.306  0.00  0.00    +0.000 NA
ATOM      8  C   UNL     1       2.429   7.271  19.258  0.00  0.00    +0.000 A 
ATOM      9  N   UNL     1       2.128   6.389  20.328  0.00  0.00    +0.000 N 
ATOM     10  C   UNL     1       1.795   8.525  19.188  0.00  0.00    +0.000 A 
ATOM     11  C   UNL     1       0.925   9.064  20.175  0.00  0.00    +0.000 A 
ATOM     12  H   UNL     1       2.433   6.764  21.217  0.00  0.00    +0.000 HD
ENDROOT
BRANCH   9  13
ATOM     13  C   UNL     1       2.146   4.974  20.255  0.00  0.00    +0.000 A 
ATOM     14  C   UNL     1       0.979   4.234  20.550  0.00  0.00    +0.000 A 
ATOM     15  C   UNL     1       0.925   2.843  20.470  0.00  0.00    +0.000 A 
ATOM     16  C   UNL     1       2.047   2.107  20.099  0.00  0.00    +0.000 A 
ATOM     17  C   UNL     1       3.219   2.827  19.861  0.00  0.00    +0.000 A 
ATOM     18  N   UNL     1       4.472   2.403  19.504  0.00  0.00    +0.000 N 
ATOM     19  N   UNL     1       5.380   3.390  19.410  0.00  0.00    +0.000 NA
ATOM     20  C   UNL     1       4.667   4.488  19.679  0.00  0.00    +0.000 A 
ATOM     21  C   UNL     1       3.303   4.216  19.950  0.00  0.00    +0.000 A 
ATOM     22  H   UNL     1       4.771   1.453  19.320  0.00  0.00    +0.000 HD
ENDBRANCH   9  13
BRANCH   1  26
ATOM     23  C   UNL     1      -2.235  11.993  23.075  0.00  0.00    +0.000 A 
ATOM     24  C   UNL     1      -1.437  10.892  23.364  0.00  0.00    +0.000 A 
ATOM     25  C   UNL     1      -0.626  10.338  22.367  0.00  0.00    +0.000 A 
ATOM     26  C   UNL     1      -0.575  10.884  21.071  0.00  0.00    +0.000 A 
ATOM     27  C   UNL     1      -1.363  12.028  20.828  0.00  0.00    +0.000 A 
ATOM     28  C   UNL     1      -2.181  12.581  21.818  0.00  0.00    +0.000 A 
BRANCH  23  29
ATOM     29  N   UNL     1      -3.099  12.546  24.063  0.00  0.00    +0.000 N 
ATOM     30  H   UNL     1      -2.721  13.367  24.538  0.00  0.00    +0.000 HD
BRANCH  29  32
ATOM     31  O   UNL     1      -5.534  12.040  24.396  0.00  0.00    +0.000 OA
ATOM     32  S   UNL     1      -4.691  12.878  23.574  0.00  0.00    +0.000 S 
ATOM     33  O   UNL     1      -4.876  14.315  23.543  0.00  0.00    +0.000 OA
ATOM     34  H   UNL     1      -4.830  12.439  22.312  0.00  0.00    +0.000 HD
ENDBRANCH  29  32
ENDBRANCH  23  29
ENDBRANCH   1  26
TORSDOF 4
ENDMDL
MODEL 4
REMARK VINA RESULT:      -8.7      5.553      9.601
REMARK  Name = 
REMARK  4 active torsions:
REMARK  status: ('A' for Active; 'I' for Inactive)
REMARK    1  A    between atoms: S_2  and  N_4
REMARK    2  A    between atoms: N_4  and  C_5
REMARK    3  A    between atoms: C_8  and  C_9
REMARK    4  A    between atoms: N_17  and  C_18
REMARK                            x       y       z     vdW  Elec       q    Type
REMARK                         _______ _______ _______ _____ _____    ______ ____
ROOT
ATOM      1  C   UNL     1       1.465   8.932  19.844  0.00  0.00    +0.000 A 
ATOM      2  C   UNL     1       0.956   8.387  21.031  0.00  0.00    +0.000 A 
ATOM      3  C   UNL     1       1.058   7.019  21.306  0.00  0.00    +0.000 A 
ATOM      4  C   UNL     1       1.682   6.143  20.435  0.00  0.00    +0.000 A 
ATOM      5  N   UNL     1       1.710   4.846  20.751  0.00  0.00    +0.000 NA
ATOM      6  C   UNL     1       2.352   4.040  19.902  0.00  0.00    +0.000 A 
ATOM      7  N   UNL     1       3.002   4.418  18.800  0.00  0.00    +0.000 NA
ATOM      8  C   UNL     1       2.976   5.728  18.493  0.00  0.00    +0.000 A 
ATOM      9  N   UNL     1       3.732   6.173  17.378  0.00  0.00    +0.000 N 
ATOM     10  C   UNL     1       2.266   6.661  19.273  0.00  0.00    +0.000 A 
ATOM     11  C   UNL     1       2.142   8.048  18.987  0.00  0.00    +0.000 A 
ATOM     12  H   UNL     1       3.139   6.558  16.655  0.00  0.00    +0.000 HD
ENDROOT
BRANCH   9  13
ATOM     13  C   UNL     1       4.919   5.567  16.898  0.00  0.00    +0.000 A 
ATOM     14  C   UNL     1       5.004   5.142  15.552  0.00  0.00    +0.000 A 
ATOM     15  C   UNL     1       6.152   4.565  15.012  0.00  0.00    +0.000 A 
ATOM     16  C   UNL     1       7.286   4.367  15.797  0.00  0.00    +0.000 A 
ATOM     17  C   UNL     1       7.191   4.733  17.141  0.00  0.00    +0.000 A 
ATOM     18  N   UNL     1       8.106   4.650  18.157  0.00  0.00    +0.000 N 
ATOM     19  N   UNL     1       7.639   5.056  19.350  0.00  0.00    +0.000 NA
ATOM     20  C   UNL     1       6.392   5.449  19.074  0.00  0.00    +0.000 A 
ATOM     21  C   UNL     1       6.048   5.296  17.707  0.00  0.00    +0.000 A 
ATOM     22  H   UNL     1       9.060   4.316  18.100  0.00  0.00    +0.000 HD
ENDBRANCH   9  13
BRANCH   1  26
ATOM     23  C   UNL     1       0.953  13.106  18.895  0.00  0.00    +0.000 A 
ATOM     24  C   UNL     1       1.884  12.346  18.195  0.00  0.00    +0.000 A 
ATOM     25  C   UNL     1       2.057  10.993  18.509  0.00  0.00    +0.000 A 
ATOM     26  C   UNL     1       1.288  10.364  19.507  0.00  0.00    +0.000 A 
ATOM     27  C   UNL     1       0.322  11.154  20.162  0.00  0.00    +0.000 A 
ATOM     28  C   UNL     1       0.151  12.509  19.858  0.00  0.00    +0.000 A 
BRANCH  23  29
ATOM     29  N   UNL     1       0.792  14.494  18.620  0.00  0.00    +0.000 N 
ATOM     30  H   UNL     1       0.053  14.946  19.161  0.00  0.00    +0.000 HD
BRANCH  29  32
ATOM     31  O   UNL     1       1.810  16.749  18.205  0.00  0.00    +0.000 OA
ATOM     32  S   UNL     1       2.195  15.448  18.701  0.00  0.00    +0.000 S 
ATOM     33  O   UNL     1       2.782  15.297  20.017  0.00  0.00    +0.000 OA
ATOM     34  H   UNL     1       3.078  14.949  17.820  0.00  0.00    +0.000 HD
ENDBRANCH  29  32
ENDBRANCH  23  29
ENDBRANCH   1  26
TORSDOF 4
ENDMDL
MODEL 5
REMARK VINA RESULT:      -8.7      1.430      1.528
REMARK  Name = 
REMARK  4 active torsions:
REMARK  status: ('A' for Active; 'I' for Inactive)
REMARK    1  A    between atoms: S_2  and  N_4
REMARK    2  A    between atoms: N_4  and  C_5
REMARK    3  A    between atoms: C_8  and  C_9
REMARK    4  A    between atoms: N_17  and  C_18
REMARK                            x       y       z     vdW  Elec       q    Type
REMARK                         _______ _______ _______ _____ _____    ______ ____
ROOT
ATOM      1  C   UNL     1       1.514   8.327  20.442  0.00  0.00    +0.000 A 
ATOM      2  C   UNL     1       1.646   8.360  21.837  0.00  0.00    +0.000 A 
ATOM      3  C   UNL     1       0.954   9.299  22.611  0.00  0.00    +0.000 A 
ATOM      4  C   UNL     1       0.095  10.224  22.044  0.00  0.00    +0.000 A 
ATOM      5  N   UNL     1      -0.503  11.109  22.844  0.00  0.00    +0.000 NA
ATOM      6  C   UNL     1      -1.350  11.961  22.261  0.00  0.00    +0.000 A 
ATOM      7  N   UNL     1      -1.685  11.975  20.971  0.00  0.00    +0.000 NA
ATOM      8  C   UNL     1      -1.084  11.074  20.172  0.00  0.00    +0.000 A 
ATOM      9  N   UNL     1      -1.487  11.005  18.813  0.00  0.00    +0.000 N 
ATOM     10  C   UNL     1      -0.117  10.176  20.660  0.00  0.00    +0.000 A 
ATOM     11  C   UNL     1       0.603   9.234  19.875  0.00  0.00    +0.000 A 
ATOM     12  H   UNL     1      -0.728  11.242  18.187  0.00  0.00    +0.000 HD
ENDROOT
BRANCH   9  13
ATOM     13  C   UNL     1      -2.773  11.335  18.320  0.00  0.00    +0.000 A 
ATOM     14  C   UNL     1      -3.714  11.971  19.163  0.00  0.00    +0.000 A 
ATOM     15  C   UNL     1      -4.985  12.345  18.730  0.00  0.00    +0.000 A 
ATOM     16  C   UNL     1      -5.396  12.091  17.424  0.00  0.00    +0.000 A 
ATOM     17  C   UNL     1      -4.494  11.412  16.603  0.00  0.00    +0.000 A 
ATOM     18  N   UNL     1      -4.603  11.005  15.300  0.00  0.00    +0.000 N 
ATOM     19  N   UNL     1      -3.537  10.323  14.846  0.00  0.00    +0.000 NA
ATOM     20  C   UNL     1      -2.702  10.332  15.889  0.00  0.00    +0.000 A 
ATOM     21  C   UNL     1      -3.224  11.013  17.017  0.00  0.00    +0.000 A 
ATOM     22  H   UNL     1      -5.384  11.154  14.672  0.00  0.00    +0.000 HD
ENDBRANCH   9  13
BRANCH   1  26
ATOM     23  C   UNL     1       3.791   5.583  18.020  0.00  0.00    +0.000 A 
ATOM     24  C   UNL     1       3.559   6.877  17.567  0.00  0.00    +0.000 A 
ATOM     25  C   UNL     1       2.812   7.766  18.350  0.00  0.00    +0.000 A 
ATOM     26  C   UNL     1       2.305   7.392  19.608  0.00  0.00    +0.000 A 
ATOM     27  C   UNL     1       2.601   6.088  20.055  0.00  0.00    +0.000 A 
ATOM     28  C   UNL     1       3.339   5.193  19.273  0.00  0.00    +0.000 A 
BRANCH  23  29
ATOM     29  N   UNL     1       4.512   4.650  17.221  0.00  0.00    +0.000 N 
ATOM     30  H   UNL     1       4.272   4.674  16.228  0.00  0.00    +0.000 HD
BRANCH  29  32
ATOM     31  O   UNL     1       6.643   5.871  16.703  0.00  0.00    +0.000 OA
ATOM     32  S   UNL     1       6.203   4.671  17.377  0.00  0.00    +0.000 S 
ATOM     33  O   UNL     1       6.543   4.430  18.765  0.00  0.00    +0.000 OA
ATOM     34  H   UNL     1       6.691   3.636  16.671  0.00  0.00    +0.000 HD
ENDBRANCH  29  32
ENDBRANCH  23  29
ENDBRANCH   1  26
TORSDOF 4
ENDMDL
MODEL 6
REMARK VINA RESULT:      -8.5      5.702      9.098
REMARK  Name = 
REMARK  4 active torsions:
REMARK  status: ('A' for Active; 'I' for Inactive)
REMARK    1  A    between atoms: S_2  and  N_4
REMARK    2  A    between atoms: N_4  and  C_5
REMARK    3  A    between atoms: C_8  and  C_9
REMARK    4  A    between atoms: N_17  and  C_18
REMARK                            x       y       z     vdW  Elec       q    Type
REMARK                         _______ _______ _______ _____ _____    ______ ____
ROOT
ATOM      1  C   UNL     1       0.511  10.060  19.897  0.00  0.00    +0.000 A 
ATOM      2  C   UNL     1       0.859  10.656  18.677  0.00  0.00    +0.000 A 
ATOM      3  C   UNL     1       1.789  10.063  17.816  0.00  0.00    +0.000 A 
ATOM      4  C   UNL     1       2.393   8.854  18.114  0.00  0.00    +0.000 A 
ATOM      5  N   UNL     1       3.295   8.368  17.258  0.00  0.00    +0.000 NA
ATOM      6  C   UNL     1       3.830   7.183  17.566  0.00  0.00    +0.000 A 
ATOM      7  N   UNL     1       3.509   6.427  18.617  0.00  0.00    +0.000 NA
ATOM      8  C   UNL     1       2.593   6.921  19.470  0.00  0.00    +0.000 A 
ATOM      9  N   UNL     1       2.167   6.102  20.548  0.00  0.00    +0.000 N 
ATOM     10  C   UNL     1       2.019   8.193  19.290  0.00  0.00    +0.000 A 
ATOM     11  C   UNL     1       1.089   8.809  20.172  0.00  0.00    +0.000 A 
ATOM     12  H   UNL     1       2.408   6.508  21.443  0.00  0.00    +0.000 HD
ENDROOT
BRANCH   9  13
ATOM     13  C   UNL     1       2.134   4.686  20.539  0.00  0.00    +0.000 A 
ATOM     14  C   UNL     1       2.318   3.965  21.741  0.00  0.00    +0.000 A 
ATOM     15  C   UNL     1       2.270   2.573  21.803  0.00  0.00    +0.000 A 
ATOM     16  C   UNL     1       2.046   1.816  20.655  0.00  0.00    +0.000 A 
ATOM     17  C   UNL     1       1.921   2.519  19.456  0.00  0.00    +0.000 A 
ATOM     18  N   UNL     1       1.717   2.073  18.176  0.00  0.00    +0.000 N 
ATOM     19  N   UNL     1       1.698   3.049  17.252  0.00  0.00    +0.000 NA
ATOM     20  C   UNL     1       1.857   4.160  17.976  0.00  0.00    +0.000 A 
ATOM     21  C   UNL     1       1.981   3.909  19.365  0.00  0.00    +0.000 A 
ATOM     22  H   UNL     1       1.593   1.116  17.870  0.00  0.00    +0.000 HD
ENDBRANCH   9  13
BRANCH   1  26
ATOM     23  C   UNL     1      -2.139  11.990  22.696  0.00  0.00    +0.000 A 
ATOM     24  C   UNL     1      -2.160  12.359  21.355  0.00  0.00    +0.000 A 
ATOM     25  C   UNL     1      -1.294  11.738  20.448  0.00  0.00    +0.000 A 
ATOM     26  C   UNL     1      -0.409  10.722  20.852  0.00  0.00    +0.000 A 
ATOM     27  C   UNL     1      -0.448  10.341  22.209  0.00  0.00    +0.000 A 
ATOM     28  C   UNL     1      -1.306  10.963  23.122  0.00  0.00    +0.000 A 
BRANCH  23  29
ATOM     29  N   UNL     1      -2.982  12.637  23.643  0.00  0.00    +0.000 N 
ATOM     30  H   UNL     1      -2.500  13.301  24.250  0.00  0.00    +0.000 HD
BRANCH  29  32
ATOM     31  O   UNL     1      -5.398  12.347  23.028  0.00  0.00    +0.000 OA
ATOM     32  S   UNL     1      -4.383  13.375  23.027  0.00  0.00    +0.000 S 
ATOM     33  O   UNL     1      -4.592  14.627  23.725  0.00  0.00    +0.000 OA
ATOM     34  H   UNL     1      -4.151  13.680  21.739  0.00  0.00    +0.000 HD
ENDBRANCH  29  32
ENDBRANCH  23  29
ENDBRANCH   1  26
TORSDOF 4
ENDMDL
MODEL 7
REMARK VINA RESULT:      -8.5      5.925      9.701
REMARK  Name = 
REMARK  4 active torsions:
REMARK  status: ('A' for Active; 'I' for Inactive)
REMARK    1  A    between atoms: S_2  and  N_4
REMARK    2  A    between atoms: N_4  and  C_5
REMARK    3  A    between atoms: C_8  and  C_9
REMARK    4  A    between atoms: N_17  and  C_18
REMARK                            x       y       z     vdW  Elec       q    Type
REMARK                         _______ _______ _______ _____ _____    ______ ____
ROOT
ATOM      1  C   UNL     1       1.458   9.031  19.919  0.00  0.00    +0.000 A 
ATOM      2  C   UNL     1       0.884   8.471  21.068  0.00  0.00    +0.000 A 
ATOM      3  C   UNL     1       0.935   7.094  21.310  0.00  0.00    +0.000 A 
ATOM      4  C   UNL     1       1.569   6.221  20.442  0.00  0.00    +0.000 A 
ATOM      5  N   UNL     1       1.546   4.917  20.724  0.00  0.00    +0.000 NA
ATOM      6  C   UNL     1       2.198   4.114  19.880  0.00  0.00    +0.000 A 
ATOM      7  N   UNL     1       2.904   4.500  18.816  0.00  0.00    +0.000 NA
ATOM      8  C   UNL     1       2.929   5.818  18.544  0.00  0.00    +0.000 A 
ATOM      9  N   UNL     1       3.743   6.268  17.473  0.00  0.00    +0.000 N 
ATOM     10  C   UNL     1       2.215   6.751  19.319  0.00  0.00    +0.000 A 
ATOM     11  C   UNL     1       2.144   8.148  19.066  0.00  0.00    +0.000 A 
ATOM     12  H   UNL     1       3.192   6.690  16.737  0.00  0.00    +0.000 HD
ENDROOT
BRANCH   9  13
ATOM     13  C   UNL     1       4.931   5.640  17.025  0.00  0.00    +0.000 A 
ATOM     14  C   UNL     1       5.039   5.199  15.686  0.00  0.00    +0.000 A 
ATOM     15  C   UNL     1       6.190   4.599  15.178  0.00  0.00    +0.000 A 
ATOM     16  C   UNL     1       7.303   4.392  15.989  0.00  0.00    +0.000 A 
ATOM     17  C   UNL     1       7.184   4.773  17.326  0.00  0.00    +0.000 A 
ATOM     18  N   UNL     1       8.075   4.687  18.363  0.00  0.00    +0.000 N 
ATOM     19  N   UNL     1       7.589   5.112  19.542  0.00  0.00    +0.000 NA
ATOM     20  C   UNL     1       6.355   5.522  19.234  0.00  0.00    +0.000 A 
ATOM     21  C   UNL     1       6.038   5.360  17.862  0.00  0.00    +0.000 A 
ATOM     22  H   UNL     1       9.025   4.337  18.331  0.00  0.00    +0.000 HD
ENDBRANCH   9  13
BRANCH   1  26
ATOM     23  C   UNL     1       1.118  13.241  19.060  0.00  0.00    +0.000 A 
ATOM     24  C   UNL     1       1.784  12.405  18.171  0.00  0.00    +0.000 A 
ATOM     25  C   UNL     1       1.902  11.039  18.454  0.00  0.00    +0.000 A 
ATOM     26  C   UNL     1       1.337  10.475  19.613  0.00  0.00    +0.000 A 
ATOM     27  C   UNL     1       0.629  11.345  20.467  0.00  0.00    +0.000 A 
ATOM     28  C   UNL     1       0.515  12.712  20.194  0.00  0.00    +0.000 A 
BRANCH  23  29
ATOM     29  N   UNL     1       1.023  14.640  18.813  0.00  0.00    +0.000 N 
ATOM     30  H   UNL     1       0.800  14.881  17.846  0.00  0.00    +0.000 HD
BRANCH  29  32
ATOM     31  O   UNL     1       0.880  16.149  20.813  0.00  0.00    +0.000 OA
ATOM     32  S   UNL     1       0.006  15.523  19.848  0.00  0.00    +0.000 S 
ATOM     33  O   UNL     1      -0.900  16.316  19.041  0.00  0.00    +0.000 OA
ATOM     34  H   UNL     1      -0.747  14.643  20.528  0.00  0.00    +0.000 HD
ENDBRANCH  29  32
ENDBRANCH  23  29
ENDBRANCH   1  26
TORSDOF 4
ENDMDL
MODEL 8
REMARK VINA RESULT:      -8.3      3.642      4.450
REMARK  Name = 
REMARK  4 active torsions:
REMARK  status: ('A' for Active; 'I' for Inactive)
REMARK    1  A    between atoms: S_2  and  N_4
REMARK    2  A    between atoms: N_4  and  C_5
REMARK    3  A    between atoms: C_8  and  C_9
REMARK    4  A    between atoms: N_17  and  C_18
REMARK                            x       y       z     vdW  Elec       q    Type
REMARK                         _______ _______ _______ _____ _____    ______ ____
ROOT
ATOM      1  C   UNL     1       0.873   8.852  20.820  0.00  0.00    +0.000 A 
ATOM      2  C   UNL     1      -0.107   8.493  21.757  0.00  0.00    +0.000 A 
ATOM      3  C   UNL     1      -0.762   9.458  22.529  0.00  0.00    +0.000 A 
ATOM      4  C   UNL     1      -0.494  10.809  22.395  0.00  0.00    +0.000 A 
ATOM      5  N   UNL     1      -1.136  11.666  23.191  0.00  0.00    +0.000 NA
ATOM      6  C   UNL     1      -0.873  12.962  23.006  0.00  0.00    +0.000 A 
ATOM      7  N   UNL     1      -0.070  13.475  22.072  0.00  0.00    +0.000 NA
ATOM      8  C   UNL     1       0.567  12.604  21.268  0.00  0.00    +0.000 A 
ATOM      9  N   UNL     1       1.357  13.121  20.209  0.00  0.00    +0.000 N 
ATOM     10  C   UNL     1       0.427  11.212  21.420  0.00  0.00    +0.000 A 
ATOM     11  C   UNL     1       1.107  10.228  20.651  0.00  0.00    +0.000 A 
ATOM     12  H   UNL     1       2.334  12.880  20.320  0.00  0.00    +0.000 HD
ENDROOT
BRANCH   9  13
ATOM     13  C   UNL     1       1.132  14.350  19.541  0.00  0.00    +0.000 A 
ATOM     14  C   UNL     1      -0.186  14.833  19.369  0.00  0.00    +0.000 A 
ATOM     15  C   UNL     1      -0.471  16.047  18.747  0.00  0.00    +0.000 A 
ATOM     16  C   UNL     1       0.552  16.848  18.245  0.00  0.00    +0.000 A 
ATOM     17  C   UNL     1       1.852  16.351  18.361  0.00  0.00    +0.000 A 
ATOM     18  N   UNL     1       3.050  16.880  17.959  0.00  0.00    +0.000 N 
ATOM     19  N   UNL     1       4.108  16.085  18.196  0.00  0.00    +0.000 NA
ATOM     20  C   UNL     1       3.566  15.028  18.807  0.00  0.00    +0.000 A 
ATOM     21  C   UNL     1       2.161  15.133  18.965  0.00  0.00    +0.000 A 
ATOM     22  H   UNL     1       3.209  17.773  17.509  0.00  0.00    +0.000 HD
ENDBRANCH   9  13
BRANCH   1  26
ATOM     23  C   UNL     1       3.052   5.864  18.606  0.00  0.00    +0.000 A 
ATOM     24  C   UNL     1       2.907   7.144  18.083  0.00  0.00    +0.000 A 
ATOM     25  C   UNL     1       2.192   8.112  18.798  0.00  0.00    +0.000 A 
ATOM     26  C   UNL     1       1.631   7.832  20.058  0.00  0.00    +0.000 A 
ATOM     27  C   UNL     1       1.838   6.538  20.577  0.00  0.00    +0.000 A 
ATOM     28  C   UNL     1       2.544   5.564  19.863  0.00  0.00    +0.000 A 
BRANCH  23  29
ATOM     29  N   UNL     1       3.739   4.852  17.876  0.00  0.00    +0.000 N 
ATOM     30  H   UNL     1       4.586   5.176  17.406  0.00  0.00    +0.000 HD
BRANCH  29  32
ATOM     31  O   UNL     1       3.777   2.344  17.807  0.00  0.00    +0.000 OA
ATOM     32  S   UNL     1       4.091   3.420  18.718  0.00  0.00    +0.000 S 
ATOM     33  O   UNL     1       5.413   3.538  19.301  0.00  0.00    +0.000 OA
ATOM     34  H   UNL     1       3.223   3.323  19.739  0.00  0.00    +0.000 HD
ENDBRANCH  29  32
ENDBRANCH  23  29
ENDBRANCH   1  26
TORSDOF 4
ENDMDL
MODEL 9
REMARK VINA RESULT:      -8.3      3.346      4.628
REMARK  Name = 
REMARK  4 active torsions:
REMARK  status: ('A' for Active; 'I' for Inactive)
REMARK    1  A    between atoms: S_2  and  N_4
REMARK    2  A    between atoms: N_4  and  C_5
REMARK    3  A    between atoms: C_8  and  C_9
REMARK    4  A    between atoms: N_17  and  C_18
REMARK                            x       y       z     vdW  Elec       q    Type
REMARK                         _______ _______ _______ _____ _____    ______ ____
ROOT
ATOM      1  C   UNL     1       3.213   6.106  18.320  0.00  0.00    +0.000 A 
ATOM      2  C   UNL     1       2.655   5.146  19.175  0.00  0.00    +0.000 A 
ATOM      3  C   UNL     1       1.838   5.515  20.249  0.00  0.00    +0.000 A 
ATOM      4  C   UNL     1       1.523   6.837  20.508  0.00  0.00    +0.000 A 
ATOM      5  N   UNL     1       0.764   7.113  21.571  0.00  0.00    +0.000 NA
ATOM      6  C   UNL     1       0.456   8.397  21.765  0.00  0.00    +0.000 A 
ATOM      7  N   UNL     1       0.795   9.415  20.972  0.00  0.00    +0.000 NA
ATOM      8  C   UNL     1       1.554   9.127  19.898  0.00  0.00    +0.000 A 
ATOM      9  N   UNL     1       1.855  10.173  18.988  0.00  0.00    +0.000 N 
ATOM     10  C   UNL     1       2.003   7.820  19.634  0.00  0.00    +0.000 A 
ATOM     11  C   UNL     1       2.851   7.444  18.556  0.00  0.00    +0.000 A 
ATOM     12  H   UNL     1       2.849  10.358  18.949  0.00  0.00    +0.000 HD
ENDROOT
BRANCH   9  13
ATOM     13  C   UNL     1       1.041  11.306  18.740  0.00  0.00    +0.000 A 
ATOM     14  C   UNL     1       1.550  12.607  18.959  0.00  0.00    +0.000 A 
ATOM     15  C   UNL     1       0.809  13.760  18.708  0.00  0.00    +0.000 A 
ATOM     16  C   UNL     1      -0.498  13.679  18.234  0.00  0.00    +0.000 A 
ATOM     17  C   UNL     1      -1.027  12.397  18.069  0.00  0.00    +0.000 A 
ATOM     18  N   UNL     1      -2.263  11.988  17.645  0.00  0.00    +0.000 N 
ATOM     19  N   UNL     1      -2.436  10.655  17.661  0.00  0.00    +0.000 NA
ATOM     20  C   UNL     1      -1.250  10.198  18.074  0.00  0.00    +0.000 A 
ATOM     21  C   UNL     1      -0.312  11.229  18.329  0.00  0.00    +0.000 A 
ATOM     22  H   UNL     1      -3.034  12.571  17.341  0.00  0.00    +0.000 HD
ENDBRANCH   9  13
BRANCH   1  26
ATOM     23  C   UNL     1       5.906   4.990  15.144  0.00  0.00    +0.000 A 
ATOM     24  C   UNL     1       5.538   6.322  15.304  0.00  0.00    +0.000 A 
ATOM     25  C   UNL     1       4.657   6.683  16.330  0.00  0.00    +0.000 A 
ATOM     26  C   UNL     1       4.146   5.731  17.231  0.00  0.00    +0.000 A 
ATOM     27  C   UNL     1       4.578   4.399  17.068  0.00  0.00    +0.000 A 
ATOM     28  C   UNL     1       5.452   4.031  16.039  0.00  0.00    +0.000 A 
BRANCH  23  29
ATOM     29  N   UNL     1       6.768   4.596  14.081  0.00  0.00    +0.000 N 
ATOM     30  H   UNL     1       7.684   4.262  14.385  0.00  0.00    +0.000 HD
BRANCH  29  32
ATOM     31  O   UNL     1       4.732   3.843  12.821  0.00  0.00    +0.000 OA
ATOM     32  S   UNL     1       6.127   3.493  12.959  0.00  0.00    +0.000 S 
ATOM     33  O   UNL     1       6.999   3.448  11.803  0.00  0.00    +0.000 OA
ATOM     34  H   UNL     1       6.160   2.273  13.521  0.00  0.00    +0.000 HD
ENDBRANCH  29  32
ENDBRANCH  23  29
ENDBRANCH   1  26
TORSDOF 4
ENDMDL
