MODEL 1
REMARK VINA RESULT:      -8.1      0.000      0.000
REMARK  Name = 
REMARK  4 active torsions:
REMARK  status: ('A' for Active; 'I' for Inactive)
REMARK    1  A    between atoms: C_1  and  C_2
REMARK    2  A    between atoms: C_4  and  N_5
REMARK    3  A    between atoms: C_13  and  C_14
REMARK    4  A    between atoms: N_21  and  C_22
REMARK                            x       y       z     vdW  Elec       q    Type
REMARK                         _______ _______ _______ _____ _____    ______ ____
ROOT
ATOM      1  C   UNL     1       1.629   9.307  18.387  0.00  0.00    +0.000 C 
ATOM      2  C   UNL     1       2.156   8.115  18.728  0.00  0.00    +0.000 C 
ATOM      3  C   UNL     1       1.799   7.396  19.966  0.00  0.00    +0.000 C 
ATOM      4  O   UNL     1       0.778   7.574  20.621  0.00  0.00    +0.000 OA
ATOM      5  N   UNL     1       2.691   6.440  20.336  0.00  0.00    +0.000 N 
ATOM      6  C   UNL     1       3.622   5.839  19.542  0.00  0.00    +0.000 C 
ATOM      7  O   UNL     1       4.134   4.801  19.962  0.00  0.00    +0.000 OA
ATOM      8  N   UNL     1       3.849   6.410  18.292  0.00  0.00    +0.000 N 
ATOM      9  C   UNL     1       3.186   7.541  17.815  0.00  0.00    +0.000 C 
ATOM     10  O   UNL     1       3.432   8.095  16.743  0.00  0.00    +0.000 OA
ATOM     11  H   UNL     1       2.445   5.919  21.167  0.00  0.00    +0.000 HD
ENDROOT
BRANCH   1  18
ATOM     12  C   UNL     1      -1.162   9.727  17.430  0.00  0.00    +0.000 C 
ATOM     13  C   UNL     1      -0.649  10.304  18.721  0.00  0.00    +0.000 A 
ATOM     14  C   UNL     1      -1.517  11.070  19.519  0.00  0.00    +0.000 A 
ATOM     15  C   UNL     1      -1.134  11.593  20.766  0.00  0.00    +0.000 A 
ATOM     16  C   UNL     1       0.176  11.344  21.184  0.00  0.00    +0.000 A 
ATOM     17  C   UNL     1       1.065  10.602  20.401  0.00  0.00    +0.000 A 
ATOM     18  C   UNL     1       0.660  10.081  19.169  0.00  0.00    +0.000 A 
BRANCH  15  19
ATOM     19  N   UNL     1      -2.059  12.245  21.557  0.00  0.00    +0.000 N 
ATOM     20  C   UNL     1      -1.855  12.437  22.998  0.00  0.00    +0.000 C 
ATOM     21  C   UNL     1      -3.229  12.394  23.692  0.00  0.00    +0.000 C 
ATOM     22  O   UNL     1      -4.142  13.360  23.140  0.00  0.00    +0.000 OA
ATOM     23  C   UNL     1      -4.325  13.130  21.731  0.00  0.00    +0.000 C 
ATOM     24  C   UNL     1      -2.994  13.219  20.970  0.00  0.00    +0.000 C 
ENDBRANCH  15  19
ENDBRANCH   1  18
BRANCH   8  25
ATOM     25  C   UNL     1       4.814   5.780  17.439  0.00  0.00    +0.000 A 
ATOM     26  C   UNL     1       6.141   6.230  17.413  0.00  0.00    +0.000 A 
ATOM     27  C   UNL     1       7.065   5.655  16.538  0.00  0.00    +0.000 A 
ATOM     28  C   UNL     1       6.682   4.602  15.709  0.00  0.00    +0.000 A 
ATOM     29  C   UNL     1       5.373   4.126  15.750  0.00  0.00    +0.000 A 
ATOM     30  C   UNL     1       4.439   4.721  16.600  0.00  0.00    +0.000 A 
ENDBRANCH   8  25
TORSDOF 3
ENDMDL
MODEL 2
REMARK VINA RESULT:      -7.9      1.288      1.654
REMARK  Name = 
REMARK  4 active torsions:
REMARK  status: ('A' for Active; 'I' for Inactive)
REMARK    1  A    between atoms: C_1  and  C_2
REMARK    2  A    between atoms: C_4  and  N_5
REMARK    3  A    between atoms: C_13  and  C_14
REMARK    4  A    between atoms: N_21  and  C_22
REMARK                            x       y       z     vdW  Elec       q    Type
REMARK                         _______ _______ _______ _____ _____    ______ ____
ROOT
ATOM      1  C   UNL     1       1.107  10.079  18.761  0.00  0.00    +0.000 C 
ATOM      2  C   UNL     1       1.463   8.837  19.140  0.00  0.00    +0.000 C 
ATOM      3  C   UNL     1       1.080   8.244  20.435  0.00  0.00    +0.000 C 
ATOM      4  O   UNL     1       0.145   8.614  21.137  0.00  0.00    +0.000 OA
ATOM      5  N   UNL     1       1.834   7.177  20.808  0.00  0.00    +0.000 N 
ATOM      6  C   UNL     1       2.605   6.397  19.998  0.00  0.00    +0.000 C 
ATOM      7  O   UNL     1       2.975   5.313  20.447  0.00  0.00    +0.000 OA
ATOM      8  N   UNL     1       2.836   6.864  18.706  0.00  0.00    +0.000 N 
ATOM      9  C   UNL     1       2.327   8.062  18.203  0.00  0.00    +0.000 C 
ATOM     10  O   UNL     1       2.586   8.518  17.088  0.00  0.00    +0.000 OA
ATOM     11  H   UNL     1       1.565   6.743  21.681  0.00  0.00    +0.000 HD
ENDROOT
BRANCH   1  18
ATOM     12  C   UNL     1      -1.833  10.377  18.379  0.00  0.00    +0.000 C 
ATOM     13  C   UNL     1      -1.055  11.200  19.366  0.00  0.00    +0.000 A 
ATOM     14  C   UNL     1      -1.734  12.148  20.152  0.00  0.00    +0.000 A 
ATOM     15  C   UNL     1      -1.091  12.914  21.139  0.00  0.00    +0.000 A 
ATOM     16  C   UNL     1       0.284  12.718  21.300  0.00  0.00    +0.000 A 
ATOM     17  C   UNL     1       0.987  11.795  20.520  0.00  0.00    +0.000 A 
ATOM     18  C   UNL     1       0.325  11.035  19.551  0.00  0.00    +0.000 A 
BRANCH  15  19
ATOM     19  N   UNL     1      -1.827  13.750  21.955  0.00  0.00    +0.000 N 
ATOM     20  C   UNL     1      -1.528  13.905  23.385  0.00  0.00    +0.000 C 
ATOM     21  C   UNL     1      -2.852  14.156  24.131  0.00  0.00    +0.000 C 
ATOM     22  O   UNL     1      -3.563  15.288  23.599  0.00  0.00    +0.000 OA
ATOM     23  C   UNL     1      -3.848  15.092  22.202  0.00  0.00    +0.000 C 
ATOM     24  C   UNL     1      -2.559  14.895  21.390  0.00  0.00    +0.000 C 
ENDBRANCH  15  19
ENDBRANCH   1  18
BRANCH   8  25
ATOM     25  C   UNL     1       3.632   6.048  17.837  0.00  0.00    +0.000 A 
ATOM     26  C   UNL     1       3.210   4.757  17.491  0.00  0.00    +0.000 A 
ATOM     27  C   UNL     1       4.014   3.941  16.693  0.00  0.00    +0.000 A 
ATOM     28  C   UNL     1       5.228   4.419  16.205  0.00  0.00    +0.000 A 
ATOM     29  C   UNL     1       5.643   5.713  16.517  0.00  0.00    +0.000 A 
ATOM     30  C   UNL     1       4.856   6.518  17.341  0.00  0.00    +0.000 A 
ENDBRANCH   8  25
TORSDOF 3
ENDMDL
MODEL 3
REMARK VINA RESULT:      -7.9      0.455      1.011
REMARK  Name = 
REMARK  4 active torsions:
REMARK  status: ('A' for Active; 'I' for Inactive)
REMARK    1  A    between atoms: C_1  and  C_2
REMARK    2  A    between atoms: C_4  and  N_5
REMARK    3  A    between atoms: C_13  and  C_14
REMARK    4  A    between atoms: N_21  and  C_22
REMARK                            x       y       z     vdW  Elec       q    Type
REMARK                         _______ _______ _______ _____ _____    ______ ____
ROOT
ATOM      1  C   UNL     1       1.628   9.408  18.339  0.00  0.00    +0.000 C 
ATOM      2  C   UNL     1       2.128   8.214  18.710  0.00  0.00    +0.000 C 
ATOM      3  C   UNL     1       1.764   7.539  19.971  0.00  0.00    +0.000 C 
ATOM      4  O   UNL     1       0.753   7.761  20.628  0.00  0.00    +0.000 OA
ATOM      5  N   UNL     1       2.634   6.572  20.361  0.00  0.00    +0.000 N 
ATOM      6  C   UNL     1       3.543   5.925  19.577  0.00  0.00    +0.000 C 
ATOM      7  O   UNL     1       4.033   4.887  20.023  0.00  0.00    +0.000 OA
ATOM      8  N   UNL     1       3.775   6.454  18.310  0.00  0.00    +0.000 N 
ATOM      9  C   UNL     1       3.135   7.587  17.806  0.00  0.00    +0.000 C 
ATOM     10  O   UNL     1       3.387   8.105  16.716  0.00  0.00    +0.000 OA
ATOM     11  H   UNL     1       2.383   6.081  21.208  0.00  0.00    +0.000 HD
ENDROOT
BRANCH   1  18
ATOM     12  C   UNL     1      -1.210   9.722  17.489  0.00  0.00    +0.000 C 
ATOM     13  C   UNL     1      -0.647  10.402  18.705  0.00  0.00    +0.000 A 
ATOM     14  C   UNL     1      -1.487  11.216  19.485  0.00  0.00    +0.000 A 
ATOM     15  C   UNL     1      -1.054  11.837  20.669  0.00  0.00    +0.000 A 
ATOM     16  C   UNL     1       0.278  11.636  21.041  0.00  0.00    +0.000 A 
ATOM     17  C   UNL     1       1.140  10.846  20.274  0.00  0.00    +0.000 A 
ATOM     18  C   UNL     1       0.686  10.228  19.106  0.00  0.00    +0.000 A 
BRANCH  15  19
ATOM     19  N   UNL     1      -1.951  12.536  21.452  0.00  0.00    +0.000 N 
ATOM     20  C   UNL     1      -3.167  13.141  20.893  0.00  0.00    +0.000 C 
ATOM     21  C   UNL     1      -3.474  14.428  21.681  0.00  0.00    +0.000 C 
ATOM     22  O   UNL     1      -3.592  14.179  23.094  0.00  0.00    +0.000 OA
ATOM     23  C   UNL     1      -2.377  13.599  23.605  0.00  0.00    +0.000 C 
ATOM     24  C   UNL     1      -2.046  12.277  22.897  0.00  0.00    +0.000 C 
ENDBRANCH  15  19
ENDBRANCH   1  18
BRANCH   8  25
ATOM     25  C   UNL     1       4.716   5.776  17.469  0.00  0.00    +0.000 A 
ATOM     26  C   UNL     1       6.052   6.197  17.412  0.00  0.00    +0.000 A 
ATOM     27  C   UNL     1       6.953   5.574  16.546  0.00  0.00    +0.000 A 
ATOM     28  C   UNL     1       6.539   4.502  15.758  0.00  0.00    +0.000 A 
ATOM     29  C   UNL     1       5.221   4.055  15.830  0.00  0.00    +0.000 A 
ATOM     30  C   UNL     1       4.310   4.697  16.669  0.00  0.00    +0.000 A 
ENDBRANCH   8  25
TORSDOF 3
ENDMDL
MODEL 4
REMARK VINA RESULT:      -7.9      1.493      2.076
REMARK  Name = 
REMARK  4 active torsions:
REMARK  status: ('A' for Active; 'I' for Inactive)
REMARK    1  A    between atoms: C_1  and  C_2
REMARK    2  A    between atoms: C_4  and  N_5
REMARK    3  A    between atoms: C_13  and  C_14
REMARK    4  A    between atoms: N_21  and  C_22
REMARK                            x       y       z     vdW  Elec       q    Type
REMARK                         _______ _______ _______ _____ _____    ______ ____
ROOT
ATOM      1  C   UNL     1       1.198  10.046  18.801  0.00  0.00    +0.000 C 
ATOM      2  C   UNL     1       1.510   8.800  19.206  0.00  0.00    +0.000 C 
ATOM      3  C   UNL     1       1.116   8.253  20.519  0.00  0.00    +0.000 C 
ATOM      4  O   UNL     1       0.202   8.675  21.219  0.00  0.00    +0.000 OA
ATOM      5  N   UNL     1       1.832   7.167  20.911  0.00  0.00    +0.000 N 
ATOM      6  C   UNL     1       2.565   6.339  20.113  0.00  0.00    +0.000 C 
ATOM      7  O   UNL     1       2.897   5.252  20.585  0.00  0.00    +0.000 OA
ATOM      8  N   UNL     1       2.802   6.766  18.809  0.00  0.00    +0.000 N 
ATOM      9  C   UNL     1       2.335   7.971  18.282  0.00  0.00    +0.000 C 
ATOM     10  O   UNL     1       2.601   8.390  17.154  0.00  0.00    +0.000 OA
ATOM     11  H   UNL     1       1.554   6.764  21.796  0.00  0.00    +0.000 HD
ENDROOT
BRANCH   1  18
ATOM     12  C   UNL     1      -1.751  10.368  18.520  0.00  0.00    +0.000 C 
ATOM     13  C   UNL     1      -0.923  11.226  19.436  0.00  0.00    +0.000 A 
ATOM     14  C   UNL     1      -1.559  12.220  20.202  0.00  0.00    +0.000 A 
ATOM     15  C   UNL     1      -0.867  13.022  21.125  0.00  0.00    +0.000 A 
ATOM     16  C   UNL     1       0.510  12.813  21.242  0.00  0.00    +0.000 A 
ATOM     17  C   UNL     1       1.170  11.845  20.479  0.00  0.00    +0.000 A 
ATOM     18  C   UNL     1       0.461  11.050  19.575  0.00  0.00    +0.000 A 
BRANCH  15  19
ATOM     19  N   UNL     1      -1.559  13.907  21.928  0.00  0.00    +0.000 N 
ATOM     20  C   UNL     1      -2.695  14.690  21.426  0.00  0.00    +0.000 C 
ATOM     21  C   UNL     1      -2.706  16.048  22.152  0.00  0.00    +0.000 C 
ATOM     22  O   UNL     1      -2.744  15.893  23.583  0.00  0.00    +0.000 OA
ATOM     23  C   UNL     1      -1.609  15.132  24.036  0.00  0.00    +0.000 C 
ATOM     24  C   UNL     1      -1.574  13.739  23.390  0.00  0.00    +0.000 C 
ENDBRANCH  15  19
ENDBRANCH   1  18
BRANCH   8  25
ATOM     25  C   UNL     1       3.558   5.900  17.953  0.00  0.00    +0.000 A 
ATOM     26  C   UNL     1       3.032   4.666  17.547  0.00  0.00    +0.000 A 
ATOM     27  C   UNL     1       3.794   3.796  16.763  0.00  0.00    +0.000 A 
ATOM     28  C   UNL     1       5.071   4.167  16.347  0.00  0.00    +0.000 A 
ATOM     29  C   UNL     1       5.591   5.406  16.719  0.00  0.00    +0.000 A 
ATOM     30  C   UNL     1       4.846   6.262  17.530  0.00  0.00    +0.000 A 
ENDBRANCH   8  25
TORSDOF 3
ENDMDL
MODEL 5
REMARK VINA RESULT:      -7.8      1.968      2.385
REMARK  Name = 
REMARK  4 active torsions:
REMARK  status: ('A' for Active; 'I' for Inactive)
REMARK    1  A    between atoms: C_1  and  C_2
REMARK    2  A    between atoms: C_4  and  N_5
REMARK    3  A    between atoms: C_13  and  C_14
REMARK    4  A    between atoms: N_21  and  C_22
REMARK                            x       y       z     vdW  Elec       q    Type
REMARK                         _______ _______ _______ _____ _____    ______ ____
ROOT
ATOM      1  C   UNL     1       1.327  10.265  18.604  0.00  0.00    +0.000 C 
ATOM      2  C   UNL     1       1.452   9.037  19.144  0.00  0.00    +0.000 C 
ATOM      3  C   UNL     1       0.922   8.680  20.474  0.00  0.00    +0.000 C 
ATOM      4  O   UNL     1       0.036   9.282  21.070  0.00  0.00    +0.000 OA
ATOM      5  N   UNL     1       1.468   7.559  21.012  0.00  0.00    +0.000 N 
ATOM      6  C   UNL     1       2.128   6.569  20.345  0.00  0.00    +0.000 C 
ATOM      7  O   UNL     1       2.291   5.502  20.938  0.00  0.00    +0.000 OA
ATOM      8  N   UNL     1       2.487   6.828  19.025  0.00  0.00    +0.000 N 
ATOM      9  C   UNL     1       2.209   8.022  18.357  0.00  0.00    +0.000 C 
ATOM     10  O   UNL     1       2.586   8.288  17.215  0.00  0.00    +0.000 OA
ATOM     11  H   UNL     1       1.095   7.285  21.911  0.00  0.00    +0.000 HD
ENDROOT
BRANCH   1  18
ATOM     12  C   UNL     1      -1.549  10.892  18.145  0.00  0.00    +0.000 C 
ATOM     13  C   UNL     1      -0.659  11.745  19.006  0.00  0.00    +0.000 A 
ATOM     14  C   UNL     1      -1.198  12.883  19.630  0.00  0.00    +0.000 A 
ATOM     15  C   UNL     1      -0.450  13.697  20.497  0.00  0.00    +0.000 A 
ATOM     16  C   UNL     1       0.887  13.345  20.703  0.00  0.00    +0.000 A 
ATOM     17  C   UNL     1       1.453  12.229  20.080  0.00  0.00    +0.000 A 
ATOM     18  C   UNL     1       0.688  11.426  19.230  0.00  0.00    +0.000 A 
BRANCH  15  19
ATOM     19  N   UNL     1      -1.060  14.739  21.167  0.00  0.00    +0.000 N 
ATOM     20  C   UNL     1      -0.747  15.055  22.567  0.00  0.00    +0.000 C 
ATOM     21  C   UNL     1      -2.022  15.597  23.238  0.00  0.00    +0.000 C 
ATOM     22  O   UNL     1      -2.561  16.730  22.533  0.00  0.00    +0.000 OA
ATOM     23  C   UNL     1      -2.867  16.376  21.171  0.00  0.00    +0.000 C 
ATOM     24  C   UNL     1      -1.618  15.882  20.427  0.00  0.00    +0.000 C 
ENDBRANCH  15  19
ENDBRANCH   1  18
BRANCH   8  25
ATOM     25  C   UNL     1       3.167   5.792  18.306  0.00  0.00    +0.000 A 
ATOM     26  C   UNL     1       2.448   4.735  17.732  0.00  0.00    +0.000 A 
ATOM     27  C   UNL     1       3.116   3.694  17.083  0.00  0.00    +0.000 A 
ATOM     28  C   UNL     1       4.505   3.719  16.970  0.00  0.00    +0.000 A 
ATOM     29  C   UNL     1       5.228   4.782  17.509  0.00  0.00    +0.000 A 
ATOM     30  C   UNL     1       4.564   5.806  18.186  0.00  0.00    +0.000 A 
ENDBRANCH   8  25
TORSDOF 3
ENDMDL
MODEL 6
REMARK VINA RESULT:      -7.8      1.524      1.793
REMARK  Name = 
REMARK  4 active torsions:
REMARK  status: ('A' for Active; 'I' for Inactive)
REMARK    1  A    between atoms: C_1  and  C_2
REMARK    2  A    between atoms: C_4  and  N_5
REMARK    3  A    between atoms: C_13  and  C_14
REMARK    4  A    between atoms: N_21  and  C_22
REMARK                            x       y       z     vdW  Elec       q    Type
REMARK                         _______ _______ _______ _____ _____    ______ ____
ROOT
ATOM      1  C   UNL     1       1.137  10.063  18.793  0.00  0.00    +0.000 C 
ATOM      2  C   UNL     1       1.456   8.820  19.202  0.00  0.00    +0.000 C 
ATOM      3  C   UNL     1       1.055   8.269  20.510  0.00  0.00    +0.000 C 
ATOM      4  O   UNL     1       0.130   8.682  21.201  0.00  0.00    +0.000 OA
ATOM      5  N   UNL     1       1.777   7.189  20.908  0.00  0.00    +0.000 N 
ATOM      6  C   UNL     1       2.525   6.369  20.118  0.00  0.00    +0.000 C 
ATOM      7  O   UNL     1       2.863   5.284  20.593  0.00  0.00    +0.000 OA
ATOM      8  N   UNL     1       2.771   6.798  18.816  0.00  0.00    +0.000 N 
ATOM      9  C   UNL     1       2.298   7.999  18.285  0.00  0.00    +0.000 C 
ATOM     10  O   UNL     1       2.571   8.421  17.160  0.00  0.00    +0.000 OA
ATOM     11  H   UNL     1       1.495   6.783  21.790  0.00  0.00    +0.000 HD
ENDROOT
BRANCH   1  18
ATOM     12  C   UNL     1      -1.800  10.407  18.431  0.00  0.00    +0.000 C 
ATOM     13  C   UNL     1      -0.996  11.246  19.384  0.00  0.00    +0.000 A 
ATOM     14  C   UNL     1      -1.647  12.232  20.146  0.00  0.00    +0.000 A 
ATOM     15  C   UNL     1      -0.979  13.017  21.101  0.00  0.00    +0.000 A 
ATOM     16  C   UNL     1       0.393  12.798  21.254  0.00  0.00    +0.000 A 
ATOM     17  C   UNL     1       1.070  11.837  20.497  0.00  0.00    +0.000 A 
ATOM     18  C   UNL     1       0.383  11.060  19.560  0.00  0.00    +0.000 A 
BRANCH  15  19
ATOM     19  N   UNL     1      -1.689  13.894  21.896  0.00  0.00    +0.000 N 
ATOM     20  C   UNL     1      -3.099  13.667  22.241  0.00  0.00    +0.000 C 
ATOM     21  C   UNL     1      -3.793  15.035  22.364  0.00  0.00    +0.000 C 
ATOM     22  O   UNL     1      -3.133  15.890  23.315  0.00  0.00    +0.000 OA
ATOM     23  C   UNL     1      -1.760  16.099  22.935  0.00  0.00    +0.000 C 
ATOM     24  C   UNL     1      -0.994  14.770  22.852  0.00  0.00    +0.000 C 
ENDBRANCH  15  19
ENDBRANCH   1  18
BRANCH   8  25
ATOM     25  C   UNL     1       3.544   5.939  17.968  0.00  0.00    +0.000 A 
ATOM     26  C   UNL     1       4.787   6.357  17.475  0.00  0.00    +0.000 A 
ATOM     27  C   UNL     1       5.510   5.544  16.600  0.00  0.00    +0.000 A 
ATOM     28  C   UNL     1       5.017   4.292  16.240  0.00  0.00    +0.000 A 
ATOM     29  C   UNL     1       3.796   3.853  16.749  0.00  0.00    +0.000 A 
ATOM     30  C   UNL     1       3.055   4.678  17.597  0.00  0.00    +0.000 A 
ENDBRANCH   8  25
TORSDOF 3
ENDMDL
MODEL 7
REMARK VINA RESULT:      -7.2      3.648      9.544
REMARK  Name = 
REMARK  4 active torsions:
REMARK  status: ('A' for Active; 'I' for Inactive)
REMARK    1  A    between atoms: C_1  and  C_2
REMARK    2  A    between atoms: C_4  and  N_5
REMARK    3  A    between atoms: C_13  and  C_14
REMARK    4  A    between atoms: N_21  and  C_22
REMARK                            x       y       z     vdW  Elec       q    Type
REMARK                         _______ _______ _______ _____ _____    ______ ____
ROOT
ATOM      1  C   UNL     1       0.217  11.341  19.237  0.00  0.00    +0.000 C 
ATOM      2  C   UNL     1       0.777  12.539  18.980  0.00  0.00    +0.000 C 
ATOM      3  C   UNL     1       2.182  12.704  18.559  0.00  0.00    +0.000 C 
ATOM      4  O   UNL     1       2.878  11.830  18.053  0.00  0.00    +0.000 OA
ATOM      5  N   UNL     1       2.675  13.958  18.728  0.00  0.00    +0.000 N 
ATOM      6  C   UNL     1       1.955  15.107  18.873  0.00  0.00    +0.000 C 
ATOM      7  O   UNL     1       2.556  16.171  18.719  0.00  0.00    +0.000 OA
ATOM      8  N   UNL     1       0.588  14.971  19.103  0.00  0.00    +0.000 N 
ATOM      9  C   UNL     1      -0.074  13.746  19.188  0.00  0.00    +0.000 C 
ATOM     10  O   UNL     1      -1.268  13.614  19.463  0.00  0.00    +0.000 OA
ATOM     11  H   UNL     1       3.627  14.093  18.418  0.00  0.00    +0.000 HD
ENDROOT
BRANCH   1  18
ATOM     12  C   UNL     1       0.766   9.742  21.690  0.00  0.00    +0.000 C 
ATOM     13  C   UNL     1       1.171   9.287  20.316  0.00  0.00    +0.000 A 
ATOM     14  C   UNL     1       1.831   8.053  20.171  0.00  0.00    +0.000 A 
ATOM     15  C   UNL     1       2.188   7.529  18.917  0.00  0.00    +0.000 A 
ATOM     16  C   UNL     1       1.884   8.303  17.794  0.00  0.00    +0.000 A 
ATOM     17  C   UNL     1       1.245   9.542  17.911  0.00  0.00    +0.000 A 
ATOM     18  C   UNL     1       0.888  10.039  19.167  0.00  0.00    +0.000 A 
BRANCH  15  19
ATOM     19  N   UNL     1       2.736   6.265  18.826  0.00  0.00    +0.000 N 
ATOM     20  C   UNL     1       3.733   5.918  17.805  0.00  0.00    +0.000 C 
ATOM     21  C   UNL     1       3.533   4.442  17.414  0.00  0.00    +0.000 C 
ATOM     22  O   UNL     1       3.601   3.569  18.556  0.00  0.00    +0.000 OA
ATOM     23  C   UNL     1       2.601   3.933  19.527  0.00  0.00    +0.000 C 
ATOM     24  C   UNL     1       2.783   5.382  20.003  0.00  0.00    +0.000 C 
ENDBRANCH  15  19
ENDBRANCH   1  18
BRANCH   8  25
ATOM     25  C   UNL     1      -0.185  16.170  19.242  0.00  0.00    +0.000 A 
ATOM     26  C   UNL     1      -0.635  16.861  18.109  0.00  0.00    +0.000 A 
ATOM     27  C   UNL     1      -1.335  18.062  18.244  0.00  0.00    +0.000 A 
ATOM     28  C   UNL     1      -1.625  18.562  19.512  0.00  0.00    +0.000 A 
ATOM     29  C   UNL     1      -1.210  17.867  20.646  0.00  0.00    +0.000 A 
ATOM     30  C   UNL     1      -0.481  16.685  20.513  0.00  0.00    +0.000 A 
ENDBRANCH   8  25
TORSDOF 3
ENDMDL
MODEL 8
REMARK VINA RESULT:      -7.1      3.578      9.526
REMARK  Name = 
REMARK  4 active torsions:
REMARK  status: ('A' for Active; 'I' for Inactive)
REMARK    1  A    between atoms: C_1  and  C_2
REMARK    2  A    between atoms: C_4  and  N_5
REMARK    3  A    between atoms: C_13  and  C_14
REMARK    4  A    between atoms: N_21  and  C_22
REMARK                            x       y       z     vdW  Elec       q    Type
REMARK                         _______ _______ _______ _____ _____    ______ ____
ROOT
ATOM      1  C   UNL     1       0.228  11.242  19.141  0.00  0.00    +0.000 C 
ATOM      2  C   UNL     1       0.769  12.457  18.926  0.00  0.00    +0.000 C 
ATOM      3  C   UNL     1       2.187  12.661  18.574  0.00  0.00    +0.000 C 
ATOM      4  O   UNL     1       2.928  11.812  18.093  0.00  0.00    +0.000 OA
ATOM      5  N   UNL     1       2.639  13.925  18.781  0.00  0.00    +0.000 N 
ATOM      6  C   UNL     1       1.885  15.054  18.905  0.00  0.00    +0.000 C 
ATOM      7  O   UNL     1       2.465  16.134  18.791  0.00  0.00    +0.000 OA
ATOM      8  N   UNL     1       0.513  14.882  19.067  0.00  0.00    +0.000 N 
ATOM      9  C   UNL     1      -0.122  13.640  19.105  0.00  0.00    +0.000 C 
ATOM     10  O   UNL     1      -1.324  13.475  19.321  0.00  0.00    +0.000 OA
ATOM     11  H   UNL     1       3.602  14.088  18.519  0.00  0.00    +0.000 HD
ENDROOT
BRANCH   1  18
ATOM     12  C   UNL     1       0.739   9.649  21.606  0.00  0.00    +0.000 C 
ATOM     13  C   UNL     1       1.200   9.209  20.244  0.00  0.00    +0.000 A 
ATOM     14  C   UNL     1       1.895   7.994  20.116  0.00  0.00    +0.000 A 
ATOM     15  C   UNL     1       2.306   7.483  18.873  0.00  0.00    +0.000 A 
ATOM     16  C   UNL     1       2.017   8.254  17.743  0.00  0.00    +0.000 A 
ATOM     17  C   UNL     1       1.343   9.475  17.844  0.00  0.00    +0.000 A 
ATOM     18  C   UNL     1       0.934   9.958  19.089  0.00  0.00    +0.000 A 
BRANCH  15  19
ATOM     19  N   UNL     1       2.888   6.234  18.796  0.00  0.00    +0.000 N 
ATOM     20  C   UNL     1       2.140   5.005  19.091  0.00  0.00    +0.000 C 
ATOM     21  C   UNL     1       3.109   3.985  19.714  0.00  0.00    +0.000 C 
ATOM     22  O   UNL     1       4.248   3.737  18.869  0.00  0.00    +0.000 OA
ATOM     23  C   UNL     1       4.961   4.962  18.616  0.00  0.00    +0.000 C 
ATOM     24  C   UNL     1       4.061   6.005  17.937  0.00  0.00    +0.000 C 
ENDBRANCH  15  19
ENDBRANCH   1  18
BRANCH   8  25
ATOM     25  C   UNL     1      -0.296  16.060  19.182  0.00  0.00    +0.000 A 
ATOM     26  C   UNL     1      -0.845  16.428  20.417  0.00  0.00    +0.000 A 
ATOM     27  C   UNL     1      -1.682  17.541  20.516  0.00  0.00    +0.000 A 
ATOM     28  C   UNL     1      -1.947  18.318  19.390  0.00  0.00    +0.000 A 
ATOM     29  C   UNL     1      -1.381  17.979  18.162  0.00  0.00    +0.000 A 
ATOM     30  C   UNL     1      -0.572  16.848  18.055  0.00  0.00    +0.000 A 
ENDBRANCH   8  25
TORSDOF 3
ENDMDL
MODEL 9
REMARK VINA RESULT:      -7.0      1.823      2.649
REMARK  Name = 
REMARK  4 active torsions:
REMARK  status: ('A' for Active; 'I' for Inactive)
REMARK    1  A    between atoms: C_1  and  C_2
REMARK    2  A    between atoms: C_4  and  N_5
REMARK    3  A    between atoms: C_13  and  C_14
REMARK    4  A    between atoms: N_21  and  C_22
REMARK                            x       y       z     vdW  Elec       q    Type
REMARK                         _______ _______ _______ _____ _____    ______ ____
ROOT
ATOM      1  C   UNL     1       0.752  10.466  18.596  0.00  0.00    +0.000 C 
ATOM      2  C   UNL     1       1.093   9.269  19.111  0.00  0.00    +0.000 C 
ATOM      3  C   UNL     1       0.700   8.828  20.463  0.00  0.00    +0.000 C 
ATOM      4  O   UNL     1      -0.232   9.284  21.116  0.00  0.00    +0.000 OA
ATOM      5  N   UNL     1       1.441   7.800  20.955  0.00  0.00    +0.000 N 
ATOM      6  C   UNL     1       2.205   6.927  20.239  0.00  0.00    +0.000 C 
ATOM      7  O   UNL     1       2.562   5.895  20.807  0.00  0.00    +0.000 OA
ATOM      8  N   UNL     1       2.444   7.245  18.904  0.00  0.00    +0.000 N 
ATOM      9  C   UNL     1       1.950   8.386  18.270  0.00  0.00    +0.000 C 
ATOM     10  O   UNL     1       2.217   8.712  17.112  0.00  0.00    +0.000 OA
ATOM     11  H   UNL     1       1.165   7.468  21.869  0.00  0.00    +0.000 HD
ENDROOT
BRANCH   1  18
ATOM     12  C   UNL     1       2.091  12.655  20.109  0.00  0.00    +0.000 C 
ATOM     13  C   UNL     1       0.596  12.536  20.006  0.00  0.00    +0.000 A 
ATOM     14  C   UNL     1      -0.212  13.495  20.640  0.00  0.00    +0.000 A 
ATOM     15  C   UNL     1      -1.614  13.489  20.542  0.00  0.00    +0.000 A 
ATOM     16  C   UNL     1      -2.194  12.458  19.797  0.00  0.00    +0.000 A 
ATOM     17  C   UNL     1      -1.414  11.480  19.171  0.00  0.00    +0.000 A 
ATOM     18  C   UNL     1      -0.021  11.512  19.273  0.00  0.00    +0.000 A 
BRANCH  15  19
ATOM     19  N   UNL     1      -2.352  14.517  21.094  0.00  0.00    +0.000 N 
ATOM     20  C   UNL     1      -1.907  15.915  21.032  0.00  0.00    +0.000 C 
ATOM     21  C   UNL     1      -2.382  16.631  22.311  0.00  0.00    +0.000 C 
ATOM     22  O   UNL     1      -3.805  16.521  22.493  0.00  0.00    +0.000 OA
ATOM     23  C   UNL     1      -4.198  15.138  22.561  0.00  0.00    +0.000 C 
ATOM     24  C   UNL     1      -3.805  14.379  21.285  0.00  0.00    +0.000 C 
ENDBRANCH  15  19
ENDBRANCH   1  18
BRANCH   8  25
ATOM     25  C   UNL     1       3.233   6.329  18.134  0.00  0.00    +0.000 A 
ATOM     26  C   UNL     1       2.733   5.061  17.808  0.00  0.00    +0.000 A 
ATOM     27  C   UNL     1       3.526   4.147  17.110  0.00  0.00    +0.000 A 
ATOM     28  C   UNL     1       4.808   4.505  16.698  0.00  0.00    +0.000 A 
ATOM     29  C   UNL     1       5.303   5.775  16.990  0.00  0.00    +0.000 A 
ATOM     30  C   UNL     1       4.526   6.678  17.716  0.00  0.00    +0.000 A 
ENDBRANCH   8  25
TORSDOF 3
ENDMDL
