MODEL 1
REMARK VINA RESULT:      -8.0      0.000      0.000
REMARK  Name = 
REMARK  13 active torsions:
REMARK  status: ('A' for Active; 'I' for Inactive)
REMARK    1  A    between atoms: C_1  and  C_2
REMARK    2  A    between atoms: C_2  and  C_3
REMARK    3  A    between atoms: C_3  and  N_4
REMARK    4  A    between atoms: C_5  and  N_6
REMARK    5  A    between atoms: C_7  and  C_8
REMARK    6  A    between atoms: C_8  and  C_10
REMARK    7  A    between atoms: C_10  and  N_11
REMARK    8  A    between atoms: N_11  and  C_12
REMARK    9  A    between atoms: N_11  and  C_13
REMARK   10  A    between atoms: C_13  and  C_14
REMARK   11  A    between atoms: N_16  and  C_17
REMARK   12  A    between atoms: C_19  and  C_20
REMARK   13  A    between atoms: C_23  and  C_24
REMARK                            x       y       z     vdW  Elec       q    Type
REMARK                         _______ _______ _______ _____ _____    ______ ____
ROOT
ATOM      1  C   UNL     1       5.344   4.541  18.315  0.00  0.00    +0.000 C 
ATOM      2  O   UNL     1       5.974   4.304  19.354  0.00  0.00    +0.000 OA
ENDROOT
BRANCH   1   5
ATOM      3  N   UNL     1       6.510   4.203  14.741  0.00  0.00    +0.000 N 
ATOM      4  C   UNL     1       5.901   3.924  15.968  0.00  0.00    +0.000 A 
ATOM      5  C   UNL     1       6.098   4.761  17.022  0.00  0.00    +0.000 A 
ATOM      6  C   UNL     1       7.004   5.921  16.839  0.00  0.00    +0.000 A 
ATOM      7  O   UNL     1       7.201   6.764  17.708  0.00  0.00    +0.000 OA
ATOM      8  N   UNL     1       7.621   6.039  15.637  0.00  0.00    +0.000 N 
ATOM      9  C   UNL     1       7.353   5.284  14.541  0.00  0.00    +0.000 A 
ATOM     10  O   UNL     1       7.845   5.598  13.459  0.00  0.00    +0.000 OA
ATOM     11  H   UNL     1       8.222   6.838  15.497  0.00  0.00    +0.000 HD
BRANCH   4  12
ATOM     12  N   UNL     1       5.110   2.785  16.062  0.00  0.00    +0.000 N 
ATOM     13  H   UNL     1       5.625   1.963  16.358  0.00  0.00    +0.000 HD
ATOM     14  H   UNL     1       4.596   2.584  15.192  0.00  0.00    +0.000 HD
ENDBRANCH   4  12
BRANCH   3  15
ATOM     15  C   UNL     1       6.259   3.351  13.569  0.00  0.00    +0.000 C 
BRANCH  15  17
ATOM     16  C   UNL     1       4.727   2.902  11.619  0.00  0.00    +0.000 C 
ATOM     17  C   UNL     1       5.102   3.883  12.718  0.00  0.00    +0.000 C 
ENDBRANCH  15  17
ENDBRANCH   3  15
ENDBRANCH   1   5
BRANCH   1  18
ATOM     18  C   UNL     1       3.808   4.529  18.274  0.00  0.00    +0.000 C 
BRANCH  18  19
ATOM     19  N   UNL     1       3.205   3.632  19.291  0.00  0.00    +0.000 NA
ATOM     20  C   UNL     1       4.026   2.430  19.501  0.00  0.00    +0.000 C 
BRANCH  19  21
ATOM     21  C   UNL     1       3.009   4.349  20.576  0.00  0.00    +0.000 C 
BRANCH  21  22
ATOM     22  C   UNL     1       1.938   5.444  20.486  0.00  0.00    +0.000 C 
ATOM     23  O   UNL     1       0.738   5.174  20.493  0.00  0.00    +0.000 OA
ATOM     24  N   UNL     1       2.456   6.727  20.418  0.00  0.00    +0.000 N 
ATOM     25  H   UNL     1       3.374   6.822  20.003  0.00  0.00    +0.000 HD
BRANCH  24  26
ATOM     26  C   UNL     1       1.640   7.875  20.451  0.00  0.00    +0.000 A 
ATOM     27  C   UNL     1       0.971   8.231  21.632  0.00  0.00    +0.000 A 
ATOM     28  C   UNL     1       0.183   9.387  21.689  0.00  0.00    +0.000 A 
ATOM     29  C   UNL     1      -0.518   9.789  22.952  0.00  0.00    +0.000 C 
ATOM     30  C   UNL     1       0.055  10.170  20.544  0.00  0.00    +0.000 A 
ATOM     31  C   UNL     1       0.720   9.822  19.363  0.00  0.00    +0.000 A 
ATOM     32  C   UNL     1       1.523   8.673  19.304  0.00  0.00    +0.000 A 
ATOM     33  C   UNL     1       2.183   8.297  18.008  0.00  0.00    +0.000 C 
ENDBRANCH  24  26
ENDBRANCH  21  22
ENDBRANCH  19  21
ENDBRANCH  18  19
ENDBRANCH   1  18
TORSDOF 9
ENDMDL
MODEL 2
REMARK VINA RESULT:      -7.9      3.501      6.144
REMARK  Name = 
REMARK  13 active torsions:
REMARK  status: ('A' for Active; 'I' for Inactive)
REMARK    1  A    between atoms: C_1  and  C_2
REMARK    2  A    between atoms: C_2  and  C_3
REMARK    3  A    between atoms: C_3  and  N_4
REMARK    4  A    between atoms: C_5  and  N_6
REMARK    5  A    between atoms: C_7  and  C_8
REMARK    6  A    between atoms: C_8  and  C_10
REMARK    7  A    between atoms: C_10  and  N_11
REMARK    8  A    between atoms: N_11  and  C_12
REMARK    9  A    between atoms: N_11  and  C_13
REMARK   10  A    between atoms: C_13  and  C_14
REMARK   11  A    between atoms: N_16  and  C_17
REMARK   12  A    between atoms: C_19  and  C_20
REMARK   13  A    between atoms: C_23  and  C_24
REMARK                            x       y       z     vdW  Elec       q    Type
REMARK                         _______ _______ _______ _____ _____    ______ ____
ROOT
ATOM      1  C   UNL     1       2.087   7.607  19.024  0.00  0.00    +0.000 C 
ATOM      2  O   UNL     1       1.700   8.035  17.929  0.00  0.00    +0.000 OA
ENDROOT
BRANCH   1   5
ATOM      3  N   UNL     1       4.786   5.031  18.456  0.00  0.00    +0.000 N 
ATOM      4  C   UNL     1       3.992   6.171  18.309  0.00  0.00    +0.000 A 
ATOM      5  C   UNL     1       2.882   6.322  19.082  0.00  0.00    +0.000 A 
ATOM      6  C   UNL     1       2.528   5.231  20.023  0.00  0.00    +0.000 A 
ATOM      7  O   UNL     1       1.583   5.296  20.803  0.00  0.00    +0.000 OA
ATOM      8  N   UNL     1       3.313   4.126  20.011  0.00  0.00    +0.000 N 
ATOM      9  C   UNL     1       4.483   4.002  19.334  0.00  0.00    +0.000 A 
ATOM     10  O   UNL     1       5.198   3.023  19.538  0.00  0.00    +0.000 OA
ATOM     11  H   UNL     1       3.092   3.389  20.664  0.00  0.00    +0.000 HD
BRANCH   4  12
ATOM     12  N   UNL     1       4.372   7.117  17.364  0.00  0.00    +0.000 N 
ATOM     13  H   UNL     1       5.218   7.617  17.615  0.00  0.00    +0.000 HD
ATOM     14  H   UNL     1       3.619   7.786  17.145  0.00  0.00    +0.000 HD
ENDBRANCH   4  12
BRANCH   3  15
ATOM     15  C   UNL     1       6.026   4.877  17.680  0.00  0.00    +0.000 C 
BRANCH  15  17
ATOM     16  C   UNL     1       7.815   5.675  19.265  0.00  0.00    +0.000 C 
ATOM     17  C   UNL     1       7.036   5.984  17.997  0.00  0.00    +0.000 C 
ENDBRANCH  15  17
ENDBRANCH   3  15
ENDBRANCH   1   5
BRANCH   1  18
ATOM     18  C   UNL     1       1.865   8.390  20.327  0.00  0.00    +0.000 C 
BRANCH  18  19
ATOM     19  N   UNL     1       0.514   8.996  20.420  0.00  0.00    +0.000 NA
ATOM     20  C   UNL     1      -0.165   8.604  21.665  0.00  0.00    +0.000 C 
BRANCH  19  21
ATOM     21  C   UNL     1       0.593  10.475  20.323  0.00  0.00    +0.000 C 
BRANCH  21  22
ATOM     22  C   UNL     1      -0.281  11.043  19.197  0.00  0.00    +0.000 C 
ATOM     23  O   UNL     1       0.096  11.983  18.500  0.00  0.00    +0.000 OA
ATOM     24  N   UNL     1      -1.492  10.387  19.047  0.00  0.00    +0.000 N 
ATOM     25  H   UNL     1      -1.878   9.955  19.876  0.00  0.00    +0.000 HD
BRANCH  24  26
ATOM     26  C   UNL     1      -2.383  10.677  17.995  0.00  0.00    +0.000 A 
ATOM     27  C   UNL     1      -2.159  10.148  16.715  0.00  0.00    +0.000 A 
ATOM     28  C   UNL     1      -3.055  10.400  15.668  0.00  0.00    +0.000 A 
ATOM     29  C   UNL     1      -2.837   9.821  14.302  0.00  0.00    +0.000 C 
ATOM     30  C   UNL     1      -4.164  11.206  15.913  0.00  0.00    +0.000 A 
ATOM     31  C   UNL     1      -4.394  11.736  17.186  0.00  0.00    +0.000 A 
ATOM     32  C   UNL     1      -3.509  11.474  18.243  0.00  0.00    +0.000 A 
ATOM     33  C   UNL     1      -3.755  12.100  19.587  0.00  0.00    +0.000 C 
ENDBRANCH  24  26
ENDBRANCH  21  22
ENDBRANCH  19  21
ENDBRANCH  18  19
ENDBRANCH   1  18
TORSDOF 9
ENDMDL
MODEL 3
REMARK VINA RESULT:      -7.9      2.382      8.015
REMARK  Name = 
REMARK  13 active torsions:
REMARK  status: ('A' for Active; 'I' for Inactive)
REMARK    1  A    between atoms: C_1  and  C_2
REMARK    2  A    between atoms: C_2  and  C_3
REMARK    3  A    between atoms: C_3  and  N_4
REMARK    4  A    between atoms: C_5  and  N_6
REMARK    5  A    between atoms: C_7  and  C_8
REMARK    6  A    between atoms: C_8  and  C_10
REMARK    7  A    between atoms: C_10  and  N_11
REMARK    8  A    between atoms: N_11  and  C_12
REMARK    9  A    between atoms: N_11  and  C_13
REMARK   10  A    between atoms: C_13  and  C_14
REMARK   11  A    between atoms: N_16  and  C_17
REMARK   12  A    between atoms: C_19  and  C_20
REMARK   13  A    between atoms: C_23  and  C_24
REMARK                            x       y       z     vdW  Elec       q    Type
REMARK                         _______ _______ _______ _____ _____    ______ ____
ROOT
ATOM      1  C   UNL     1       2.502   6.345  20.002  0.00  0.00    +0.000 C 
ATOM      2  O   UNL     1       3.719   6.121  19.984  0.00  0.00    +0.000 OA
ENDROOT
BRANCH   1   5
ATOM      3  N   UNL     1       1.172   9.873  20.189  0.00  0.00    +0.000 N 
ATOM      4  C   UNL     1       1.532   8.572  20.552  0.00  0.00    +0.000 A 
ATOM      5  C   UNL     1       1.990   7.711  19.603  0.00  0.00    +0.000 A 
ATOM      6  C   UNL     1       2.039   8.178  18.196  0.00  0.00    +0.000 A 
ATOM      7  O   UNL     1       2.489   7.500  17.278  0.00  0.00    +0.000 OA
ATOM      8  N   UNL     1       1.572   9.426  17.942  0.00  0.00    +0.000 N 
ATOM      9  C   UNL     1       1.218  10.337  18.884  0.00  0.00    +0.000 A 
ATOM     10  O   UNL     1       0.979  11.494  18.544  0.00  0.00    +0.000 OA
ATOM     11  H   UNL     1       1.623   9.759  16.991  0.00  0.00    +0.000 HD
BRANCH   4  12
ATOM     12  N   UNL     1       1.403   8.205  21.887  0.00  0.00    +0.000 N 
ATOM     13  H   UNL     1       1.939   7.378  22.129  0.00  0.00    +0.000 HD
ATOM     14  H   UNL     1       0.420   8.084  22.172  0.00  0.00    +0.000 HD
ENDBRANCH   4  12
BRANCH   3  15
ATOM     15  C   UNL     1       0.739  10.842  21.207  0.00  0.00    +0.000 C 
BRANCH  15  17
ATOM     16  C   UNL     1      -1.192  11.657  22.606  0.00  0.00    +0.000 C 
ATOM     17  C   UNL     1      -0.778  10.801  21.420  0.00  0.00    +0.000 C 
ENDBRANCH  15  17
ENDBRANCH   3  15
ENDBRANCH   1   5
BRANCH   1  18
ATOM     18  C   UNL     1       1.478   5.247  20.330  0.00  0.00    +0.000 C 
BRANCH  18  19
ATOM     19  N   UNL     1       1.949   3.886  19.973  0.00  0.00    +0.000 NA
ATOM     20  C   UNL     1       1.232   2.853  20.736  0.00  0.00    +0.000 C 
BRANCH  19  21
ATOM     21  C   UNL     1       1.801   3.642  18.516  0.00  0.00    +0.000 C 
BRANCH  21  22
ATOM     22  C   UNL     1       3.142   3.383  17.819  0.00  0.00    +0.000 C 
ATOM     23  O   UNL     1       3.606   2.249  17.714  0.00  0.00    +0.000 OA
ATOM     24  N   UNL     1       3.742   4.529  17.321  0.00  0.00    +0.000 N 
ATOM     25  H   UNL     1       3.531   5.394  17.800  0.00  0.00    +0.000 HD
BRANCH  24  26
ATOM     26  C   UNL     1       4.916   4.490  16.544  0.00  0.00    +0.000 A 
ATOM     27  C   UNL     1       4.855   4.129  15.189  0.00  0.00    +0.000 A 
ATOM     28  C   UNL     1       6.009   4.119  14.397  0.00  0.00    +0.000 A 
ATOM     29  C   UNL     1       5.951   3.757  12.943  0.00  0.00    +0.000 C 
ATOM     30  C   UNL     1       7.229   4.453  14.982  0.00  0.00    +0.000 A 
ATOM     31  C   UNL     1       7.297   4.815  16.331  0.00  0.00    +0.000 A 
ATOM     32  C   UNL     1       6.142   4.842  17.126  0.00  0.00    +0.000 A 
ATOM     33  C   UNL     1       6.256   5.185  18.585  0.00  0.00    +0.000 C 
ENDBRANCH  24  26
ENDBRANCH  21  22
ENDBRANCH  19  21
ENDBRANCH  18  19
ENDBRANCH   1  18
TORSDOF 9
ENDMDL
MODEL 4
REMARK VINA RESULT:      -7.6      2.812      4.923
REMARK  Name = 
REMARK  13 active torsions:
REMARK  status: ('A' for Active; 'I' for Inactive)
REMARK    1  A    between atoms: C_1  and  C_2
REMARK    2  A    between atoms: C_2  and  C_3
REMARK    3  A    between atoms: C_3  and  N_4
REMARK    4  A    between atoms: C_5  and  N_6
REMARK    5  A    between atoms: C_7  and  C_8
REMARK    6  A    between atoms: C_8  and  C_10
REMARK    7  A    between atoms: C_10  and  N_11
REMARK    8  A    between atoms: N_11  and  C_12
REMARK    9  A    between atoms: N_11  and  C_13
REMARK   10  A    between atoms: C_13  and  C_14
REMARK   11  A    between atoms: N_16  and  C_17
REMARK   12  A    between atoms: C_19  and  C_20
REMARK   13  A    between atoms: C_23  and  C_24
REMARK                            x       y       z     vdW  Elec       q    Type
REMARK                         _______ _______ _______ _____ _____    ______ ____
ROOT
ATOM      1  C   UNL     1       2.705   5.649  18.728  0.00  0.00    +0.000 C 
ATOM      2  O   UNL     1       1.908   5.603  17.781  0.00  0.00    +0.000 OA
ENDROOT
BRANCH   1   5
ATOM      3  N   UNL     1       6.350   5.821  17.763  0.00  0.00    +0.000 N 
ATOM      4  C   UNL     1       4.990   6.128  17.862  0.00  0.00    +0.000 A 
ATOM      5  C   UNL     1       4.152   5.269  18.502  0.00  0.00    +0.000 A 
ATOM      6  C   UNL     1       4.713   4.001  19.029  0.00  0.00    +0.000 A 
ATOM      7  O   UNL     1       4.053   3.189  19.670  0.00  0.00    +0.000 OA
ATOM      8  N   UNL     1       6.025   3.759  18.789  0.00  0.00    +0.000 N 
ATOM      9  C   UNL     1       6.901   4.649  18.255  0.00  0.00    +0.000 A 
ATOM     10  O   UNL     1       8.101   4.382  18.248  0.00  0.00    +0.000 OA
ATOM     11  H   UNL     1       6.419   2.909  19.163  0.00  0.00    +0.000 HD
BRANCH   4  12
ATOM     12  N   UNL     1       4.544   7.315  17.292  0.00  0.00    +0.000 N 
ATOM     13  H   UNL     1       4.998   7.532  16.412  0.00  0.00    +0.000 HD
ATOM     14  H   UNL     1       4.617   8.117  17.934  0.00  0.00    +0.000 HD
ENDBRANCH   4  12
BRANCH   3  15
ATOM     15  C   UNL     1       7.287   6.765  17.135  0.00  0.00    +0.000 C 
BRANCH  15  17
ATOM     16  C   UNL     1       8.032   9.093  17.746  0.00  0.00    +0.000 C 
ATOM     17  C   UNL     1       7.998   7.636  18.176  0.00  0.00    +0.000 C 
ENDBRANCH  15  17
ENDBRANCH   3  15
ENDBRANCH   1   5
BRANCH   1  18
ATOM     18  C   UNL     1       2.293   6.171  20.112  0.00  0.00    +0.000 C 
BRANCH  18  19
ATOM     19  N   UNL     1       2.068   7.638  20.139  0.00  0.00    +0.000 NA
ATOM     20  C   UNL     1       1.863   8.174  18.786  0.00  0.00    +0.000 C 
BRANCH  19  21
ATOM     21  C   UNL     1       0.912   7.977  21.007  0.00  0.00    +0.000 C 
BRANCH  21  22
ATOM     22  C   UNL     1       1.022   9.381  21.617  0.00  0.00    +0.000 C 
ATOM     23  O   UNL     1       1.789   9.622  22.547  0.00  0.00    +0.000 OA
ATOM     24  N   UNL     1       0.200  10.318  21.011  0.00  0.00    +0.000 N 
ATOM     25  H   UNL     1      -0.649   9.968  20.588  0.00  0.00    +0.000 HD
BRANCH  24  26
ATOM     26  C   UNL     1       0.241  11.686  21.344  0.00  0.00    +0.000 A 
ATOM     27  C   UNL     1       1.146  12.543  20.700  0.00  0.00    +0.000 A 
ATOM     28  C   UNL     1       1.173  13.911  20.997  0.00  0.00    +0.000 A 
ATOM     29  C   UNL     1       2.121  14.840  20.298  0.00  0.00    +0.000 C 
ATOM     30  C   UNL     1       0.300  14.407  21.962  0.00  0.00    +0.000 A 
ATOM     31  C   UNL     1      -0.606  13.559  22.607  0.00  0.00    +0.000 A 
ATOM     32  C   UNL     1      -0.650  12.190  22.303  0.00  0.00    +0.000 A 
ATOM     33  C   UNL     1      -1.598  11.295  23.050  0.00  0.00    +0.000 C 
ENDBRANCH  24  26
ENDBRANCH  21  22
ENDBRANCH  19  21
ENDBRANCH  18  19
ENDBRANCH   1  18
TORSDOF 9
ENDMDL
MODEL 5
REMARK VINA RESULT:      -7.6      3.074      5.045
REMARK  Name = 
REMARK  13 active torsions:
REMARK  status: ('A' for Active; 'I' for Inactive)
REMARK    1  A    between atoms: C_1  and  C_2
REMARK    2  A    between atoms: C_2  and  C_3
REMARK    3  A    between atoms: C_3  and  N_4
REMARK    4  A    between atoms: C_5  and  N_6
REMARK    5  A    between atoms: C_7  and  C_8
REMARK    6  A    between atoms: C_8  and  C_10
REMARK    7  A    between atoms: C_10  and  N_11
REMARK    8  A    between atoms: N_11  and  C_12
REMARK    9  A    between atoms: N_11  and  C_13
REMARK   10  A    between atoms: C_13  and  C_14
REMARK   11  A    between atoms: N_16  and  C_17
REMARK   12  A    between atoms: C_19  and  C_20
REMARK   13  A    between atoms: C_23  and  C_24
REMARK                            x       y       z     vdW  Elec       q    Type
REMARK                         _______ _______ _______ _____ _____    ______ ____
ROOT
ATOM      1  C   UNL     1       4.206   6.685  17.195  0.00  0.00    +0.000 C 
ATOM      2  O   UNL     1       4.647   6.658  16.038  0.00  0.00    +0.000 OA
ENDROOT
BRANCH   1   5
ATOM      3  N   UNL     1       3.458   3.391  18.879  0.00  0.00    +0.000 N 
ATOM      4  C   UNL     1       3.293   4.582  18.166  0.00  0.00    +0.000 A 
ATOM      5  C   UNL     1       4.330   5.456  18.068  0.00  0.00    +0.000 A 
ATOM      6  C   UNL     1       5.594   5.131  18.775  0.00  0.00    +0.000 A 
ATOM      7  O   UNL     1       6.603   5.824  18.700  0.00  0.00    +0.000 OA
ATOM      8  N   UNL     1       5.610   3.998  19.519  0.00  0.00    +0.000 N 
ATOM      9  C   UNL     1       4.630   3.058  19.540  0.00  0.00    +0.000 A 
ATOM     10  O   UNL     1       4.831   1.990  20.113  0.00  0.00    +0.000 OA
ATOM     11  H   UNL     1       6.472   3.758  19.985  0.00  0.00    +0.000 HD
BRANCH   4  12
ATOM     12  N   UNL     1       2.056   4.828  17.581  0.00  0.00    +0.000 N 
ATOM     13  H   UNL     1       1.461   5.430  18.141  0.00  0.00    +0.000 HD
ATOM     14  H   UNL     1       1.553   3.963  17.335  0.00  0.00    +0.000 HD
ENDBRANCH   4  12
BRANCH   3  15
ATOM     15  C   UNL     1       2.374   2.400  18.943  0.00  0.00    +0.000 C 
BRANCH  15  17
ATOM     16  C   UNL     1       0.896   3.670  20.541  0.00  0.00    +0.000 C 
ATOM     17  C   UNL     1       1.690   2.394  20.314  0.00  0.00    +0.000 C 
ENDBRANCH  15  17
ENDBRANCH   3  15
ENDBRANCH   1   5
BRANCH   1  18
ATOM     18  C   UNL     1       3.615   7.963  17.810  0.00  0.00    +0.000 C 
BRANCH  18  19
ATOM     19  N   UNL     1       2.211   7.798  18.260  0.00  0.00    +0.000 NA
ATOM     20  C   UNL     1       2.126   7.693  19.725  0.00  0.00    +0.000 C 
BRANCH  19  21
ATOM     21  C   UNL     1       1.368   8.921  17.778  0.00  0.00    +0.000 C 
BRANCH  21  22
ATOM     22  C   UNL     1       1.069   9.952  18.874  0.00  0.00    +0.000 C 
ATOM     23  O   UNL     1       1.798  10.923  19.063  0.00  0.00    +0.000 OA
ATOM     24  N   UNL     1      -0.086   9.683  19.591  0.00  0.00    +0.000 N 
ATOM     25  H   UNL     1      -0.359   8.712  19.662  0.00  0.00    +0.000 HD
BRANCH  24  26
ATOM     26  C   UNL     1      -0.599  10.571  20.558  0.00  0.00    +0.000 A 
ATOM     27  C   UNL     1      -1.340  11.695  20.162  0.00  0.00    +0.000 A 
ATOM     28  C   UNL     1      -1.884  12.566  21.114  0.00  0.00    +0.000 A 
ATOM     29  C   UNL     1      -2.695  13.758  20.702  0.00  0.00    +0.000 C 
ATOM     30  C   UNL     1      -1.659  12.311  22.464  0.00  0.00    +0.000 A 
ATOM     31  C   UNL     1      -0.923  11.192  22.866  0.00  0.00    +0.000 A 
ATOM     32  C   UNL     1      -0.388  10.306  21.919  0.00  0.00    +0.000 A 
ATOM     33  C   UNL     1       0.441   9.142  22.380  0.00  0.00    +0.000 C 
ENDBRANCH  24  26
ENDBRANCH  21  22
ENDBRANCH  19  21
ENDBRANCH  18  19
ENDBRANCH   1  18
TORSDOF 9
ENDMDL
MODEL 6
REMARK VINA RESULT:      -7.5      2.693      4.239
REMARK  Name = 
REMARK  13 active torsions:
REMARK  status: ('A' for Active; 'I' for Inactive)
REMARK    1  A    between atoms: C_1  and  C_2
REMARK    2  A    between atoms: C_2  and  C_3
REMARK    3  A    between atoms: C_3  and  N_4
REMARK    4  A    between atoms: C_5  and  N_6
REMARK    5  A    between atoms: C_7  and  C_8
REMARK    6  A    between atoms: C_8  and  C_10
REMARK    7  A    between atoms: C_10  and  N_11
REMARK    8  A    between atoms: N_11  and  C_12
REMARK    9  A    between atoms: N_11  and  C_13
REMARK   10  A    between atoms: C_13  and  C_14
REMARK   11  A    between atoms: N_16  and  C_17
REMARK   12  A    between atoms: C_19  and  C_20
REMARK   13  A    between atoms: C_23  and  C_24
REMARK                            x       y       z     vdW  Elec       q    Type
REMARK                         _______ _______ _______ _____ _____    ______ ____
ROOT
ATOM      1  C   UNL     1       2.678   5.644  18.367  0.00  0.00    +0.000 C 
ATOM      2  O   UNL     1       1.802   5.005  17.769  0.00  0.00    +0.000 OA
ENDROOT
BRANCH   1   5
ATOM      3  N   UNL     1       6.340   5.689  17.451  0.00  0.00    +0.000 N 
ATOM      4  C   UNL     1       4.979   6.007  17.486  0.00  0.00    +0.000 A 
ATOM      5  C   UNL     1       4.128   5.239  18.218  0.00  0.00    +0.000 A 
ATOM      6  C   UNL     1       4.677   4.051  18.917  0.00  0.00    +0.000 A 
ATOM      7  O   UNL     1       4.005   3.330  19.647  0.00  0.00    +0.000 OA
ATOM      8  N   UNL     1       5.993   3.780  18.733  0.00  0.00    +0.000 N 
ATOM      9  C   UNL     1       6.880   4.592  18.102  0.00  0.00    +0.000 A 
ATOM     10  O   UNL     1       8.079   4.327  18.151  0.00  0.00    +0.000 OA
ATOM     11  H   UNL     1       6.379   2.987  19.222  0.00  0.00    +0.000 HD
BRANCH   4  12
ATOM     12  N   UNL     1       4.545   7.108  16.757  0.00  0.00    +0.000 N 
ATOM     13  H   UNL     1       3.534   7.194  16.725  0.00  0.00    +0.000 HD
ATOM     14  H   UNL     1       4.931   7.130  15.802  0.00  0.00    +0.000 HD
ENDBRANCH   4  12
BRANCH   3  15
ATOM     15  C   UNL     1       7.290   6.543  16.721  0.00  0.00    +0.000 C 
BRANCH  15  17
ATOM     16  C   UNL     1       8.406   7.875  18.546  0.00  0.00    +0.000 C 
ATOM     17  C   UNL     1       7.435   7.919  17.377  0.00  0.00    +0.000 C 
ENDBRANCH  15  17
ENDBRANCH   3  15
ENDBRANCH   1   5
BRANCH   1  18
ATOM     18  C   UNL     1       2.350   6.901  19.186  0.00  0.00    +0.000 C 
BRANCH  18  19
ATOM     19  N   UNL     1       1.484   6.624  20.359  0.00  0.00    +0.000 NA
ATOM     20  C   UNL     1       1.849   5.355  21.007  0.00  0.00    +0.000 C 
BRANCH  19  21
ATOM     21  C   UNL     1       1.550   7.737  21.338  0.00  0.00    +0.000 C 
BRANCH  21  22
ATOM     22  C   UNL     1       0.282   8.600  21.341  0.00  0.00    +0.000 C 
ATOM     23  O   UNL     1      -0.788   8.173  21.771  0.00  0.00    +0.000 OA
ATOM     24  N   UNL     1       0.476   9.878  20.839  0.00  0.00    +0.000 N 
ATOM     25  H   UNL     1       1.213   9.987  20.156  0.00  0.00    +0.000 HD
BRANCH  24  26
ATOM     26  C   UNL     1      -0.532  10.861  20.868  0.00  0.00    +0.000 A 
ATOM     27  C   UNL     1      -0.806  11.558  22.054  0.00  0.00    +0.000 A 
ATOM     28  C   UNL     1      -1.782  12.561  22.088  0.00  0.00    +0.000 A 
ATOM     29  C   UNL     1      -2.068  13.326  23.346  0.00  0.00    +0.000 C 
ATOM     30  C   UNL     1      -2.495  12.844  20.925  0.00  0.00    +0.000 A 
ATOM     31  C   UNL     1      -2.226  12.156  19.738  0.00  0.00    +0.000 A 
ATOM     32  C   UNL     1      -1.239  11.160  19.694  0.00  0.00    +0.000 A 
ATOM     33  C   UNL     1      -1.009  10.402  18.417  0.00  0.00    +0.000 C 
ENDBRANCH  24  26
ENDBRANCH  21  22
ENDBRANCH  19  21
ENDBRANCH  18  19
ENDBRANCH   1  18
TORSDOF 9
ENDMDL
MODEL 7
REMARK VINA RESULT:      -7.5      3.420      5.803
REMARK  Name = 
REMARK  13 active torsions:
REMARK  status: ('A' for Active; 'I' for Inactive)
REMARK    1  A    between atoms: C_1  and  C_2
REMARK    2  A    between atoms: C_2  and  C_3
REMARK    3  A    between atoms: C_3  and  N_4
REMARK    4  A    between atoms: C_5  and  N_6
REMARK    5  A    between atoms: C_7  and  C_8
REMARK    6  A    between atoms: C_8  and  C_10
REMARK    7  A    between atoms: C_10  and  N_11
REMARK    8  A    between atoms: N_11  and  C_12
REMARK    9  A    between atoms: N_11  and  C_13
REMARK   10  A    between atoms: C_13  and  C_14
REMARK   11  A    between atoms: N_16  and  C_17
REMARK   12  A    between atoms: C_19  and  C_20
REMARK   13  A    between atoms: C_23  and  C_24
REMARK                            x       y       z     vdW  Elec       q    Type
REMARK                         _______ _______ _______ _____ _____    ______ ____
ROOT
ATOM      1  C   UNL     1       2.004   7.647  18.440  0.00  0.00    +0.000 C 
ATOM      2  O   UNL     1       1.237   7.684  17.470  0.00  0.00    +0.000 OA
ENDROOT
BRANCH   1   5
ATOM      3  N   UNL     1       4.846   5.170  18.236  0.00  0.00    +0.000 N 
ATOM      4  C   UNL     1       3.999   6.243  17.940  0.00  0.00    +0.000 A 
ATOM      5  C   UNL     1       2.862   6.421  18.664  0.00  0.00    +0.000 A 
ATOM      6  C   UNL     1       2.535   5.427  19.717  0.00  0.00    +0.000 A 
ATOM      7  O   UNL     1       1.566   5.530  20.462  0.00  0.00    +0.000 OA
ATOM      8  N   UNL     1       3.376   4.371  19.851  0.00  0.00    +0.000 N 
ATOM      9  C   UNL     1       4.570   4.234  19.220  0.00  0.00    +0.000 A 
ATOM     10  O   UNL     1       5.326   3.324  19.553  0.00  0.00    +0.000 OA
ATOM     11  H   UNL     1       3.173   3.703  20.579  0.00  0.00    +0.000 HD
BRANCH   4  12
ATOM     12  N   UNL     1       4.359   7.093  16.901  0.00  0.00    +0.000 N 
ATOM     13  H   UNL     1       3.666   7.810  16.713  0.00  0.00    +0.000 HD
ATOM     14  H   UNL     1       4.587   6.587  16.033  0.00  0.00    +0.000 HD
ENDBRANCH   4  12
BRANCH   3  15
ATOM     15  C   UNL     1       6.114   4.995  17.512  0.00  0.00    +0.000 C 
BRANCH  15  17
ATOM     16  C   UNL     1       6.347   4.804  15.010  0.00  0.00    +0.000 C 
ATOM     17  C   UNL     1       5.949   4.087  16.290  0.00  0.00    +0.000 C 
ENDBRANCH  15  17
ENDBRANCH   3  15
ENDBRANCH   1   5
BRANCH   1  18
ATOM     18  C   UNL     1       2.186   8.849  19.379  0.00  0.00    +0.000 C 
BRANCH  18  19
ATOM     19  N   UNL     1       0.999   9.108  20.231  0.00  0.00    +0.000 NA
ATOM     20  C   UNL     1       1.154   8.508  21.565  0.00  0.00    +0.000 C 
BRANCH  19  21
ATOM     21  C   UNL     1       0.745  10.566  20.351  0.00  0.00    +0.000 C 
BRANCH  21  22
ATOM     22  C   UNL     1      -0.165  11.103  19.239  0.00  0.00    +0.000 C 
ATOM     23  O   UNL     1       0.193  12.012  18.494  0.00  0.00    +0.000 OA
ATOM     24  N   UNL     1      -1.389  10.456  19.160  0.00  0.00    +0.000 N 
ATOM     25  H   UNL     1      -1.746  10.059  20.019  0.00  0.00    +0.000 HD
BRANCH  24  26
ATOM     26  C   UNL     1      -2.317  10.718  18.133  0.00  0.00    +0.000 A 
ATOM     27  C   UNL     1      -2.133  10.163  16.857  0.00  0.00    +0.000 A 
ATOM     28  C   UNL     1      -3.065  10.388  15.837  0.00  0.00    +0.000 A 
ATOM     29  C   UNL     1      -2.890   9.783  14.476  0.00  0.00    +0.000 C 
ATOM     30  C   UNL     1      -4.171  11.192  16.102  0.00  0.00    +0.000 A 
ATOM     31  C   UNL     1      -4.362  11.747  17.372  0.00  0.00    +0.000 A 
ATOM     32  C   UNL     1      -3.440  11.513  18.403  0.00  0.00    +0.000 A 
ATOM     33  C   UNL     1      -3.645  12.164  19.741  0.00  0.00    +0.000 C 
ENDBRANCH  24  26
ENDBRANCH  21  22
ENDBRANCH  19  21
ENDBRANCH  18  19
ENDBRANCH   1  18
TORSDOF 9
ENDMDL
MODEL 8
REMARK VINA RESULT:      -7.5      2.035      3.725
REMARK  Name = 
REMARK  13 active torsions:
REMARK  status: ('A' for Active; 'I' for Inactive)
REMARK    1  A    between atoms: C_1  and  C_2
REMARK    2  A    between atoms: C_2  and  C_3
REMARK    3  A    between atoms: C_3  and  N_4
REMARK    4  A    between atoms: C_5  and  N_6
REMARK    5  A    between atoms: C_7  and  C_8
REMARK    6  A    between atoms: C_8  and  C_10
REMARK    7  A    between atoms: C_10  and  N_11
REMARK    8  A    between atoms: N_11  and  C_12
REMARK    9  A    between atoms: N_11  and  C_13
REMARK   10  A    between atoms: C_13  and  C_14
REMARK   11  A    between atoms: N_16  and  C_17
REMARK   12  A    between atoms: C_19  and  C_20
REMARK   13  A    between atoms: C_23  and  C_24
REMARK                            x       y       z     vdW  Elec       q    Type
REMARK                         _______ _______ _______ _____ _____    ______ ____
ROOT
ATOM      1  C   UNL     1       4.411   3.049  19.692  0.00  0.00    +0.000 C 
ATOM      2  O   UNL     1       5.197   2.213  20.157  0.00  0.00    +0.000 OA
ENDROOT
BRANCH   1   5
ATOM      3  N   UNL     1       6.229   5.308  17.275  0.00  0.00    +0.000 N 
ATOM      4  C   UNL     1       5.813   4.701  18.463  0.00  0.00    +0.000 A 
ATOM      5  C   UNL     1       4.788   3.807  18.438  0.00  0.00    +0.000 A 
ATOM      6  C   UNL     1       4.112   3.548  17.142  0.00  0.00    +0.000 A 
ATOM      7  O   UNL     1       3.218   2.719  17.004  0.00  0.00    +0.000 OA
ATOM      8  N   UNL     1       4.533   4.267  16.072  0.00  0.00    +0.000 N 
ATOM      9  C   UNL     1       5.622   5.077  16.051  0.00  0.00    +0.000 A 
ATOM     10  O   UNL     1       6.010   5.537  14.979  0.00  0.00    +0.000 OA
ATOM     11  H   UNL     1       4.093   4.081  15.183  0.00  0.00    +0.000 HD
BRANCH   4  12
ATOM     12  N   UNL     1       6.470   5.043  19.639  0.00  0.00    +0.000 N 
ATOM     13  H   UNL     1       6.177   5.939  20.014  0.00  0.00    +0.000 HD
ATOM     14  H   UNL     1       7.496   5.019  19.543  0.00  0.00    +0.000 HD
ENDBRANCH   4  12
BRANCH   3  15
ATOM     15  C   UNL     1       7.378   6.226  17.265  0.00  0.00    +0.000 C 
BRANCH  15  17
ATOM     16  C   UNL     1       8.105   8.552  17.906  0.00  0.00    +0.000 C 
ATOM     17  C   UNL     1       6.942   7.682  17.458  0.00  0.00    +0.000 C 
ENDBRANCH  15  17
ENDBRANCH   3  15
ENDBRANCH   1   5
BRANCH   1  18
ATOM     18  C   UNL     1       3.018   3.279  20.295  0.00  0.00    +0.000 C 
BRANCH  18  19
ATOM     19  N   UNL     1       2.352   4.500  19.776  0.00  0.00    +0.000 NA
ATOM     20  C   UNL     1       1.100   4.172  19.078  0.00  0.00    +0.000 C 
BRANCH  19  21
ATOM     21  C   UNL     1       2.090   5.464  20.874  0.00  0.00    +0.000 C 
BRANCH  21  22
ATOM     22  C   UNL     1       1.986   6.912  20.379  0.00  0.00    +0.000 C 
ATOM     23  O   UNL     1       2.434   7.254  19.287  0.00  0.00    +0.000 OA
ATOM     24  N   UNL     1       1.336   7.758  21.264  0.00  0.00    +0.000 N 
ATOM     25  H   UNL     1       1.391   7.516  22.244  0.00  0.00    +0.000 HD
BRANCH  24  26
ATOM     26  C   UNL     1       1.032   9.096  20.945  0.00  0.00    +0.000 A 
ATOM     27  C   UNL     1       1.490   9.657  19.743  0.00  0.00    +0.000 A 
ATOM     28  C   UNL     1       1.167  10.975  19.398  0.00  0.00    +0.000 A 
ATOM     29  C   UNL     1       1.632  11.577  18.105  0.00  0.00    +0.000 C 
ATOM     30  C   UNL     1       0.399  11.732  20.280  0.00  0.00    +0.000 A 
ATOM     31  C   UNL     1      -0.061  11.179  21.480  0.00  0.00    +0.000 A 
ATOM     32  C   UNL     1       0.245   9.854  21.824  0.00  0.00    +0.000 A 
ATOM     33  C   UNL     1      -0.221   9.306  23.143  0.00  0.00    +0.000 C 
ENDBRANCH  24  26
ENDBRANCH  21  22
ENDBRANCH  19  21
ENDBRANCH  18  19
ENDBRANCH   1  18
TORSDOF 9
ENDMDL
MODEL 9
REMARK VINA RESULT:      -7.5      1.631      2.584
REMARK  Name = 
REMARK  13 active torsions:
REMARK  status: ('A' for Active; 'I' for Inactive)
REMARK    1  A    between atoms: C_1  and  C_2
REMARK    2  A    between atoms: C_2  and  C_3
REMARK    3  A    between atoms: C_3  and  N_4
REMARK    4  A    between atoms: C_5  and  N_6
REMARK    5  A    between atoms: C_7  and  C_8
REMARK    6  A    between atoms: C_8  and  C_10
REMARK    7  A    between atoms: C_10  and  N_11
REMARK    8  A    between atoms: N_11  and  C_12
REMARK    9  A    between atoms: N_11  and  C_13
REMARK   10  A    between atoms: C_13  and  C_14
REMARK   11  A    between atoms: N_16  and  C_17
REMARK   12  A    between atoms: C_19  and  C_20
REMARK   13  A    between atoms: C_23  and  C_24
REMARK                            x       y       z     vdW  Elec       q    Type
REMARK                         _______ _______ _______ _____ _____    ______ ____
ROOT
ATOM      1  C   UNL     1       4.658   3.952  19.028  0.00  0.00    +0.000 C 
ATOM      2  O   UNL     1       4.335   2.774  19.228  0.00  0.00    +0.000 OA
ENDROOT
BRANCH   1   5
ATOM      3  N   UNL     1       5.881   4.589  15.514  0.00  0.00    +0.000 N 
ATOM      4  C   UNL     1       5.089   4.163  16.585  0.00  0.00    +0.000 A 
ATOM      5  C   UNL     1       5.553   4.290  17.857  0.00  0.00    +0.000 A 
ATOM      6  C   UNL     1       6.920   4.834  18.056  0.00  0.00    +0.000 A 
ATOM      7  O   UNL     1       7.406   5.042  19.163  0.00  0.00    +0.000 OA
ATOM      8  N   UNL     1       7.638   5.122  16.942  0.00  0.00    +0.000 N 
ATOM      9  C   UNL     1       7.156   5.109  15.673  0.00  0.00    +0.000 A 
ATOM     10  O   UNL     1       7.847   5.559  14.762  0.00  0.00    +0.000 OA
ATOM     11  H   UNL     1       8.559   5.513  17.069  0.00  0.00    +0.000 HD
BRANCH   4  12
ATOM     12  N   UNL     1       3.843   3.616  16.300  0.00  0.00    +0.000 N 
ATOM     13  H   UNL     1       3.535   2.941  16.992  0.00  0.00    +0.000 HD
ATOM     14  H   UNL     1       3.796   3.202  15.358  0.00  0.00    +0.000 HD
ENDBRANCH   4  12
BRANCH   3  15
ATOM     15  C   UNL     1       5.375   4.524  14.135  0.00  0.00    +0.000 C 
BRANCH  15  17
ATOM     16  C   UNL     1       5.384   3.210  11.985  0.00  0.00    +0.000 C 
ATOM     17  C   UNL     1       6.061   3.415  13.331  0.00  0.00    +0.000 C 
ENDBRANCH  15  17
ENDBRANCH   3  15
ENDBRANCH   1   5
BRANCH   1  18
ATOM     18  C   UNL     1       4.101   5.104  19.879  0.00  0.00    +0.000 C 
BRANCH  18  19
ATOM     19  N   UNL     1       2.798   5.616  19.387  0.00  0.00    +0.000 NA
ATOM     20  C   UNL     1       1.980   4.536  18.813  0.00  0.00    +0.000 C 
BRANCH  19  21
ATOM     21  C   UNL     1       2.055   6.298  20.476  0.00  0.00    +0.000 C 
BRANCH  21  22
ATOM     22  C   UNL     1       1.732   7.762  20.147  0.00  0.00    +0.000 C 
ATOM     23  O   UNL     1       1.886   8.217  19.016  0.00  0.00    +0.000 OA
ATOM     24  N   UNL     1       1.248   8.482  21.228  0.00  0.00    +0.000 N 
ATOM     25  H   UNL     1       1.549   8.178  22.144  0.00  0.00    +0.000 HD
BRANCH  24  26
ATOM     26  C   UNL     1       0.781   9.805  21.105  0.00  0.00    +0.000 A 
ATOM     27  C   UNL     1       1.113  10.570  19.976  0.00  0.00    +0.000 A 
ATOM     28  C   UNL     1       0.629  11.875  19.826  0.00  0.00    +0.000 A 
ATOM     29  C   UNL     1       0.959  12.692  18.613  0.00  0.00    +0.000 C 
ATOM     30  C   UNL     1      -0.174  12.413  20.829  0.00  0.00    +0.000 A 
ATOM     31  C   UNL     1      -0.511  11.656  21.957  0.00  0.00    +0.000 A 
ATOM     32  C   UNL     1      -0.041  10.343  22.106  0.00  0.00    +0.000 A 
ATOM     33  C   UNL     1      -0.377   9.574  23.352  0.00  0.00    +0.000 C 
ENDBRANCH  24  26
ENDBRANCH  21  22
ENDBRANCH  19  21
ENDBRANCH  18  19
ENDBRANCH   1  18
TORSDOF 9
ENDMDL
