MODEL 1
REMARK VINA RESULT:      -7.5      0.000      0.000
REMARK  Name = 
REMARK  5 active torsions:
REMARK  status: ('A' for Active; 'I' for Inactive)
REMARK    1  A    between atoms: C_1  and  C_2
REMARK    2  A    between atoms: C_2  and  C_4
REMARK    3  A    between atoms: C_7  and  N_8
REMARK    4  A    between atoms: N_8  and  S_9
REMARK    5  A    between atoms: S_9  and  C_12
REMARK                            x       y       z     vdW  Elec       q    Type
REMARK                         _______ _______ _______ _____ _____    ______ ____
ROOT
ATOM      1  N   UNL     1       7.447   6.155  15.953  0.00  0.00    +0.000 N 
ATOM      2  H   UNL     1       7.128   7.118  15.845  0.00  0.00    +0.000 HD
ENDROOT
BRANCH   1   6
ATOM      3  C   UNL     1       5.881   3.615  12.959  0.00  0.00    +0.000 A 
ATOM      4  C   UNL     1       5.245   3.715  14.202  0.00  0.00    +0.000 A 
ATOM      5  C   UNL     1       5.779   4.534  15.202  0.00  0.00    +0.000 A 
ATOM      6  C   UNL     1       6.943   5.264  14.960  0.00  0.00    +0.000 A 
ATOM      7  C   UNL     1       7.610   5.134  13.746  0.00  0.00    +0.000 A 
ATOM      8  C   UNL     1       7.077   4.315  12.744  0.00  0.00    +0.000 A 
BRANCH   3  10
ATOM      9  C   UNL     1       4.045   3.269  11.173  0.00  0.00    +0.000 C 
ATOM     10  C   UNL     1       5.314   2.802  11.841  0.00  0.00    +0.000 C 
ATOM     11  O   UNL     1       5.896   1.787  11.465  0.00  0.00    +0.000 OA
ENDBRANCH   3  10
ENDBRANCH   1   6
BRANCH   1  12
ATOM     12  S   UNL     1       7.230   5.712  17.575  0.00  0.00    +0.000 S 
ATOM     13  O   UNL     1       7.532   4.299  17.665  0.00  0.00    +0.000 OA
ATOM     14  O   UNL     1       7.901   6.672  18.423  0.00  0.00    +0.000 OA
BRANCH  12  15
ATOM     15  C   UNL     1       5.508   5.859  17.972  0.00  0.00    +0.000 A 
ATOM     16  C   UNL     1       4.522   6.727  17.543  0.00  0.00    +0.000 A 
ATOM     17  C   UNL     1       3.250   6.424  18.113  0.00  0.00    +0.000 A 
ATOM     18  C   UNL     1       3.332   5.347  18.958  0.00  0.00    +0.000 A 
ATOM     19 BR   UNL     1       1.863   4.629  19.870  0.00  0.00    +0.000 Br
ATOM     20  S   UNL     1       4.897   4.717  19.095  0.00  0.00    +0.000 S 
ENDBRANCH  12  15
ENDBRANCH   1  12
TORSDOF 4
ENDMDL
MODEL 2
REMARK VINA RESULT:      -7.4      1.050      1.625
REMARK  Name = 
REMARK  5 active torsions:
REMARK  status: ('A' for Active; 'I' for Inactive)
REMARK    1  A    between atoms: C_1  and  C_2
REMARK    2  A    between atoms: C_2  and  C_4
REMARK    3  A    between atoms: C_7  and  N_8
REMARK    4  A    between atoms: N_8  and  S_9
REMARK    5  A    between atoms: S_9  and  C_12
REMARK                            x       y       z     vdW  Elec       q    Type
REMARK                         _______ _______ _______ _____ _____    ______ ____
ROOT
ATOM      1  N   UNL     1       7.677   4.961  16.828  0.00  0.00    +0.000 N 
ATOM      2  H   UNL     1       8.692   5.034  16.752  0.00  0.00    +0.000 HD
ENDROOT
BRANCH   1   6
ATOM      3  C   UNL     1       5.835   3.738  13.226  0.00  0.00    +0.000 A 
ATOM      4  C   UNL     1       6.978   4.547  13.194  0.00  0.00    +0.000 A 
ATOM      5  C   UNL     1       7.570   4.974  14.387  0.00  0.00    +0.000 A 
ATOM      6  C   UNL     1       7.031   4.586  15.613  0.00  0.00    +0.000 A 
ATOM      7  C   UNL     1       5.868   3.823  15.656  0.00  0.00    +0.000 A 
ATOM      8  C   UNL     1       5.273   3.395  14.464  0.00  0.00    +0.000 A 
BRANCH   3  10
ATOM      9  C   UNL     1       5.735   1.926  11.385  0.00  0.00    +0.000 C 
ATOM     10  C   UNL     1       5.205   3.206  11.979  0.00  0.00    +0.000 C 
ATOM     11  O   UNL     1       4.256   3.800  11.472  0.00  0.00    +0.000 OA
ENDBRANCH   3  10
ENDBRANCH   1   6
BRANCH   1  12
ATOM     12  S   UNL     1       7.110   6.353  17.611  0.00  0.00    +0.000 S 
ATOM     13  O   UNL     1       7.760   6.398  18.905  0.00  0.00    +0.000 OA
ATOM     14  O   UNL     1       7.186   7.475  16.701  0.00  0.00    +0.000 OA
BRANCH  12  15
ATOM     15  C   UNL     1       5.382   6.143  17.952  0.00  0.00    +0.000 A 
ATOM     16  C   UNL     1       4.247   6.705  17.399  0.00  0.00    +0.000 A 
ATOM     17  C   UNL     1       3.051   6.183  17.976  0.00  0.00    +0.000 A 
ATOM     18  C   UNL     1       3.335   5.258  18.949  0.00  0.00    +0.000 A 
ATOM     19 BR   UNL     1       2.025   4.330  19.912  0.00  0.00    +0.000 Br
ATOM     20  S   UNL     1       4.994   5.028  19.194  0.00  0.00    +0.000 S 
ENDBRANCH  12  15
ENDBRANCH   1  12
TORSDOF 4
ENDMDL
MODEL 3
REMARK VINA RESULT:      -7.3      3.787      5.334
REMARK  Name = 
REMARK  5 active torsions:
REMARK  status: ('A' for Active; 'I' for Inactive)
REMARK    1  A    between atoms: C_1  and  C_2
REMARK    2  A    between atoms: C_2  and  C_4
REMARK    3  A    between atoms: C_7  and  N_8
REMARK    4  A    between atoms: N_8  and  S_9
REMARK    5  A    between atoms: S_9  and  C_12
REMARK                            x       y       z     vdW  Elec       q    Type
REMARK                         _______ _______ _______ _____ _____    ______ ____
ROOT
ATOM      1  N   UNL     1       3.393   2.380  19.153  0.00  0.00    +0.000 N 
ATOM      2  H   UNL     1       3.690   1.994  20.050  0.00  0.00    +0.000 HD
ENDROOT
BRANCH   1   6
ATOM      3  C   UNL     1       6.162   5.010  17.342  0.00  0.00    +0.000 A 
ATOM      4  C   UNL     1       5.375   4.163  16.553  0.00  0.00    +0.000 A 
ATOM      5  C   UNL     1       4.479   3.273  17.154  0.00  0.00    +0.000 A 
ATOM      6  C   UNL     1       4.359   3.235  18.543  0.00  0.00    +0.000 A 
ATOM      7  C   UNL     1       5.171   4.037  19.338  0.00  0.00    +0.000 A 
ATOM      8  C   UNL     1       6.069   4.927  18.738  0.00  0.00    +0.000 A 
BRANCH   3  10
ATOM      9  C   UNL     1       7.486   7.218  17.564  0.00  0.00    +0.000 C 
ATOM     10  C   UNL     1       7.088   6.019  16.742  0.00  0.00    +0.000 C 
ATOM     11  O   UNL     1       7.528   5.848  15.607  0.00  0.00    +0.000 OA
ENDBRANCH   3  10
ENDBRANCH   1   6
BRANCH   1  12
ATOM     12  S   UNL     1       1.824   2.993  19.343  0.00  0.00    +0.000 S 
ATOM     13  O   UNL     1       1.121   2.729  18.105  0.00  0.00    +0.000 OA
ATOM     14  O   UNL     1       1.290   2.548  20.611  0.00  0.00    +0.000 OA
BRANCH  12  15
ATOM     15  C   UNL     1       1.922   4.759  19.470  0.00  0.00    +0.000 A 
ATOM     16  C   UNL     1       1.993   5.615  20.553  0.00  0.00    +0.000 A 
ATOM     17  C   UNL     1       2.108   6.980  20.156  0.00  0.00    +0.000 A 
ATOM     18  C   UNL     1       2.106   7.099  18.789  0.00  0.00    +0.000 A 
ATOM     19 BR   UNL     1       2.272   8.731  17.889  0.00  0.00    +0.000 Br
ATOM     20  S   UNL     1       1.946   5.617  17.986  0.00  0.00    +0.000 S 
ENDBRANCH  12  15
ENDBRANCH   1  12
TORSDOF 4
ENDMDL
MODEL 4
REMARK VINA RESULT:      -7.3      3.591      4.550
REMARK  Name = 
REMARK  5 active torsions:
REMARK  status: ('A' for Active; 'I' for Inactive)
REMARK    1  A    between atoms: C_1  and  C_2
REMARK    2  A    between atoms: C_2  and  C_4
REMARK    3  A    between atoms: C_7  and  N_8
REMARK    4  A    between atoms: N_8  and  S_9
REMARK    5  A    between atoms: S_9  and  C_12
REMARK                            x       y       z     vdW  Elec       q    Type
REMARK                         _______ _______ _______ _____ _____    ______ ____
ROOT
ATOM      1  N   UNL     1       4.227   5.830  19.468  0.00  0.00    +0.000 N 
ATOM      2  H   UNL     1       4.587   6.677  19.910  0.00  0.00    +0.000 HD
ENDROOT
BRANCH   1   6
ATOM      3  C   UNL     1       6.007   5.093  15.705  0.00  0.00    +0.000 A 
ATOM      4  C   UNL     1       5.360   6.310  15.953  0.00  0.00    +0.000 A 
ATOM      5  C   UNL     1       4.747   6.542  17.188  0.00  0.00    +0.000 A 
ATOM      6  C   UNL     1       4.788   5.565  18.183  0.00  0.00    +0.000 A 
ATOM      7  C   UNL     1       5.385   4.334  17.931  0.00  0.00    +0.000 A 
ATOM      8  C   UNL     1       5.999   4.100  16.695  0.00  0.00    +0.000 A 
BRANCH   3  10
ATOM      9  C   UNL     1       6.132   3.844  13.446  0.00  0.00    +0.000 C 
ATOM     10  C   UNL     1       6.728   4.824  14.424  0.00  0.00    +0.000 C 
ATOM     11  O   UNL     1       7.775   5.417  14.175  0.00  0.00    +0.000 OA
ENDBRANCH   3  10
ENDBRANCH   1   6
BRANCH   1  12
ATOM     12  S   UNL     1       2.536   5.857  19.586  0.00  0.00    +0.000 S 
ATOM     13  O   UNL     1       2.026   5.169  18.418  0.00  0.00    +0.000 OA
ATOM     14  O   UNL     1       2.147   5.451  20.918  0.00  0.00    +0.000 OA
BRANCH  12  15
ATOM     15  C   UNL     1       1.989   7.537  19.428  0.00  0.00    +0.000 A 
ATOM     16  C   UNL     1       2.002   8.427  18.371  0.00  0.00    +0.000 A 
ATOM     17  C   UNL     1       1.397   9.674  18.709  0.00  0.00    +0.000 A 
ATOM     18  C   UNL     1       0.965   9.677  20.010  0.00  0.00    +0.000 A 
ATOM     19 BR   UNL     1       0.092  11.126  20.811  0.00  0.00    +0.000 Br
ATOM     20  S   UNL     1       1.292   8.232  20.830  0.00  0.00    +0.000 S 
ENDBRANCH  12  15
ENDBRANCH   1  12
TORSDOF 4
ENDMDL
MODEL 5
REMARK VINA RESULT:      -7.3      3.571      4.522
REMARK  Name = 
REMARK  5 active torsions:
REMARK  status: ('A' for Active; 'I' for Inactive)
REMARK    1  A    between atoms: C_1  and  C_2
REMARK    2  A    between atoms: C_2  and  C_4
REMARK    3  A    between atoms: C_7  and  N_8
REMARK    4  A    between atoms: N_8  and  S_9
REMARK    5  A    between atoms: S_9  and  C_12
REMARK                            x       y       z     vdW  Elec       q    Type
REMARK                         _______ _______ _______ _____ _____    ______ ____
ROOT
ATOM      1  N   UNL     1       4.253   5.855  19.512  0.00  0.00    +0.000 N 
ATOM      2  H   UNL     1       4.559   6.693  20.007  0.00  0.00    +0.000 HD
ENDROOT
BRANCH   1   6
ATOM      3  C   UNL     1       6.181   5.119  15.823  0.00  0.00    +0.000 A 
ATOM      4  C   UNL     1       6.228   4.164  16.846  0.00  0.00    +0.000 A 
ATOM      5  C   UNL     1       5.614   4.420  18.076  0.00  0.00    +0.000 A 
ATOM      6  C   UNL     1       4.942   5.624  18.284  0.00  0.00    +0.000 A 
ATOM      7  C   UNL     1       4.931   6.600  17.292  0.00  0.00    +0.000 A 
ATOM      8  C   UNL     1       5.545   6.346  16.061  0.00  0.00    +0.000 A 
BRANCH   3  10
ATOM      9  C   UNL     1       6.126   3.832  13.582  0.00  0.00    +0.000 C 
ATOM     10  C   UNL     1       6.769   4.864  14.473  0.00  0.00    +0.000 C 
ATOM     11  O   UNL     1       7.745   5.511  14.098  0.00  0.00    +0.000 OA
ENDBRANCH   3  10
ENDBRANCH   1   6
BRANCH   1  12
ATOM     12  S   UNL     1       2.559   5.867  19.461  0.00  0.00    +0.000 S 
ATOM     13  O   UNL     1       2.174   5.195  18.238  0.00  0.00    +0.000 OA
ATOM     14  O   UNL     1       2.042   5.437  20.742  0.00  0.00    +0.000 OA
BRANCH  12  15
ATOM     15  C   UNL     1       2.015   7.545  19.275  0.00  0.00    +0.000 A 
ATOM     16  C   UNL     1       2.010   8.411  18.197  0.00  0.00    +0.000 A 
ATOM     17  C   UNL     1       1.417   9.668  18.518  0.00  0.00    +0.000 A 
ATOM     18  C   UNL     1       1.011   9.703  19.828  0.00  0.00    +0.000 A 
ATOM     19 BR   UNL     1       0.159  11.174  20.612  0.00  0.00    +0.000 Br
ATOM     20  S   UNL     1       1.348   8.276  20.674  0.00  0.00    +0.000 S 
ENDBRANCH  12  15
ENDBRANCH   1  12
TORSDOF 4
ENDMDL
MODEL 6
REMARK VINA RESULT:      -7.3      1.176      1.905
REMARK  Name = 
REMARK  5 active torsions:
REMARK  status: ('A' for Active; 'I' for Inactive)
REMARK    1  A    between atoms: C_1  and  C_2
REMARK    2  A    between atoms: C_2  and  C_4
REMARK    3  A    between atoms: C_7  and  N_8
REMARK    4  A    between atoms: N_8  and  S_9
REMARK    5  A    between atoms: S_9  and  C_12
REMARK                            x       y       z     vdW  Elec       q    Type
REMARK                         _______ _______ _______ _____ _____    ______ ____
ROOT
ATOM      1  N   UNL     1       7.494   5.566  16.005  0.00  0.00    +0.000 N 
ATOM      2  H   UNL     1       8.367   6.046  15.785  0.00  0.00    +0.000 HD
ENDROOT
BRANCH   1   6
ATOM      3  C   UNL     1       5.800   3.505  12.726  0.00  0.00    +0.000 A 
ATOM      4  C   UNL     1       6.957   4.274  12.553  0.00  0.00    +0.000 A 
ATOM      5  C   UNL     1       7.501   4.979  13.633  0.00  0.00    +0.000 A 
ATOM      6  C   UNL     1       6.898   4.908  14.888  0.00  0.00    +0.000 A 
ATOM      7  C   UNL     1       5.721   4.187  15.060  0.00  0.00    +0.000 A 
ATOM      8  C   UNL     1       5.175   3.482  13.981  0.00  0.00    +0.000 A 
BRANCH   3  10
ATOM      9  C   UNL     1       3.944   3.154  10.962  0.00  0.00    +0.000 C 
ATOM     10  C   UNL     1       5.219   2.687  11.619  0.00  0.00    +0.000 C 
ATOM     11  O   UNL     1       5.794   1.668  11.243  0.00  0.00    +0.000 OA
ENDBRANCH   3  10
ENDBRANCH   1   6
BRANCH   1  12
ATOM     12  S   UNL     1       6.518   6.636  16.886  0.00  0.00    +0.000 S 
ATOM     13  O   UNL     1       7.405   7.411  17.728  0.00  0.00    +0.000 OA
ATOM     14  O   UNL     1       5.591   7.284  15.985  0.00  0.00    +0.000 OA
BRANCH  12  15
ATOM     15  C   UNL     1       5.510   5.691  17.997  0.00  0.00    +0.000 A 
ATOM     16  C   UNL     1       5.766   4.572  18.768  0.00  0.00    +0.000 A 
ATOM     17  C   UNL     1       4.639   4.189  19.554  0.00  0.00    +0.000 A 
ATOM     18  C   UNL     1       3.576   5.027  19.335  0.00  0.00    +0.000 A 
ATOM     19 BR   UNL     1       1.928   4.865  20.208  0.00  0.00    +0.000 Br
ATOM     20  S   UNL     1       3.898   6.237  18.195  0.00  0.00    +0.000 S 
ENDBRANCH  12  15
ENDBRANCH   1  12
TORSDOF 4
ENDMDL
MODEL 7
REMARK VINA RESULT:      -7.3      1.302      1.647
REMARK  Name = 
REMARK  5 active torsions:
REMARK  status: ('A' for Active; 'I' for Inactive)
REMARK    1  A    between atoms: C_1  and  C_2
REMARK    2  A    between atoms: C_2  and  C_4
REMARK    3  A    between atoms: C_7  and  N_8
REMARK    4  A    between atoms: N_8  and  S_9
REMARK    5  A    between atoms: S_9  and  C_12
REMARK                            x       y       z     vdW  Elec       q    Type
REMARK                         _______ _______ _______ _____ _____    ______ ____
ROOT
ATOM      1  N   UNL     1       7.415   5.764  15.904  0.00  0.00    +0.000 N 
ATOM      2  H   UNL     1       8.248   6.294  15.647  0.00  0.00    +0.000 HD
ENDROOT
BRANCH   1   6
ATOM      3  C   UNL     1       5.835   3.404  12.773  0.00  0.00    +0.000 A 
ATOM      4  C   UNL     1       5.314   3.297  14.068  0.00  0.00    +0.000 A 
ATOM      5  C   UNL     1       5.856   4.058  15.110  0.00  0.00    +0.000 A 
ATOM      6  C   UNL     1       6.911   4.935  14.858  0.00  0.00    +0.000 A 
ATOM      7  C   UNL     1       7.469   5.013  13.586  0.00  0.00    +0.000 A 
ATOM      8  C   UNL     1       6.928   4.252  12.543  0.00  0.00    +0.000 A 
BRANCH   3  10
ATOM      9  C   UNL     1       3.977   3.172  10.991  0.00  0.00    +0.000 C 
ATOM     10  C   UNL     1       5.249   2.659  11.618  0.00  0.00    +0.000 C 
ATOM     11  O   UNL     1       5.817   1.660  11.181  0.00  0.00    +0.000 OA
ENDBRANCH   3  10
ENDBRANCH   1   6
BRANCH   1  12
ATOM     12  S   UNL     1       6.324   6.832  16.641  0.00  0.00    +0.000 S 
ATOM     13  O   UNL     1       7.118   7.826  17.333  0.00  0.00    +0.000 OA
ATOM     14  O   UNL     1       5.317   7.221  15.679  0.00  0.00    +0.000 OA
BRANCH  12  15
ATOM     15  C   UNL     1       5.448   5.954  17.909  0.00  0.00    +0.000 A 
ATOM     16  C   UNL     1       5.839   4.983  18.811  0.00  0.00    +0.000 A 
ATOM     17  C   UNL     1       4.779   4.603  19.687  0.00  0.00    +0.000 A 
ATOM     18  C   UNL     1       3.630   5.295  19.401  0.00  0.00    +0.000 A 
ATOM     19 BR   UNL     1       2.032   5.094  20.355  0.00  0.00    +0.000 Br
ATOM     20  S   UNL     1       3.795   6.362  18.097  0.00  0.00    +0.000 S 
ENDBRANCH  12  15
ENDBRANCH   1  12
TORSDOF 4
ENDMDL
MODEL 8
REMARK VINA RESULT:      -7.2      0.957      1.606
REMARK  Name = 
REMARK  5 active torsions:
REMARK  status: ('A' for Active; 'I' for Inactive)
REMARK    1  A    between atoms: C_1  and  C_2
REMARK    2  A    between atoms: C_2  and  C_4
REMARK    3  A    between atoms: C_7  and  N_8
REMARK    4  A    between atoms: N_8  and  S_9
REMARK    5  A    between atoms: S_9  and  C_12
REMARK                            x       y       z     vdW  Elec       q    Type
REMARK                         _______ _______ _______ _____ _____    ______ ____
ROOT
ATOM      1  N   UNL     1       7.120   6.072  16.099  0.00  0.00    +0.000 N 
ATOM      2  H   UNL     1       6.556   6.900  16.293  0.00  0.00    +0.000 HD
ENDROOT
BRANCH   1   6
ATOM      3  C   UNL     1       5.802   3.700  12.858  0.00  0.00    +0.000 A 
ATOM      4  C   UNL     1       7.095   4.237  12.858  0.00  0.00    +0.000 A 
ATOM      5  C   UNL     1       7.521   5.045  13.918  0.00  0.00    +0.000 A 
ATOM      6  C   UNL     1       6.661   5.309  14.984  0.00  0.00    +0.000 A 
ATOM      7  C   UNL     1       5.358   4.821  14.970  0.00  0.00    +0.000 A 
ATOM      8  C   UNL     1       4.931   4.013  13.911  0.00  0.00    +0.000 A 
BRANCH   3  10
ATOM      9  C   UNL     1       4.028   3.096  11.079  0.00  0.00    +0.000 C 
ATOM     10  C   UNL     1       5.325   2.782  11.779  0.00  0.00    +0.000 C 
ATOM     11  O   UNL     1       6.001   1.806  11.462  0.00  0.00    +0.000 OA
ENDBRANCH   3  10
ENDBRANCH   1   6
BRANCH   1  12
ATOM     12  S   UNL     1       7.356   5.246  17.560  0.00  0.00    +0.000 S 
ATOM     13  O   UNL     1       8.126   4.060  17.249  0.00  0.00    +0.000 OA
ATOM     14  O   UNL     1       7.804   6.182  18.567  0.00  0.00    +0.000 OA
BRANCH  12  15
ATOM     15  C   UNL     1       5.784   4.658  18.133  0.00  0.00    +0.000 A 
ATOM     16  C   UNL     1       5.084   3.489  17.900  0.00  0.00    +0.000 A 
ATOM     17  C   UNL     1       3.859   3.439  18.631  0.00  0.00    +0.000 A 
ATOM     18  C   UNL     1       3.681   4.578  19.374  0.00  0.00    +0.000 A 
ATOM     19 BR   UNL     1       2.207   4.869  20.491  0.00  0.00    +0.000 Br
ATOM     20  S   UNL     1       4.934   5.702  19.192  0.00  0.00    +0.000 S 
ENDBRANCH  12  15
ENDBRANCH   1  12
TORSDOF 4
ENDMDL
MODEL 9
REMARK VINA RESULT:      -7.2      3.252      6.426
REMARK  Name = 
REMARK  5 active torsions:
REMARK  status: ('A' for Active; 'I' for Inactive)
REMARK    1  A    between atoms: C_1  and  C_2
REMARK    2  A    between atoms: C_2  and  C_4
REMARK    3  A    between atoms: C_7  and  N_8
REMARK    4  A    between atoms: N_8  and  S_9
REMARK    5  A    between atoms: S_9  and  C_12
REMARK                            x       y       z     vdW  Elec       q    Type
REMARK                         _______ _______ _______ _____ _____    ______ ____
ROOT
ATOM      1  N   UNL     1       5.187   5.931  16.614  0.00  0.00    +0.000 N 
ATOM      2  H   UNL     1       5.185   6.942  16.749  0.00  0.00    +0.000 HD
ENDROOT
BRANCH   1   6
ATOM      3  C   UNL     1       3.256   3.734  19.665  0.00  0.00    +0.000 A 
ATOM      4  C   UNL     1       3.336   3.217  18.367  0.00  0.00    +0.000 A 
ATOM      5  C   UNL     1       3.950   3.956  17.351  0.00  0.00    +0.000 A 
ATOM      6  C   UNL     1       4.496   5.209  17.632  0.00  0.00    +0.000 A 
ATOM      7  C   UNL     1       4.379   5.754  18.906  0.00  0.00    +0.000 A 
ATOM      8  C   UNL     1       3.764   5.015  19.924  0.00  0.00    +0.000 A 
BRANCH   3  10
ATOM      9  C   UNL     1       1.170   2.981  20.993  0.00  0.00    +0.000 C 
ATOM     10  C   UNL     1       2.664   2.955  20.795  0.00  0.00    +0.000 C 
ATOM     11  O   UNL     1       3.393   2.288  21.527  0.00  0.00    +0.000 OA
ENDBRANCH   3  10
ENDBRANCH   1   6
BRANCH   1  12
ATOM     12  S   UNL     1       6.777   5.455  16.267  0.00  0.00    +0.000 S 
ATOM     13  O   UNL     1       7.586   6.656  16.289  0.00  0.00    +0.000 OA
ATOM     14  O   UNL     1       7.119   4.312  17.085  0.00  0.00    +0.000 OA
BRANCH  12  15
ATOM     15  C   UNL     1       6.836   4.869  14.595  0.00  0.00    +0.000 A 
ATOM     16  C   UNL     1       7.649   5.186  13.523  0.00  0.00    +0.000 A 
ATOM     17  C   UNL     1       7.348   4.406  12.367  0.00  0.00    +0.000 A 
ATOM     18  C   UNL     1       6.312   3.541  12.612  0.00  0.00    +0.000 A 
ATOM     19 BR   UNL     1       5.650   2.330  11.348  0.00  0.00    +0.000 Br
ATOM     20  S   UNL     1       5.687   3.667  14.180  0.00  0.00    +0.000 S 
ENDBRANCH  12  15
ENDBRANCH   1  12
TORSDOF 4
ENDMDL
