MODEL 1
REMARK VINA RESULT:      -7.5      0.000      0.000
REMARK  Name = 
REMARK  10 active torsions:
REMARK  status: ('A' for Active; 'I' for Inactive)
REMARK    1  A    between atoms: C_1  and  C_2
REMARK    2  A    between atoms: C_2  and  C_3
REMARK    3  A    between atoms: C_3  and  C_4
REMARK    4  A    between atoms: C_3  and  N_5
REMARK    5  A    between atoms: C_6  and  C_8
REMARK    6  A    between atoms: C_8  and  N_9
REMARK    7  A    between atoms: C_10  and  C_11
REMARK    8  A    between atoms: C_18  and  C_19
REMARK    9  A    between atoms: C_19  and  C_20
REMARK   10  A    between atoms: C_22  and  C_23
REMARK                            x       y       z     vdW  Elec       q    Type
REMARK                         _______ _______ _______ _____ _____    ______ ____
ROOT
ATOM      1  N   UNL     1       5.419   5.555  17.954  0.00  0.00    +0.000 N 
ATOM      2  C   UNL     1       4.579   6.462  17.316  0.00  0.00    +0.000 A 
ATOM      3  C   UNL     1       4.941   6.412  15.975  0.00  0.00    +0.000 A 
ATOM      4  C   UNL     1       6.028   5.510  15.789  0.00  0.00    +0.000 A 
ATOM      5  C   UNL     1       6.358   5.054  17.061  0.00  0.00    +0.000 A 
ATOM      6  C   UNL     1       7.467   4.147  17.496  0.00  0.00    +0.000 C 
ENDROOT
BRANCH   2   7
ATOM      7  C   UNL     1       3.486   7.264  17.916  0.00  0.00    +0.000 A 
ATOM      8  C   UNL     1       2.884   6.959  19.143  0.00  0.00    +0.000 A 
ATOM      9  C   UNL     1       1.837   7.725  19.665  0.00  0.00    +0.000 A 
ATOM     10  C   UNL     1       1.400   8.855  18.991  0.00  0.00    +0.000 A 
ATOM     11  C   UNL     1       2.011   9.215  17.796  0.00  0.00    +0.000 A 
ATOM     12  C   UNL     1       3.037   8.425  17.263  0.00  0.00    +0.000 A 
ENDBRANCH   2   7
BRANCH   4  13
ATOM     13  C   UNL     1       6.681   5.136  14.521  0.00  0.00    +0.000 C 
ATOM     14  C   UNL     1       6.034   4.100  13.631  0.00  0.00    +0.000 C 
ATOM     15  O   UNL     1       7.772   5.603  14.189  0.00  0.00    +0.000 OA
ENDBRANCH   4  13
BRANCH   1  16
ATOM     16  C   UNL     1       5.339   5.133  19.352  0.00  0.00    +0.000 C 
BRANCH  16  18
ATOM     17  N   UNL     1       3.297   3.735  19.190  0.00  0.00    +0.000 N 
ATOM     18  C   UNL     1       4.616   3.815  19.589  0.00  0.00    +0.000 C 
ATOM     19  O   UNL     1       5.219   2.848  20.055  0.00  0.00    +0.000 OA
ATOM     20  H   UNL     1       2.800   4.588  18.953  0.00  0.00    +0.000 HD
BRANCH  17  21
ATOM     21  C   UNL     1       2.511   2.517  19.300  0.00  0.00    +0.000 C 
ATOM     22  C   UNL     1       2.397   1.840  17.934  0.00  0.00    +0.000 C 
BRANCH  21  24
ATOM     23  C   UNL     1       1.041   4.188  20.578  0.00  0.00    +0.000 C 
ATOM     24  C   UNL     1       1.148   2.810  19.940  0.00  0.00    +0.000 C 
ENDBRANCH  21  24
ENDBRANCH  17  21
ENDBRANCH  16  18
ENDBRANCH   1  16
TORSDOF 6
ENDMDL
MODEL 2
REMARK VINA RESULT:      -7.3      1.815      2.800
REMARK  Name = 
REMARK  10 active torsions:
REMARK  status: ('A' for Active; 'I' for Inactive)
REMARK    1  A    between atoms: C_1  and  C_2
REMARK    2  A    between atoms: C_2  and  C_3
REMARK    3  A    between atoms: C_3  and  C_4
REMARK    4  A    between atoms: C_3  and  N_5
REMARK    5  A    between atoms: C_6  and  C_8
REMARK    6  A    between atoms: C_8  and  N_9
REMARK    7  A    between atoms: C_10  and  C_11
REMARK    8  A    between atoms: C_18  and  C_19
REMARK    9  A    between atoms: C_19  and  C_20
REMARK   10  A    between atoms: C_22  and  C_23
REMARK                            x       y       z     vdW  Elec       q    Type
REMARK                         _______ _______ _______ _____ _____    ______ ____
ROOT
ATOM      1  N   UNL     1       3.140   5.338  17.583  0.00  0.00    +0.000 N 
ATOM      2  C   UNL     1       3.434   6.630  18.005  0.00  0.00    +0.000 A 
ATOM      3  C   UNL     1       4.781   6.811  17.713  0.00  0.00    +0.000 A 
ATOM      4  C   UNL     1       5.330   5.623  17.152  0.00  0.00    +0.000 A 
ATOM      5  C   UNL     1       4.295   4.691  17.162  0.00  0.00    +0.000 A 
ATOM      6  C   UNL     1       4.302   3.248  16.766  0.00  0.00    +0.000 C 
ENDROOT
BRANCH   2   7
ATOM      7  C   UNL     1       2.504   7.631  18.581  0.00  0.00    +0.000 A 
ATOM      8  C   UNL     1       1.942   8.681  17.845  0.00  0.00    +0.000 A 
ATOM      9  C   UNL     1       1.088   9.622  18.430  0.00  0.00    +0.000 A 
ATOM     10  C   UNL     1       0.731   9.501  19.764  0.00  0.00    +0.000 A 
ATOM     11  C   UNL     1       1.230   8.440  20.510  0.00  0.00    +0.000 A 
ATOM     12  C   UNL     1       2.110   7.521  19.926  0.00  0.00    +0.000 A 
ENDBRANCH   2   7
BRANCH   4  13
ATOM     13  C   UNL     1       6.705   5.407  16.666  0.00  0.00    +0.000 C 
ATOM     14  C   UNL     1       7.658   4.569  17.486  0.00  0.00    +0.000 C 
ATOM     15  O   UNL     1       7.121   5.938  15.634  0.00  0.00    +0.000 OA
ENDBRANCH   4  13
BRANCH   1  16
ATOM     16  C   UNL     1       1.816   4.719  17.539  0.00  0.00    +0.000 C 
BRANCH  16  18
ATOM     17  N   UNL     1       2.323   3.546  19.664  0.00  0.00    +0.000 N 
ATOM     18  C   UNL     1       1.625   3.533  18.474  0.00  0.00    +0.000 C 
ATOM     19  O   UNL     1       0.824   2.641  18.194  0.00  0.00    +0.000 OA
ATOM     20  H   UNL     1       3.077   4.214  19.789  0.00  0.00    +0.000 HD
BRANCH  17  21
ATOM     21  C   UNL     1       2.183   2.509  20.674  0.00  0.00    +0.000 C 
ATOM     22  C   UNL     1       1.195   2.954  21.752  0.00  0.00    +0.000 C 
BRANCH  21  24
ATOM     23  C   UNL     1       4.661   2.037  20.198  0.00  0.00    +0.000 C 
ATOM     24  C   UNL     1       3.554   2.118  21.241  0.00  0.00    +0.000 C 
ENDBRANCH  21  24
ENDBRANCH  17  21
ENDBRANCH  16  18
ENDBRANCH   1  16
TORSDOF 6
ENDMDL
MODEL 3
REMARK VINA RESULT:      -7.3      0.200      1.017
REMARK  Name = 
REMARK  10 active torsions:
REMARK  status: ('A' for Active; 'I' for Inactive)
REMARK    1  A    between atoms: C_1  and  C_2
REMARK    2  A    between atoms: C_2  and  C_3
REMARK    3  A    between atoms: C_3  and  C_4
REMARK    4  A    between atoms: C_3  and  N_5
REMARK    5  A    between atoms: C_6  and  C_8
REMARK    6  A    between atoms: C_8  and  N_9
REMARK    7  A    between atoms: C_10  and  C_11
REMARK    8  A    between atoms: C_18  and  C_19
REMARK    9  A    between atoms: C_19  and  C_20
REMARK   10  A    between atoms: C_22  and  C_23
REMARK                            x       y       z     vdW  Elec       q    Type
REMARK                         _______ _______ _______ _____ _____    ______ ____
ROOT
ATOM      1  N   UNL     1       5.472   5.566  17.922  0.00  0.00    +0.000 N 
ATOM      2  C   UNL     1       4.639   6.471  17.275  0.00  0.00    +0.000 A 
ATOM      3  C   UNL     1       5.012   6.418  15.937  0.00  0.00    +0.000 A 
ATOM      4  C   UNL     1       6.100   5.515  15.763  0.00  0.00    +0.000 A 
ATOM      5  C   UNL     1       6.419   5.062  17.040  0.00  0.00    +0.000 A 
ATOM      6  C   UNL     1       7.523   4.156  17.487  0.00  0.00    +0.000 C 
ENDROOT
BRANCH   2   7
ATOM      7  C   UNL     1       3.540   7.276  17.863  0.00  0.00    +0.000 A 
ATOM      8  C   UNL     1       3.007   8.420  17.256  0.00  0.00    +0.000 A 
ATOM      9  C   UNL     1       1.988   9.169  17.854  0.00  0.00    +0.000 A 
ATOM     10  C   UNL     1       1.438   8.756  19.057  0.00  0.00    +0.000 A 
ATOM     11  C   UNL     1       1.909   7.596  19.661  0.00  0.00    +0.000 A 
ATOM     12  C   UNL     1       2.951   6.869  19.072  0.00  0.00    +0.000 A 
ENDBRANCH   2   7
BRANCH   4  13
ATOM     13  C   UNL     1       6.764   5.136  14.502  0.00  0.00    +0.000 C 
ATOM     14  C   UNL     1       6.135   4.085  13.619  0.00  0.00    +0.000 C 
ATOM     15  O   UNL     1       7.851   5.614  14.171  0.00  0.00    +0.000 OA
ENDBRANCH   4  13
BRANCH   1  16
ATOM     16  C   UNL     1       5.380   5.148  19.321  0.00  0.00    +0.000 C 
BRANCH  16  18
ATOM     17  N   UNL     1       3.359   3.731  19.077  0.00  0.00    +0.000 N 
ATOM     18  C   UNL     1       4.650   3.833  19.556  0.00  0.00    +0.000 C 
ATOM     19  O   UNL     1       5.226   2.886  20.091  0.00  0.00    +0.000 OA
ATOM     20  H   UNL     1       2.873   4.572  18.780  0.00  0.00    +0.000 HD
BRANCH  17  21
ATOM     21  C   UNL     1       2.574   2.511  19.177  0.00  0.00    +0.000 C 
ATOM     22  C   UNL     1       2.329   1.927  17.785  0.00  0.00    +0.000 C 
BRANCH  21  24
ATOM     23  C   UNL     1       1.436   3.712  21.140  0.00  0.00    +0.000 C 
ATOM     24  C   UNL     1       1.277   2.767  19.957  0.00  0.00    +0.000 C 
ENDBRANCH  21  24
ENDBRANCH  17  21
ENDBRANCH  16  18
ENDBRANCH   1  16
TORSDOF 6
ENDMDL
MODEL 4
REMARK VINA RESULT:      -7.2      1.856      2.545
REMARK  Name = 
REMARK  10 active torsions:
REMARK  status: ('A' for Active; 'I' for Inactive)
REMARK    1  A    between atoms: C_1  and  C_2
REMARK    2  A    between atoms: C_2  and  C_3
REMARK    3  A    between atoms: C_3  and  C_4
REMARK    4  A    between atoms: C_3  and  N_5
REMARK    5  A    between atoms: C_6  and  C_8
REMARK    6  A    between atoms: C_8  and  N_9
REMARK    7  A    between atoms: C_10  and  C_11
REMARK    8  A    between atoms: C_18  and  C_19
REMARK    9  A    between atoms: C_19  and  C_20
REMARK   10  A    between atoms: C_22  and  C_23
REMARK                            x       y       z     vdW  Elec       q    Type
REMARK                         _______ _______ _______ _____ _____    ______ ____
ROOT
ATOM      1  N   UNL     1       3.090   5.191  17.521  0.00  0.00    +0.000 N 
ATOM      2  C   UNL     1       3.441   6.478  17.912  0.00  0.00    +0.000 A 
ATOM      3  C   UNL     1       4.774   6.620  17.545  0.00  0.00    +0.000 A 
ATOM      4  C   UNL     1       5.259   5.411  16.967  0.00  0.00    +0.000 A 
ATOM      5  C   UNL     1       4.202   4.509  17.043  0.00  0.00    +0.000 A 
ATOM      6  C   UNL     1       4.148   3.062  16.662  0.00  0.00    +0.000 C 
ENDROOT
BRANCH   2   7
ATOM      7  C   UNL     1       2.571   7.509  18.528  0.00  0.00    +0.000 A 
ATOM      8  C   UNL     1       2.164   7.480  19.867  0.00  0.00    +0.000 A 
ATOM      9  C   UNL     1       1.321   8.457  20.406  0.00  0.00    +0.000 A 
ATOM     10  C   UNL     1       0.908   9.525  19.625  0.00  0.00    +0.000 A 
ATOM     11  C   UNL     1       1.337   9.612  18.307  0.00  0.00    +0.000 A 
ATOM     12  C   UNL     1       2.154   8.613  17.764  0.00  0.00    +0.000 A 
ENDBRANCH   2   7
BRANCH   4  13
ATOM     13  C   UNL     1       6.599   5.154  16.408  0.00  0.00    +0.000 C 
ATOM     14  C   UNL     1       6.756   4.953  14.919  0.00  0.00    +0.000 C 
ATOM     15  O   UNL     1       7.593   5.041  17.128  0.00  0.00    +0.000 OA
ENDBRANCH   4  13
BRANCH   1  16
ATOM     16  C   UNL     1       1.749   4.609  17.555  0.00  0.00    +0.000 C 
BRANCH  16  18
ATOM     17  N   UNL     1       2.286   3.487  19.701  0.00  0.00    +0.000 N 
ATOM     18  C   UNL     1       1.576   3.443  18.519  0.00  0.00    +0.000 C 
ATOM     19  O   UNL     1       0.777   2.539  18.268  0.00  0.00    +0.000 OA
ATOM     20  H   UNL     1       3.037   4.162  19.802  0.00  0.00    +0.000 HD
BRANCH  17  21
ATOM     21  C   UNL     1       2.163   2.472  20.735  0.00  0.00    +0.000 C 
ATOM     22  C   UNL     1       1.293   2.991  21.881  0.00  0.00    +0.000 C 
BRANCH  21  24
ATOM     23  C   UNL     1       4.647   2.177  20.159  0.00  0.00    +0.000 C 
ATOM     24  C   UNL     1       3.548   2.003  21.199  0.00  0.00    +0.000 C 
ENDBRANCH  21  24
ENDBRANCH  17  21
ENDBRANCH  16  18
ENDBRANCH   1  16
TORSDOF 6
ENDMDL
MODEL 5
REMARK VINA RESULT:      -7.0      2.487      6.102
REMARK  Name = 
REMARK  10 active torsions:
REMARK  status: ('A' for Active; 'I' for Inactive)
REMARK    1  A    between atoms: C_1  and  C_2
REMARK    2  A    between atoms: C_2  and  C_3
REMARK    3  A    between atoms: C_3  and  C_4
REMARK    4  A    between atoms: C_3  and  N_5
REMARK    5  A    between atoms: C_6  and  C_8
REMARK    6  A    between atoms: C_8  and  N_9
REMARK    7  A    between atoms: C_10  and  C_11
REMARK    8  A    between atoms: C_18  and  C_19
REMARK    9  A    between atoms: C_19  and  C_20
REMARK   10  A    between atoms: C_22  and  C_23
REMARK                            x       y       z     vdW  Elec       q    Type
REMARK                         _______ _______ _______ _____ _____    ______ ____
ROOT
ATOM      1  N   UNL     1       4.774   3.932  17.745  0.00  0.00    +0.000 N 
ATOM      2  C   UNL     1       5.021   5.065  18.513  0.00  0.00    +0.000 A 
ATOM      3  C   UNL     1       4.019   5.078  19.476  0.00  0.00    +0.000 A 
ATOM      4  C   UNL     1       3.131   3.981  19.280  0.00  0.00    +0.000 A 
ATOM      5  C   UNL     1       3.585   3.331  18.136  0.00  0.00    +0.000 A 
ATOM      6  C   UNL     1       3.005   2.160  17.407  0.00  0.00    +0.000 C 
ENDROOT
BRANCH   2   7
ATOM      7  C   UNL     1       6.145   6.024  18.384  0.00  0.00    +0.000 A 
ATOM      8  C   UNL     1       7.358   5.892  19.070  0.00  0.00    +0.000 A 
ATOM      9  C   UNL     1       8.387   6.831  18.943  0.00  0.00    +0.000 A 
ATOM     10  C   UNL     1       8.245   7.903  18.075  0.00  0.00    +0.000 A 
ATOM     11  C   UNL     1       7.073   8.034  17.339  0.00  0.00    +0.000 A 
ATOM     12  C   UNL     1       6.035   7.109  17.497  0.00  0.00    +0.000 A 
ENDBRANCH   2   7
BRANCH   4  13
ATOM     13  C   UNL     1       1.966   3.607  20.103  0.00  0.00    +0.000 C 
ATOM     14  C   UNL     1       2.183   2.862  21.401  0.00  0.00    +0.000 C 
ATOM     15  O   UNL     1       0.811   3.834  19.738  0.00  0.00    +0.000 OA
ENDBRANCH   4  13
BRANCH   1  16
ATOM     16  C   UNL     1       5.633   3.394  16.692  0.00  0.00    +0.000 C 
BRANCH  16  18
ATOM     17  N   UNL     1       6.065   3.449  14.250  0.00  0.00    +0.000 N 
ATOM     18  C   UNL     1       5.513   4.088  15.342  0.00  0.00    +0.000 C 
ATOM     19  O   UNL     1       4.886   5.143  15.236  0.00  0.00    +0.000 OA
ATOM     20  H   UNL     1       6.695   2.668  14.400  0.00  0.00    +0.000 HD
BRANCH  17  21
ATOM     21  C   UNL     1       5.964   3.970  12.896  0.00  0.00    +0.000 C 
ATOM     22  C   UNL     1       5.070   3.064  12.049  0.00  0.00    +0.000 C 
BRANCH  21  24
ATOM     23  C   UNL     1       7.998   5.513  12.630  0.00  0.00    +0.000 C 
ATOM     24  C   UNL     1       7.359   4.173  12.291  0.00  0.00    +0.000 C 
ENDBRANCH  21  24
ENDBRANCH  17  21
ENDBRANCH  16  18
ENDBRANCH   1  16
TORSDOF 6
ENDMDL
MODEL 6
REMARK VINA RESULT:      -6.9      2.206      4.578
REMARK  Name = 
REMARK  10 active torsions:
REMARK  status: ('A' for Active; 'I' for Inactive)
REMARK    1  A    between atoms: C_1  and  C_2
REMARK    2  A    between atoms: C_2  and  C_3
REMARK    3  A    between atoms: C_3  and  C_4
REMARK    4  A    between atoms: C_3  and  N_5
REMARK    5  A    between atoms: C_6  and  C_8
REMARK    6  A    between atoms: C_8  and  N_9
REMARK    7  A    between atoms: C_10  and  C_11
REMARK    8  A    between atoms: C_18  and  C_19
REMARK    9  A    between atoms: C_19  and  C_20
REMARK   10  A    between atoms: C_22  and  C_23
REMARK                            x       y       z     vdW  Elec       q    Type
REMARK                         _______ _______ _______ _____ _____    ______ ____
ROOT
ATOM      1  N   UNL     1       4.270   5.704  18.184  0.00  0.00    +0.000 N 
ATOM      2  C   UNL     1       3.806   4.394  18.164  0.00  0.00    +0.000 A 
ATOM      3  C   UNL     1       4.480   3.785  17.112  0.00  0.00    +0.000 A 
ATOM      4  C   UNL     1       5.326   4.726  16.456  0.00  0.00    +0.000 A 
ATOM      5  C   UNL     1       5.107   5.939  17.101  0.00  0.00    +0.000 A 
ATOM      6  C   UNL     1       5.659   7.298  16.799  0.00  0.00    +0.000 C 
ENDROOT
BRANCH   2   7
ATOM      7  C   UNL     1       2.849   3.754  19.100  0.00  0.00    +0.000 A 
ATOM      8  C   UNL     1       1.507   3.507  18.787  0.00  0.00    +0.000 A 
ATOM      9  C   UNL     1       0.628   2.925  19.705  0.00  0.00    +0.000 A 
ATOM     10  C   UNL     1       1.089   2.523  20.949  0.00  0.00    +0.000 A 
ATOM     11  C   UNL     1       2.428   2.706  21.272  0.00  0.00    +0.000 A 
ATOM     12  C   UNL     1       3.295   3.319  20.360  0.00  0.00    +0.000 A 
ENDBRANCH   2   7
BRANCH   4  13
ATOM     13  C   UNL     1       6.240   4.480  15.326  0.00  0.00    +0.000 C 
ATOM     14  C   UNL     1       5.676   4.017  14.003  0.00  0.00    +0.000 C 
ATOM     15  O   UNL     1       7.463   4.588  15.443  0.00  0.00    +0.000 OA
ENDBRANCH   4  13
BRANCH   1  16
ATOM     16  C   UNL     1       3.973   6.714  19.199  0.00  0.00    +0.000 C 
BRANCH  16  18
ATOM     17  N   UNL     1       2.053   7.887  20.243  0.00  0.00    +0.000 N 
ATOM     18  C   UNL     1       2.597   7.356  19.091  0.00  0.00    +0.000 C 
ATOM     19  O   UNL     1       2.036   7.449  17.998  0.00  0.00    +0.000 OA
ATOM     20  H   UNL     1       2.472   7.659  21.139  0.00  0.00    +0.000 HD
BRANCH  17  21
ATOM     21  C   UNL     1       0.777   8.583  20.265  0.00  0.00    +0.000 C 
ATOM     22  C   UNL     1       0.983  10.070  19.970  0.00  0.00    +0.000 C 
BRANCH  21  24
ATOM     23  C   UNL     1       0.250   9.421  22.634  0.00  0.00    +0.000 C 
ATOM     24  C   UNL     1       0.047   8.330  21.591  0.00  0.00    +0.000 C 
ENDBRANCH  21  24
ENDBRANCH  17  21
ENDBRANCH  16  18
ENDBRANCH   1  16
TORSDOF 6
ENDMDL
MODEL 7
REMARK VINA RESULT:      -6.9      2.496      6.510
REMARK  Name = 
REMARK  10 active torsions:
REMARK  status: ('A' for Active; 'I' for Inactive)
REMARK    1  A    between atoms: C_1  and  C_2
REMARK    2  A    between atoms: C_2  and  C_3
REMARK    3  A    between atoms: C_3  and  C_4
REMARK    4  A    between atoms: C_3  and  N_5
REMARK    5  A    between atoms: C_6  and  C_8
REMARK    6  A    between atoms: C_8  and  N_9
REMARK    7  A    between atoms: C_10  and  C_11
REMARK    8  A    between atoms: C_18  and  C_19
REMARK    9  A    between atoms: C_19  and  C_20
REMARK   10  A    between atoms: C_22  and  C_23
REMARK                            x       y       z     vdW  Elec       q    Type
REMARK                         _______ _______ _______ _____ _____    ______ ____
ROOT
ATOM      1  N   UNL     1       2.170   7.045  19.064  0.00  0.00    +0.000 N 
ATOM      2  C   UNL     1       1.673   6.392  20.186  0.00  0.00    +0.000 A 
ATOM      3  C   UNL     1       1.060   7.383  20.943  0.00  0.00    +0.000 A 
ATOM      4  C   UNL     1       1.214   8.652  20.315  0.00  0.00    +0.000 A 
ATOM      5  C   UNL     1       1.987   8.417  19.181  0.00  0.00    +0.000 A 
ATOM      6  C   UNL     1       2.533   9.384  18.177  0.00  0.00    +0.000 C 
ENDROOT
BRANCH   2   7
ATOM      7  C   UNL     1       1.720   4.940  20.487  0.00  0.00    +0.000 A 
ATOM      8  C   UNL     1       2.457   4.392  21.544  0.00  0.00    +0.000 A 
ATOM      9  C   UNL     1       2.499   3.015  21.782  0.00  0.00    +0.000 A 
ATOM     10  C   UNL     1       1.754   2.151  20.993  0.00  0.00    +0.000 A 
ATOM     11  C   UNL     1       0.970   2.668  19.968  0.00  0.00    +0.000 A 
ATOM     12  C   UNL     1       0.959   4.045  19.716  0.00  0.00    +0.000 A 
ENDBRANCH   2   7
BRANCH   4  13
ATOM     13  C   UNL     1       0.679   9.951  20.763  0.00  0.00    +0.000 C 
ATOM     14  C   UNL     1      -0.468  10.581  20.009  0.00  0.00    +0.000 C 
ATOM     15  O   UNL     1       1.177  10.568  21.707  0.00  0.00    +0.000 OA
ENDBRANCH   4  13
BRANCH   1  16
ATOM     16  C   UNL     1       2.776   6.417  17.891  0.00  0.00    +0.000 C 
BRANCH  16  18
ATOM     17  N   UNL     1       5.047   6.085  16.951  0.00  0.00    +0.000 N 
ATOM     18  C   UNL     1       4.229   5.997  18.060  0.00  0.00    +0.000 C 
ATOM     19  O   UNL     1       4.657   5.661  19.165  0.00  0.00    +0.000 OA
ATOM     20  H   UNL     1       4.628   6.220  16.037  0.00  0.00    +0.000 HD
BRANCH  17  21
ATOM     21  C   UNL     1       6.468   5.777  16.992  0.00  0.00    +0.000 C 
ATOM     22  C   UNL     1       7.270   7.036  17.320  0.00  0.00    +0.000 C 
BRANCH  21  24
ATOM     23  C   UNL     1       6.019   3.955  15.240  0.00  0.00    +0.000 C 
ATOM     24  C   UNL     1       6.912   5.106  15.685  0.00  0.00    +0.000 C 
ENDBRANCH  21  24
ENDBRANCH  17  21
ENDBRANCH  16  18
ENDBRANCH   1  16
TORSDOF 6
ENDMDL
MODEL 8
REMARK VINA RESULT:      -6.9      2.173      4.517
REMARK  Name = 
REMARK  10 active torsions:
REMARK  status: ('A' for Active; 'I' for Inactive)
REMARK    1  A    between atoms: C_1  and  C_2
REMARK    2  A    between atoms: C_2  and  C_3
REMARK    3  A    between atoms: C_3  and  C_4
REMARK    4  A    between atoms: C_3  and  N_5
REMARK    5  A    between atoms: C_6  and  C_8
REMARK    6  A    between atoms: C_8  and  N_9
REMARK    7  A    between atoms: C_10  and  C_11
REMARK    8  A    between atoms: C_18  and  C_19
REMARK    9  A    between atoms: C_19  and  C_20
REMARK   10  A    between atoms: C_22  and  C_23
REMARK                            x       y       z     vdW  Elec       q    Type
REMARK                         _______ _______ _______ _____ _____    ______ ____
ROOT
ATOM      1  N   UNL     1       4.283   5.686  18.168  0.00  0.00    +0.000 N 
ATOM      2  C   UNL     1       3.850   4.365  18.172  0.00  0.00    +0.000 A 
ATOM      3  C   UNL     1       4.534   3.754  17.127  0.00  0.00    +0.000 A 
ATOM      4  C   UNL     1       5.356   4.703  16.453  0.00  0.00    +0.000 A 
ATOM      5  C   UNL     1       5.111   5.922  17.078  0.00  0.00    +0.000 A 
ATOM      6  C   UNL     1       5.631   7.287  16.751  0.00  0.00    +0.000 C 
ENDROOT
BRANCH   2   7
ATOM      7  C   UNL     1       2.912   3.719  19.122  0.00  0.00    +0.000 A 
ATOM      8  C   UNL     1       3.279   3.290  20.402  0.00  0.00    +0.000 A 
ATOM      9  C   UNL     1       2.373   2.661  21.261  0.00  0.00    +0.000 A 
ATOM     10  C   UNL     1       1.052   2.494  20.875  0.00  0.00    +0.000 A 
ATOM     11  C   UNL     1       0.641   2.956  19.630  0.00  0.00    +0.000 A 
ATOM     12  C   UNL     1       1.563   3.556  18.763  0.00  0.00    +0.000 A 
ENDBRANCH   2   7
BRANCH   4  13
ATOM     13  C   UNL     1       6.272   4.459  15.323  0.00  0.00    +0.000 C 
ATOM     14  C   UNL     1       5.707   4.026  13.991  0.00  0.00    +0.000 C 
ATOM     15  O   UNL     1       7.495   4.545  15.448  0.00  0.00    +0.000 OA
ENDBRANCH   4  13
BRANCH   1  16
ATOM     16  C   UNL     1       3.967   6.706  19.167  0.00  0.00    +0.000 C 
BRANCH  16  18
ATOM     17  N   UNL     1       2.056   7.937  20.159  0.00  0.00    +0.000 N 
ATOM     18  C   UNL     1       2.585   7.331  19.037  0.00  0.00    +0.000 C 
ATOM     19  O   UNL     1       2.006   7.347  17.950  0.00  0.00    +0.000 OA
ATOM     20  H   UNL     1       2.490   7.773  21.061  0.00  0.00    +0.000 HD
BRANCH  17  21
ATOM     21  C   UNL     1       0.775   8.627  20.154  0.00  0.00    +0.000 C 
ATOM     22  C   UNL     1       0.963  10.082  19.725  0.00  0.00    +0.000 C 
BRANCH  21  24
ATOM     23  C   UNL     1       0.715   9.314  22.626  0.00  0.00    +0.000 C 
ATOM     24  C   UNL     1       0.082   8.487  21.516  0.00  0.00    +0.000 C 
ENDBRANCH  21  24
ENDBRANCH  17  21
ENDBRANCH  16  18
ENDBRANCH   1  16
TORSDOF 6
ENDMDL
MODEL 9
REMARK VINA RESULT:      -6.8      2.209      5.307
REMARK  Name = 
REMARK  10 active torsions:
REMARK  status: ('A' for Active; 'I' for Inactive)
REMARK    1  A    between atoms: C_1  and  C_2
REMARK    2  A    between atoms: C_2  and  C_3
REMARK    3  A    between atoms: C_3  and  C_4
REMARK    4  A    between atoms: C_3  and  N_5
REMARK    5  A    between atoms: C_6  and  C_8
REMARK    6  A    between atoms: C_8  and  N_9
REMARK    7  A    between atoms: C_10  and  C_11
REMARK    8  A    between atoms: C_18  and  C_19
REMARK    9  A    between atoms: C_19  and  C_20
REMARK   10  A    between atoms: C_22  and  C_23
REMARK                            x       y       z     vdW  Elec       q    Type
REMARK                         _______ _______ _______ _____ _____    ______ ____
ROOT
ATOM      1  N   UNL     1       3.890   5.654  17.815  0.00  0.00    +0.000 N 
ATOM      2  C   UNL     1       3.851   4.530  18.632  0.00  0.00    +0.000 A 
ATOM      3  C   UNL     1       5.182   4.204  18.867  0.00  0.00    +0.000 A 
ATOM      4  C   UNL     1       6.041   5.096  18.164  0.00  0.00    +0.000 A 
ATOM      5  C   UNL     1       5.199   5.940  17.447  0.00  0.00    +0.000 A 
ATOM      6  C   UNL     1       5.535   7.025  16.472  0.00  0.00    +0.000 C 
ENDROOT
BRANCH   2   7
ATOM      7  C   UNL     1       2.655   3.857  19.194  0.00  0.00    +0.000 A 
ATOM      8  C   UNL     1       2.265   3.962  20.534  0.00  0.00    +0.000 A 
ATOM      9  C   UNL     1       1.144   3.291  21.034  0.00  0.00    +0.000 A 
ATOM     10  C   UNL     1       0.351   2.536  20.184  0.00  0.00    +0.000 A 
ATOM     11  C   UNL     1       0.681   2.453  18.837  0.00  0.00    +0.000 A 
ATOM     12  C   UNL     1       1.823   3.101  18.350  0.00  0.00    +0.000 A 
ENDBRANCH   2   7
BRANCH   4  13
ATOM     13  C   UNL     1       7.516   5.124  18.176  0.00  0.00    +0.000 C 
ATOM     14  C   UNL     1       8.231   6.091  19.092  0.00  0.00    +0.000 C 
ATOM     15  O   UNL     1       8.186   4.419  17.420  0.00  0.00    +0.000 OA
ENDBRANCH   4  13
BRANCH   1  16
ATOM     16  C   UNL     1       2.748   6.469  17.404  0.00  0.00    +0.000 C 
BRANCH  16  18
ATOM     17  N   UNL     1       1.988   8.802  17.764  0.00  0.00    +0.000 N 
ATOM     18  C   UNL     1       2.405   7.620  18.340  0.00  0.00    +0.000 C 
ATOM     19  O   UNL     1       2.438   7.462  19.561  0.00  0.00    +0.000 OA
ATOM     20  H   UNL     1       2.117   8.939  16.766  0.00  0.00    +0.000 HD
BRANCH  17  21
ATOM     21  C   UNL     1       1.569   9.956  18.543  0.00  0.00    +0.000 C 
ATOM     22  C   UNL     1       0.045  10.081  18.521  0.00  0.00    +0.000 C 
BRANCH  21  24
ATOM     23  C   UNL     1       1.852  12.497  18.773  0.00  0.00    +0.000 C 
ATOM     24  C   UNL     1       2.282  11.224  18.056  0.00  0.00    +0.000 C 
ENDBRANCH  21  24
ENDBRANCH  17  21
ENDBRANCH  16  18
ENDBRANCH   1  16
TORSDOF 6
ENDMDL
