MODEL 1
REMARK VINA RESULT:      -8.6      0.000      0.000
REMARK  Name = 
REMARK  6 active torsions:
REMARK  status: ('A' for Active; 'I' for Inactive)
REMARK    1  A    between atoms: C_1  and  C_2
REMARK    2  A    between atoms: C_5  and  C_6
REMARK    3  A    between atoms: C_7  and  C_8
REMARK    4  A    between atoms: C_8  and  N_9
REMARK    5  A    between atoms: N_9  and  C_10
REMARK    6  A    between atoms: C_16  and  C_17
REMARK                            x       y       z     vdW  Elec       q    Type
REMARK                         _______ _______ _______ _____ _____    ______ ____
ROOT
ATOM      1  C   UNL     1       4.083   3.309  18.099  0.00  0.00    +0.000 C 
ATOM      2  C   UNL     1       4.528   2.604  19.397  0.00  0.00    +0.000 C 
ATOM      3  C   UNL     1       3.354   2.569  20.364  0.00  0.00    +0.000 C 
ATOM      4  C   UNL     1       2.708   3.896  20.481  0.00  0.00    +0.000 A 
ATOM      5  N   UNL     1       1.859   4.271  21.398  0.00  0.00    +0.000 NA
ATOM      6  N   UNL     1       1.507   5.560  21.125  0.00  0.00    +0.000 NA
ATOM      7  C   UNL     1       2.131   5.970  20.029  0.00  0.00    +0.000 A 
ATOM      8  N   UNL     1       2.897   4.919  19.574  0.00  0.00    +0.000 N 
ATOM      9  C   UNL     1       3.825   4.806  18.456  0.00  0.00    +0.000 C 
ENDROOT
BRANCH   7  10
ATOM     10  C   UNL     1       1.995   7.337  19.519  0.00  0.00    +0.000 A 
ATOM     11  C   UNL     1       1.386   8.291  20.361  0.00  0.00    +0.000 A 
ATOM     12  C   UNL     1       1.143   9.595  19.928  0.00  0.00    +0.000 A 
ATOM     13  C   UNL     1       1.511   9.958  18.644  0.00  0.00    +0.000 A 
ATOM     14  F   UNL     1       1.273  11.204  18.214  0.00  0.00    +0.000 F 
ATOM     15  C   UNL     1       2.105   9.038  17.787  0.00  0.00    +0.000 A 
ATOM     16  C   UNL     1       2.336   7.726  18.218  0.00  0.00    +0.000 A 
ENDBRANCH   7  10
BRANCH   1  17
ATOM     17  N   UNL     1       5.053   3.094  17.003  0.00  0.00    +0.000 NA
ATOM     18  H   UNL     1       6.003   3.259  17.342  0.00  0.00    +0.000 HD
BRANCH  17  19
ATOM     19  C   UNL     1       4.799   4.053  15.910  0.00  0.00    +0.000 C 
BRANCH  19  26
ATOM     20  C   UNL     1       6.013   3.645  12.902  0.00  0.00    +0.000 C 
ATOM     21  C   UNL     1       6.572   4.438  14.022  0.00  0.00    +0.000 A 
ATOM     22  N   UNL     1       7.682   5.165  13.844  0.00  0.00    +0.000 NA
ATOM     23  O   UNL     1       7.906   5.813  15.042  0.00  0.00    +0.000 OA
ATOM     24  C   UNL     1       6.937   5.472  15.930  0.00  0.00    +0.000 A 
ATOM     25  C   UNL     1       7.000   6.126  17.252  0.00  0.00    +0.000 C 
ATOM     26  C   UNL     1       6.059   4.584  15.340  0.00  0.00    +0.000 A 
ENDBRANCH  19  26
ENDBRANCH  17  19
ENDBRANCH   1  17
TORSDOF 4
ENDMDL
MODEL 2
REMARK VINA RESULT:      -8.6      3.560      7.029
REMARK  Name = 
REMARK  6 active torsions:
REMARK  status: ('A' for Active; 'I' for Inactive)
REMARK    1  A    between atoms: C_1  and  C_2
REMARK    2  A    between atoms: C_5  and  C_6
REMARK    3  A    between atoms: C_7  and  C_8
REMARK    4  A    between atoms: C_8  and  N_9
REMARK    5  A    between atoms: N_9  and  C_10
REMARK    6  A    between atoms: C_16  and  C_17
REMARK                            x       y       z     vdW  Elec       q    Type
REMARK                         _______ _______ _______ _____ _____    ______ ____
ROOT
ATOM      1  C   UNL     1       1.643   5.599  20.823  0.00  0.00    +0.000 C 
ATOM      2  C   UNL     1       0.933   4.283  20.443  0.00  0.00    +0.000 C 
ATOM      3  C   UNL     1       1.892   3.125  20.673  0.00  0.00    +0.000 C 
ATOM      4  C   UNL     1       3.221   3.394  20.079  0.00  0.00    +0.000 A 
ATOM      5  N   UNL     1       4.172   2.524  19.871  0.00  0.00    +0.000 NA
ATOM      6  N   UNL     1       5.224   3.196  19.320  0.00  0.00    +0.000 NA
ATOM      7  C   UNL     1       4.921   4.482  19.204  0.00  0.00    +0.000 A 
ATOM      8  N   UNL     1       3.648   4.652  19.702  0.00  0.00    +0.000 N 
ATOM      9  C   UNL     1       2.783   5.822  19.782  0.00  0.00    +0.000 C 
ENDROOT
BRANCH   7  10
ATOM     10  C   UNL     1       5.837   5.447  18.590  0.00  0.00    +0.000 A 
ATOM     11  C   UNL     1       7.093   5.637  19.203  0.00  0.00    +0.000 A 
ATOM     12  C   UNL     1       7.995   6.592  18.733  0.00  0.00    +0.000 A 
ATOM     13  C   UNL     1       7.647   7.368  17.640  0.00  0.00    +0.000 A 
ATOM     14  F   UNL     1       8.501   8.295  17.188  0.00  0.00    +0.000 F 
ATOM     15  C   UNL     1       6.413   7.211  17.021  0.00  0.00    +0.000 A 
ATOM     16  C   UNL     1       5.503   6.260  17.501  0.00  0.00    +0.000 A 
ENDBRANCH   7  10
BRANCH   1  17
ATOM     17  N   UNL     1       0.685   6.720  20.938  0.00  0.00    +0.000 NA
ATOM     18  H   UNL     1       0.143   6.805  20.075  0.00  0.00    +0.000 HD
BRANCH  17  19
ATOM     19  C   UNL     1       1.414   7.989  21.131  0.00  0.00    +0.000 C 
BRANCH  19  26
ATOM     20  C   UNL     1      -0.471   9.842  23.054  0.00  0.00    +0.000 C 
ATOM     21  C   UNL     1      -0.207   9.991  21.603  0.00  0.00    +0.000 A 
ATOM     22  N   UNL     1      -0.715  11.029  20.930  0.00  0.00    +0.000 NA
ATOM     23  O   UNL     1      -0.250  10.904  19.636  0.00  0.00    +0.000 OA
ATOM     24  C   UNL     1       0.529   9.797  19.539  0.00  0.00    +0.000 A 
ATOM     25  C   UNL     1       1.155   9.548  18.225  0.00  0.00    +0.000 C 
ATOM     26  C   UNL     1       0.586   9.161  20.764  0.00  0.00    +0.000 A 
ENDBRANCH  19  26
ENDBRANCH  17  19
ENDBRANCH   1  17
TORSDOF 4
ENDMDL
MODEL 3
REMARK VINA RESULT:      -8.5      3.669      6.859
REMARK  Name = 
REMARK  6 active torsions:
REMARK  status: ('A' for Active; 'I' for Inactive)
REMARK    1  A    between atoms: C_1  and  C_2
REMARK    2  A    between atoms: C_5  and  C_6
REMARK    3  A    between atoms: C_7  and  C_8
REMARK    4  A    between atoms: C_8  and  N_9
REMARK    5  A    between atoms: N_9  and  C_10
REMARK    6  A    between atoms: C_16  and  C_17
REMARK                            x       y       z     vdW  Elec       q    Type
REMARK                         _______ _______ _______ _____ _____    ______ ____
ROOT
ATOM      1  C   UNL     1       1.645   5.642  20.823  0.00  0.00    +0.000 C 
ATOM      2  C   UNL     1       0.920   4.337  20.432  0.00  0.00    +0.000 C 
ATOM      3  C   UNL     1       1.867   3.167  20.648  0.00  0.00    +0.000 C 
ATOM      4  C   UNL     1       3.197   3.428  20.053  0.00  0.00    +0.000 A 
ATOM      5  N   UNL     1       4.138   2.550  19.833  0.00  0.00    +0.000 NA
ATOM      6  N   UNL     1       5.195   3.216  19.285  0.00  0.00    +0.000 NA
ATOM      7  C   UNL     1       4.906   4.506  19.184  0.00  0.00    +0.000 A 
ATOM      8  N   UNL     1       3.636   4.685  19.687  0.00  0.00    +0.000 N 
ATOM      9  C   UNL     1       2.784   5.863  19.781  0.00  0.00    +0.000 C 
ENDROOT
BRANCH   7  10
ATOM     10  C   UNL     1       5.830   5.468  18.576  0.00  0.00    +0.000 A 
ATOM     11  C   UNL     1       7.094   5.630  19.181  0.00  0.00    +0.000 A 
ATOM     12  C   UNL     1       8.006   6.580  18.718  0.00  0.00    +0.000 A 
ATOM     13  C   UNL     1       7.660   7.378  17.641  0.00  0.00    +0.000 A 
ATOM     14  F   UNL     1       8.523   8.300  17.196  0.00  0.00    +0.000 F 
ATOM     15  C   UNL     1       6.417   7.248  17.030  0.00  0.00    +0.000 A 
ATOM     16  C   UNL     1       5.498   6.304  17.504  0.00  0.00    +0.000 A 
ENDBRANCH   7  10
BRANCH   1  17
ATOM     17  N   UNL     1       0.699   6.772  20.953  0.00  0.00    +0.000 NA
ATOM     18  H   UNL     1       0.197   6.908  20.072  0.00  0.00    +0.000 HD
BRANCH  17  19
ATOM     19  C   UNL     1       1.437   8.017  21.241  0.00  0.00    +0.000 C 
BRANCH  19  26
ATOM     20  C   UNL     1       1.270   9.319  18.247  0.00  0.00    +0.000 C 
ATOM     21  C   UNL     1       0.588   9.764  19.485  0.00  0.00    +0.000 A 
ATOM     22  N   UNL     1      -0.277  10.785  19.447  0.00  0.00    +0.000 NA
ATOM     23  O   UNL     1      -0.767  10.912  20.731  0.00  0.00    +0.000 OA
ATOM     24  C   UNL     1      -0.196   9.975  21.530  0.00  0.00    +0.000 A 
ATOM     25  C   UNL     1      -0.658   9.939  22.932  0.00  0.00    +0.000 C 
ATOM     26  C   UNL     1       0.691   9.216  20.793  0.00  0.00    +0.000 A 
ENDBRANCH  19  26
ENDBRANCH  17  19
ENDBRANCH   1  17
TORSDOF 4
ENDMDL
MODEL 4
REMARK VINA RESULT:      -8.3      3.394      7.318
REMARK  Name = 
REMARK  6 active torsions:
REMARK  status: ('A' for Active; 'I' for Inactive)
REMARK    1  A    between atoms: C_1  and  C_2
REMARK    2  A    between atoms: C_5  and  C_6
REMARK    3  A    between atoms: C_7  and  C_8
REMARK    4  A    between atoms: C_8  and  N_9
REMARK    5  A    between atoms: N_9  and  C_10
REMARK    6  A    between atoms: C_16  and  C_17
REMARK                            x       y       z     vdW  Elec       q    Type
REMARK                         _______ _______ _______ _____ _____    ______ ____
ROOT
ATOM      1  C   UNL     1       2.378   5.700  20.504  0.00  0.00    +0.000 C 
ATOM      2  C   UNL     1       1.034   4.948  20.413  0.00  0.00    +0.000 C 
ATOM      3  C   UNL     1       1.313   3.457  20.295  0.00  0.00    +0.000 C 
ATOM      4  C   UNL     1       2.337   3.177  19.263  0.00  0.00    +0.000 A 
ATOM      5  N   UNL     1       2.614   2.016  18.735  0.00  0.00    +0.000 NA
ATOM      6  N   UNL     1       3.625   2.207  17.840  0.00  0.00    +0.000 NA
ATOM      7  C   UNL     1       3.977   3.485  17.830  0.00  0.00    +0.000 A 
ATOM      8  N   UNL     1       3.185   4.138  18.749  0.00  0.00    +0.000 N 
ATOM      9  C   UNL     1       3.086   5.543  19.123  0.00  0.00    +0.000 C 
ENDROOT
BRANCH   7  10
ATOM     10  C   UNL     1       5.003   4.005  16.922  0.00  0.00    +0.000 A 
ATOM     11  C   UNL     1       4.709   4.016  15.542  0.00  0.00    +0.000 A 
ATOM     12  C   UNL     1       5.656   4.418  14.599  0.00  0.00    +0.000 A 
ATOM     13  C   UNL     1       6.909   4.817  15.030  0.00  0.00    +0.000 A 
ATOM     14  F   UNL     1       7.829   5.195  14.133  0.00  0.00    +0.000 F 
ATOM     15  C   UNL     1       7.232   4.809  16.383  0.00  0.00    +0.000 A 
ATOM     16  C   UNL     1       6.285   4.393  17.327  0.00  0.00    +0.000 A 
ENDBRANCH   7  10
BRANCH   1  17
ATOM     17  N   UNL     1       2.189   7.099  20.946  0.00  0.00    +0.000 NA
ATOM     18  H   UNL     1       2.506   7.205  21.912  0.00  0.00    +0.000 HD
BRANCH  17  19
ATOM     19  C   UNL     1       0.757   7.451  20.907  0.00  0.00    +0.000 C 
BRANCH  19  26
ATOM     20  C   UNL     1      -0.129   9.571  23.233  0.00  0.00    +0.000 C 
ATOM     21  C   UNL     1       0.202   9.845  21.815  0.00  0.00    +0.000 A 
ATOM     22  N   UNL     1       0.228  11.103  21.360  0.00  0.00    +0.000 NA
ATOM     23  O   UNL     1       0.612  11.018  20.037  0.00  0.00    +0.000 OA
ATOM     24  C   UNL     1       0.810   9.717  19.704  0.00  0.00    +0.000 A 
ATOM     25  C   UNL     1       1.282   9.456  18.330  0.00  0.00    +0.000 C 
ATOM     26  C   UNL     1       0.552   8.915  20.798  0.00  0.00    +0.000 A 
ENDBRANCH  19  26
ENDBRANCH  17  19
ENDBRANCH   1  17
TORSDOF 4
ENDMDL
MODEL 5
REMARK VINA RESULT:      -8.3      0.489      1.642
REMARK  Name = 
REMARK  6 active torsions:
REMARK  status: ('A' for Active; 'I' for Inactive)
REMARK    1  A    between atoms: C_1  and  C_2
REMARK    2  A    between atoms: C_5  and  C_6
REMARK    3  A    between atoms: C_7  and  C_8
REMARK    4  A    between atoms: C_8  and  N_9
REMARK    5  A    between atoms: N_9  and  C_10
REMARK    6  A    between atoms: C_16  and  C_17
REMARK                            x       y       z     vdW  Elec       q    Type
REMARK                         _______ _______ _______ _____ _____    ______ ____
ROOT
ATOM      1  C   UNL     1       4.101   3.375  17.965  0.00  0.00    +0.000 C 
ATOM      2  C   UNL     1       4.614   2.664  19.235  0.00  0.00    +0.000 C 
ATOM      3  C   UNL     1       3.484   2.602  20.252  0.00  0.00    +0.000 C 
ATOM      4  C   UNL     1       2.824   3.917  20.410  0.00  0.00    +0.000 A 
ATOM      5  N   UNL     1       2.010   4.270  21.368  0.00  0.00    +0.000 NA
ATOM      6  N   UNL     1       1.627   5.556  21.124  0.00  0.00    +0.000 NA
ATOM      7  C   UNL     1       2.196   5.986  20.006  0.00  0.00    +0.000 A 
ATOM      8  N   UNL     1       2.957   4.952  19.506  0.00  0.00    +0.000 N 
ATOM      9  C   UNL     1       3.836   4.864  18.348  0.00  0.00    +0.000 C 
ENDROOT
BRANCH   7  10
ATOM     10  C   UNL     1       2.016   7.355  19.516  0.00  0.00    +0.000 A 
ATOM     11  C   UNL     1       1.374   8.276  20.370  0.00  0.00    +0.000 A 
ATOM     12  C   UNL     1       1.090   9.578  19.956  0.00  0.00    +0.000 A 
ATOM     13  C   UNL     1       1.449   9.972  18.679  0.00  0.00    +0.000 A 
ATOM     14  F   UNL     1       1.172  11.216  18.267  0.00  0.00    +0.000 F 
ATOM     15  C   UNL     1       2.075   9.085  17.810  0.00  0.00    +0.000 A 
ATOM     16  C   UNL     1       2.348   7.775  18.222  0.00  0.00    +0.000 A 
ENDBRANCH   7  10
BRANCH   1  17
ATOM     17  N   UNL     1       5.025   3.186  16.825  0.00  0.00    +0.000 NA
ATOM     18  H   UNL     1       5.976   3.435  17.104  0.00  0.00    +0.000 HD
BRANCH  17  19
ATOM     19  C   UNL     1       4.641   4.075  15.712  0.00  0.00    +0.000 C 
BRANCH  19  26
ATOM     20  C   UNL     1       7.052   6.001  16.790  0.00  0.00    +0.000 C 
ATOM     21  C   UNL     1       6.892   5.386  15.451  0.00  0.00    +0.000 A 
ATOM     22  N   UNL     1       7.845   5.536  14.523  0.00  0.00    +0.000 NA
ATOM     23  O   UNL     1       7.422   4.812  13.426  0.00  0.00    +0.000 OA
ATOM     24  C   UNL     1       6.222   4.238  13.698  0.00  0.00    +0.000 A 
ATOM     25  C   UNL     1       5.653   3.378  12.641  0.00  0.00    +0.000 C 
ATOM     26  C   UNL     1       5.823   4.578  14.975  0.00  0.00    +0.000 A 
ENDBRANCH  19  26
ENDBRANCH  17  19
ENDBRANCH   1  17
TORSDOF 4
ENDMDL
MODEL 6
REMARK VINA RESULT:      -8.2      3.587      7.305
REMARK  Name = 
REMARK  6 active torsions:
REMARK  status: ('A' for Active; 'I' for Inactive)
REMARK    1  A    between atoms: C_1  and  C_2
REMARK    2  A    between atoms: C_5  and  C_6
REMARK    3  A    between atoms: C_7  and  C_8
REMARK    4  A    between atoms: C_8  and  N_9
REMARK    5  A    between atoms: N_9  and  C_10
REMARK    6  A    between atoms: C_16  and  C_17
REMARK                            x       y       z     vdW  Elec       q    Type
REMARK                         _______ _______ _______ _____ _____    ______ ____
ROOT
ATOM      1  C   UNL     1       2.446   6.055  20.365  0.00  0.00    +0.000 C 
ATOM      2  C   UNL     1       1.114   5.279  20.341  0.00  0.00    +0.000 C 
ATOM      3  C   UNL     1       1.416   3.788  20.332  0.00  0.00    +0.000 C 
ATOM      4  C   UNL     1       2.436   3.447  19.316  0.00  0.00    +0.000 A 
ATOM      5  N   UNL     1       2.728   2.254  18.874  0.00  0.00    +0.000 NA
ATOM      6  N   UNL     1       3.729   2.392  17.958  0.00  0.00    +0.000 NA
ATOM      7  C   UNL     1       4.061   3.672  17.851  0.00  0.00    +0.000 A 
ATOM      8  N   UNL     1       3.265   4.379  18.724  0.00  0.00    +0.000 N 
ATOM      9  C   UNL     1       3.147   5.806  18.994  0.00  0.00    +0.000 C 
ENDROOT
BRANCH   7  10
ATOM     10  C   UNL     1       5.072   4.138  16.898  0.00  0.00    +0.000 A 
ATOM     11  C   UNL     1       4.755   4.073  15.525  0.00  0.00    +0.000 A 
ATOM     12  C   UNL     1       5.687   4.420  14.545  0.00  0.00    +0.000 A 
ATOM     13  C   UNL     1       6.948   4.838  14.932  0.00  0.00    +0.000 A 
ATOM     14  F   UNL     1       7.853   5.163  14.000  0.00  0.00    +0.000 F 
ATOM     15  C   UNL     1       7.294   4.904  16.277  0.00  0.00    +0.000 A 
ATOM     16  C   UNL     1       6.363   4.543  17.259  0.00  0.00    +0.000 A 
ENDBRANCH   7  10
BRANCH   1  17
ATOM     17  N   UNL     1       2.240   7.481  20.702  0.00  0.00    +0.000 NA
ATOM     18  H   UNL     1       2.772   7.720  21.542  0.00  0.00    +0.000 HD
BRANCH  17  19
ATOM     19  C   UNL     1       0.814   7.728  20.994  0.00  0.00    +0.000 C 
BRANCH  19  26
ATOM     20  C   UNL     1       0.928   9.541  18.276  0.00  0.00    +0.000 C 
ATOM     21  C   UNL     1       0.470   9.936  19.629  0.00  0.00    +0.000 A 
ATOM     22  N   UNL     1      -0.040  11.156  19.837  0.00  0.00    +0.000 NA
ATOM     23  O   UNL     1      -0.412  11.188  21.166  0.00  0.00    +0.000 OA
ATOM     24  C   UNL     1      -0.123   9.995  21.747  0.00  0.00    +0.000 A 
ATOM     25  C   UNL     1      -0.512   9.844  23.163  0.00  0.00    +0.000 C 
ATOM     26  C   UNL     1       0.455   9.154  20.816  0.00  0.00    +0.000 A 
ENDBRANCH  19  26
ENDBRANCH  17  19
ENDBRANCH   1  17
TORSDOF 4
ENDMDL
MODEL 7
REMARK VINA RESULT:      -8.2      3.528      7.147
REMARK  Name = 
REMARK  6 active torsions:
REMARK  status: ('A' for Active; 'I' for Inactive)
REMARK    1  A    between atoms: C_1  and  C_2
REMARK    2  A    between atoms: C_5  and  C_6
REMARK    3  A    between atoms: C_7  and  C_8
REMARK    4  A    between atoms: C_8  and  N_9
REMARK    5  A    between atoms: N_9  and  C_10
REMARK    6  A    between atoms: C_16  and  C_17
REMARK                            x       y       z     vdW  Elec       q    Type
REMARK                         _______ _______ _______ _____ _____    ______ ____
ROOT
ATOM      1  C   UNL     1       2.491   5.726  20.376  0.00  0.00    +0.000 C 
ATOM      2  C   UNL     1       1.138   4.986  20.389  0.00  0.00    +0.000 C 
ATOM      3  C   UNL     1       1.397   3.488  20.348  0.00  0.00    +0.000 C 
ATOM      4  C   UNL     1       2.371   3.134  19.292  0.00  0.00    +0.000 A 
ATOM      5  N   UNL     1       2.614   1.940  18.823  0.00  0.00    +0.000 NA
ATOM      6  N   UNL     1       3.586   2.064  17.875  0.00  0.00    +0.000 NA
ATOM      7  C   UNL     1       3.949   3.335  17.773  0.00  0.00    +0.000 A 
ATOM      8  N   UNL     1       3.205   4.052  18.684  0.00  0.00    +0.000 N 
ATOM      9  C   UNL     1       3.136   5.477  18.977  0.00  0.00    +0.000 C 
ENDROOT
BRANCH   7  10
ATOM     10  C   UNL     1       4.939   3.787  16.791  0.00  0.00    +0.000 A 
ATOM     11  C   UNL     1       6.198   4.199  17.274  0.00  0.00    +0.000 A 
ATOM     12  C   UNL     1       7.172   4.719  16.420  0.00  0.00    +0.000 A 
ATOM     13  C   UNL     1       6.893   4.831  15.069  0.00  0.00    +0.000 A 
ATOM     14  F   UNL     1       7.816   5.338  14.242  0.00  0.00    +0.000 F 
ATOM     15  C   UNL     1       5.657   4.443  14.564  0.00  0.00    +0.000 A 
ATOM     16  C   UNL     1       4.676   3.933  15.424  0.00  0.00    +0.000 A 
ENDBRANCH   7  10
BRANCH   1  17
ATOM     17  N   UNL     1       2.336   7.151  20.739  0.00  0.00    +0.000 NA
ATOM     18  H   UNL     1       2.735   7.319  21.665  0.00  0.00    +0.000 HD
BRANCH  17  19
ATOM     19  C   UNL     1       0.904   7.502  20.802  0.00  0.00    +0.000 C 
BRANCH  19  26
ATOM     20  C   UNL     1       1.140   9.525  18.245  0.00  0.00    +0.000 C 
ATOM     21  C   UNL     1       0.761   9.846  19.642  0.00  0.00    +0.000 A 
ATOM     22  N   UNL     1       0.391  11.089  19.971  0.00  0.00    +0.000 NA
ATOM     23  O   UNL     1       0.059  11.042  21.310  0.00  0.00    +0.000 OA
ATOM     24  C   UNL     1       0.234   9.779  21.777  0.00  0.00    +0.000 A 
ATOM     25  C   UNL     1      -0.132   9.546  23.188  0.00  0.00    +0.000 C 
ATOM     26  C   UNL     1       0.695   8.968  20.759  0.00  0.00    +0.000 A 
ENDBRANCH  19  26
ENDBRANCH  17  19
ENDBRANCH   1  17
TORSDOF 4
ENDMDL
MODEL 8
REMARK VINA RESULT:      -8.0      3.058      6.446
REMARK  Name = 
REMARK  6 active torsions:
REMARK  status: ('A' for Active; 'I' for Inactive)
REMARK    1  A    between atoms: C_1  and  C_2
REMARK    2  A    between atoms: C_5  and  C_6
REMARK    3  A    between atoms: C_7  and  C_8
REMARK    4  A    between atoms: C_8  and  N_9
REMARK    5  A    between atoms: N_9  and  C_10
REMARK    6  A    between atoms: C_16  and  C_17
REMARK                            x       y       z     vdW  Elec       q    Type
REMARK                         _______ _______ _______ _____ _____    ______ ____
ROOT
ATOM      1  C   UNL     1       1.914   5.353  20.700  0.00  0.00    +0.000 C 
ATOM      2  C   UNL     1       1.160   4.053  21.050  0.00  0.00    +0.000 C 
ATOM      3  C   UNL     1       2.169   3.007  21.500  0.00  0.00    +0.000 C 
ATOM      4  C   UNL     1       3.311   2.917  20.563  0.00  0.00    +0.000 A 
ATOM      5  N   UNL     1       4.202   1.964  20.510  0.00  0.00    +0.000 NA
ATOM      6  N   UNL     1       5.077   2.280  19.513  0.00  0.00    +0.000 NA
ATOM      7  C   UNL     1       4.730   3.437  18.965  0.00  0.00    +0.000 A 
ATOM      8  N   UNL     1       3.611   3.888  19.629  0.00  0.00    +0.000 N 
ATOM      9  C   UNL     1       2.768   5.059  19.428  0.00  0.00    +0.000 C 
ENDROOT
BRANCH   7  10
ATOM     10  C   UNL     1       5.453   4.008  17.826  0.00  0.00    +0.000 A 
ATOM     11  C   UNL     1       4.904   3.817  16.541  0.00  0.00    +0.000 A 
ATOM     12  C   UNL     1       5.565   4.256  15.393  0.00  0.00    +0.000 A 
ATOM     13  C   UNL     1       6.786   4.896  15.522  0.00  0.00    +0.000 A 
ATOM     14  F   UNL     1       7.434   5.312  14.427  0.00  0.00    +0.000 F 
ATOM     15  C   UNL     1       7.358   5.092  16.774  0.00  0.00    +0.000 A 
ATOM     16  C   UNL     1       6.700   4.638  17.924  0.00  0.00    +0.000 A 
ENDBRANCH   7  10
BRANCH   1  17
ATOM     17  N   UNL     1       0.989   6.500  20.572  0.00  0.00    +0.000 NA
ATOM     18  H   UNL     1       0.527   6.475  19.660  0.00  0.00    +0.000 HD
BRANCH  17  19
ATOM     19  C   UNL     1       1.743   7.766  20.652  0.00  0.00    +0.000 C 
BRANCH  19  26
ATOM     20  C   UNL     1      -0.303  10.303  20.399  0.00  0.00    +0.000 C 
ATOM     21  C   UNL     1       0.624   9.761  19.377  0.00  0.00    +0.000 A 
ATOM     22  N   UNL     1       0.749  10.369  18.192  0.00  0.00    +0.000 NA
ATOM     23  O   UNL     1       1.710   9.658  17.502  0.00  0.00    +0.000 OA
ATOM     24  C   UNL     1       2.153   8.631  18.272  0.00  0.00    +0.000 A 
ATOM     25  C   UNL     1       3.231   7.800  17.698  0.00  0.00    +0.000 C 
ATOM     26  C   UNL     1       1.486   8.636  19.481  0.00  0.00    +0.000 A 
ENDBRANCH  19  26
ENDBRANCH  17  19
ENDBRANCH   1  17
TORSDOF 4
ENDMDL
MODEL 9
REMARK VINA RESULT:      -7.7      0.438      1.893
REMARK  Name = 
REMARK  6 active torsions:
REMARK  status: ('A' for Active; 'I' for Inactive)
REMARK    1  A    between atoms: C_1  and  C_2
REMARK    2  A    between atoms: C_5  and  C_6
REMARK    3  A    between atoms: C_7  and  C_8
REMARK    4  A    between atoms: C_8  and  N_9
REMARK    5  A    between atoms: N_9  and  C_10
REMARK    6  A    between atoms: C_16  and  C_17
REMARK                            x       y       z     vdW  Elec       q    Type
REMARK                         _______ _______ _______ _____ _____    ______ ____
ROOT
ATOM      1  C   UNL     1       4.069   3.248  18.075  0.00  0.00    +0.000 C 
ATOM      2  C   UNL     1       4.634   2.574  19.342  0.00  0.00    +0.000 C 
ATOM      3  C   UNL     1       3.532   2.495  20.388  0.00  0.00    +0.000 C 
ATOM      4  C   UNL     1       2.837   3.792  20.543  0.00  0.00    +0.000 A 
ATOM      5  N   UNL     1       2.037   4.136  21.515  0.00  0.00    +0.000 NA
ATOM      6  N   UNL     1       1.609   5.406  21.261  0.00  0.00    +0.000 NA
ATOM      7  C   UNL     1       2.137   5.834  20.122  0.00  0.00    +0.000 A 
ATOM      8  N   UNL     1       2.916   4.815  19.619  0.00  0.00    +0.000 N 
ATOM      9  C   UNL     1       3.769   4.734  18.441  0.00  0.00    +0.000 C 
ENDROOT
BRANCH   7  10
ATOM     10  C   UNL     1       1.905   7.190  19.615  0.00  0.00    +0.000 A 
ATOM     11  C   UNL     1       2.390   7.498  18.327  0.00  0.00    +0.000 A 
ATOM     12  C   UNL     1       2.284   8.785  17.798  0.00  0.00    +0.000 A 
ATOM     13  C   UNL     1       1.688   9.778  18.555  0.00  0.00    +0.000 A 
ATOM     14  F   UNL     1       1.591  11.019  18.062  0.00  0.00    +0.000 F 
ATOM     15  C   UNL     1       1.209   9.508  19.832  0.00  0.00    +0.000 A 
ATOM     16  C   UNL     1       1.327   8.219  20.367  0.00  0.00    +0.000 A 
ENDBRANCH   7  10
BRANCH   1  17
ATOM     17  N   UNL     1       4.969   3.067  16.915  0.00  0.00    +0.000 NA
ATOM     18  H   UNL     1       5.940   3.205  17.204  0.00  0.00    +0.000 HD
BRANCH  17  19
ATOM     19  C   UNL     1       4.666   4.075  15.880  0.00  0.00    +0.000 C 
BRANCH  19  26
ATOM     20  C   UNL     1       6.754   6.101  17.371  0.00  0.00    +0.000 C 
ATOM     21  C   UNL     1       6.827   5.551  15.997  0.00  0.00    +0.000 A 
ATOM     22  N   UNL     1       7.884   5.816  15.220  0.00  0.00    +0.000 NA
ATOM     23  O   UNL     1       7.671   5.125  14.044  0.00  0.00    +0.000 OA
ATOM     24  C   UNL     1       6.492   4.455  14.118  0.00  0.00    +0.000 A 
ATOM     25  C   UNL     1       6.141   3.617  12.954  0.00  0.00    +0.000 C 
ATOM     26  C   UNL     1       5.898   4.697  15.340  0.00  0.00    +0.000 A 
ENDBRANCH  19  26
ENDBRANCH  17  19
ENDBRANCH   1  17
TORSDOF 4
ENDMDL
