MODEL 1
REMARK VINA RESULT:      -8.3      0.000      0.000
REMARK  Name = 
REMARK  6 active torsions:
REMARK  status: ('A' for Active; 'I' for Inactive)
REMARK    1  A    between atoms: C_1  and  C_2
REMARK    2  A    between atoms: C_7  and  C_8
REMARK    3  A    between atoms: N_11  and  C_12
REMARK    4  A    between atoms: C_12  and  C_13
REMARK    5  A    between atoms: N_15  and  C_16
REMARK    6  A    between atoms: N_15  and  C_22
REMARK                            x       y       z     vdW  Elec       q    Type
REMARK                         _______ _______ _______ _____ _____    ______ ____
ROOT
ATOM      1  C   UNL     1       2.802   5.591  18.584  0.00  0.00    +0.000 C 
ATOM      2  O   UNL     1       1.637   5.187  18.575  0.00  0.00    +0.000 OA
ATOM      3  N   UNL     1       3.816   4.799  18.006  0.00  0.00    +0.000 N 
ENDROOT
BRANCH   3   4
ATOM      4  C   UNL     1       5.222   5.285  17.704  0.00  0.00    +0.000 C 
ATOM      5  C   UNL     1       6.167   4.207  17.098  0.00  0.00    +0.000 C 
ATOM      6  C   UNL     1       5.788   3.879  15.652  0.00  0.00    +0.000 C 
ATOM      7  C   UNL     1       6.110   5.080  14.779  0.00  0.00    +0.000 C 
ATOM      8  C   UNL     1       5.354   6.310  15.258  0.00  0.00    +0.000 C 
ATOM      9  C   UNL     1       5.388   6.530  16.779  0.00  0.00    +0.000 C 
ENDBRANCH   3   4
BRANCH   3  10
ATOM     10  C   UNL     1       3.640   3.318  18.262  0.00  0.00    +0.000 C 
ATOM     11  C   UNL     1       3.929   2.933  19.726  0.00  0.00    +0.000 C 
ATOM     12  C   UNL     1       2.705   2.952  20.633  0.00  0.00    +0.000 C 
ATOM     13  C   UNL     1       1.589   2.066  20.098  0.00  0.00    +0.000 C 
ATOM     14  C   UNL     1       1.208   2.362  18.653  0.00  0.00    +0.000 C 
ATOM     15  C   UNL     1       2.384   2.610  17.702  0.00  0.00    +0.000 C 
ENDBRANCH   3  10
BRANCH   1  16
ATOM     16  C   UNL     1       3.124   6.900  19.283  0.00  0.00    +0.000 C 
BRANCH  16  20
ATOM     17  C   UNL     1       1.122   9.663  18.675  0.00  0.00    +0.000 A 
ATOM     18  N   UNL     1       1.798   9.591  17.472  0.00  0.00    +0.000 NA
ATOM     19  N   UNL     1       2.545   8.496  17.502  0.00  0.00    +0.000 NA
ATOM     20  N   UNL     1       2.326   7.978  18.719  0.00  0.00    +0.000 N 
ATOM     21  N   UNL     1       1.338   8.566  19.428  0.00  0.00    +0.000 NA
BRANCH  17  28
ATOM     22  C   UNL     1      -1.764  10.167  17.800  0.00  0.00    +0.000 C 
ATOM     23  C   UNL     1      -0.992  11.084  18.704  0.00  0.00    +0.000 A 
ATOM     24  C   UNL     1      -1.616  12.279  19.121  0.00  0.00    +0.000 A 
ATOM     25  C   UNL     1      -0.968  13.189  19.947  0.00  0.00    +0.000 A 
ATOM     26  C   UNL     1       0.318  12.924  20.388  0.00  0.00    +0.000 A 
ATOM     27  C   UNL     1       0.963  11.753  19.980  0.00  0.00    +0.000 A 
ATOM     28  C   UNL     1       0.334  10.823  19.129  0.00  0.00    +0.000 A 
ENDBRANCH  17  28
ENDBRANCH  16  20
ENDBRANCH   1  16
TORSDOF 5
ENDMDL
MODEL 2
REMARK VINA RESULT:      -8.3      1.335      3.927
REMARK  Name = 
REMARK  6 active torsions:
REMARK  status: ('A' for Active; 'I' for Inactive)
REMARK    1  A    between atoms: C_1  and  C_2
REMARK    2  A    between atoms: C_7  and  C_8
REMARK    3  A    between atoms: N_11  and  C_12
REMARK    4  A    between atoms: C_12  and  C_13
REMARK    5  A    between atoms: N_15  and  C_16
REMARK    6  A    between atoms: N_15  and  C_22
REMARK                            x       y       z     vdW  Elec       q    Type
REMARK                         _______ _______ _______ _____ _____    ______ ____
ROOT
ATOM      1  C   UNL     1       3.673   6.001  18.135  0.00  0.00    +0.000 C 
ATOM      2  O   UNL     1       4.665   6.729  18.207  0.00  0.00    +0.000 OA
ATOM      3  N   UNL     1       3.809   4.617  18.371  0.00  0.00    +0.000 N 
ENDROOT
BRANCH   3   4
ATOM      4  C   UNL     1       2.650   3.661  18.583  0.00  0.00    +0.000 C 
ATOM      5  C   UNL     1       3.038   2.303  19.237  0.00  0.00    +0.000 C 
ATOM      6  C   UNL     1       3.388   2.474  20.717  0.00  0.00    +0.000 C 
ATOM      7  C   UNL     1       2.122   2.820  21.482  0.00  0.00    +0.000 C 
ATOM      8  C   UNL     1       1.497   4.094  20.935  0.00  0.00    +0.000 C 
ATOM      9  C   UNL     1       1.421   4.164  19.402  0.00  0.00    +0.000 C 
ENDBRANCH   3   4
BRANCH   3  10
ATOM     10  C   UNL     1       5.087   4.035  17.805  0.00  0.00    +0.000 C 
ATOM     11  C   UNL     1       5.008   3.804  16.284  0.00  0.00    +0.000 C 
ATOM     12  C   UNL     1       5.499   4.977  15.444  0.00  0.00    +0.000 C 
ATOM     13  C   UNL     1       6.920   5.381  15.813  0.00  0.00    +0.000 C 
ATOM     14  C   UNL     1       7.119   5.645  17.300  0.00  0.00    +0.000 C 
ATOM     15  C   UNL     1       6.440   4.645  18.241  0.00  0.00    +0.000 C 
ENDBRANCH   3  10
BRANCH   1  16
ATOM     16  C   UNL     1       2.342   6.605  17.721  0.00  0.00    +0.000 C 
BRANCH  16  20
ATOM     17  C   UNL     1       1.350   9.683  18.965  0.00  0.00    +0.000 A 
ATOM     18  N   UNL     1       1.418   8.962  20.142  0.00  0.00    +0.000 NA
ATOM     19  N   UNL     1       1.899   7.763  19.845  0.00  0.00    +0.000 NA
ATOM     20  N   UNL     1       2.062   7.790  18.515  0.00  0.00    +0.000 N 
ATOM     21  N   UNL     1       1.890   8.999  17.936  0.00  0.00    +0.000 NA
BRANCH  17  28
ATOM     22  C   UNL     1      -1.619   9.999  18.311  0.00  0.00    +0.000 C 
ATOM     23  C   UNL     1      -0.674  11.153  18.483  0.00  0.00    +0.000 A 
ATOM     24  C   UNL     1      -1.174  12.455  18.267  0.00  0.00    +0.000 A 
ATOM     25  C   UNL     1      -0.363  13.575  18.392  0.00  0.00    +0.000 A 
ATOM     26  C   UNL     1       0.967  13.428  18.747  0.00  0.00    +0.000 A 
ATOM     27  C   UNL     1       1.490  12.149  18.956  0.00  0.00    +0.000 A 
ATOM     28  C   UNL     1       0.693  10.994  18.818  0.00  0.00    +0.000 A 
ENDBRANCH  17  28
ENDBRANCH  16  20
ENDBRANCH   1  16
TORSDOF 5
ENDMDL
MODEL 3
REMARK VINA RESULT:      -8.1      1.359      4.057
REMARK  Name = 
REMARK  6 active torsions:
REMARK  status: ('A' for Active; 'I' for Inactive)
REMARK    1  A    between atoms: C_1  and  C_2
REMARK    2  A    between atoms: C_7  and  C_8
REMARK    3  A    between atoms: N_11  and  C_12
REMARK    4  A    between atoms: C_12  and  C_13
REMARK    5  A    between atoms: N_15  and  C_16
REMARK    6  A    between atoms: N_15  and  C_22
REMARK                            x       y       z     vdW  Elec       q    Type
REMARK                         _______ _______ _______ _____ _____    ______ ____
ROOT
ATOM      1  C   UNL     1       3.711   6.113  18.015  0.00  0.00    +0.000 C 
ATOM      2  O   UNL     1       4.723   6.817  18.013  0.00  0.00    +0.000 OA
ATOM      3  N   UNL     1       3.815   4.747  18.351  0.00  0.00    +0.000 N 
ENDROOT
BRANCH   3   4
ATOM      4  C   UNL     1       2.637   3.842  18.658  0.00  0.00    +0.000 C 
ATOM      5  C   UNL     1       3.021   2.402  19.105  0.00  0.00    +0.000 C 
ATOM      6  C   UNL     1       3.612   2.393  20.516  0.00  0.00    +0.000 C 
ATOM      7  C   UNL     1       2.511   2.727  21.509  0.00  0.00    +0.000 C 
ATOM      8  C   UNL     1       1.904   4.086  21.198  0.00  0.00    +0.000 C 
ATOM      9  C   UNL     1       1.593   4.324  19.712  0.00  0.00    +0.000 C 
ENDBRANCH   3   4
BRANCH   3  10
ATOM     10  C   UNL     1       5.065   4.089  17.805  0.00  0.00    +0.000 C 
ATOM     11  C   UNL     1       4.970   3.805  16.294  0.00  0.00    +0.000 C 
ATOM     12  C   UNL     1       5.508   4.923  15.409  0.00  0.00    +0.000 C 
ATOM     13  C   UNL     1       6.946   5.279  15.759  0.00  0.00    +0.000 C 
ATOM     14  C   UNL     1       7.162   5.591  17.234  0.00  0.00    +0.000 C 
ATOM     15  C   UNL     1       6.444   4.657  18.214  0.00  0.00    +0.000 C 
ENDBRANCH   3  10
BRANCH   1  16
ATOM     16  C   UNL     1       2.387   6.721  17.584  0.00  0.00    +0.000 C 
BRANCH  16  20
ATOM     17  C   UNL     1       1.147   9.610  19.041  0.00  0.00    +0.000 A 
ATOM     18  N   UNL     1       1.450   8.884  20.176  0.00  0.00    +0.000 NA
ATOM     19  N   UNL     1       2.049   7.768  19.784  0.00  0.00    +0.000 NA
ATOM     20  N   UNL     1       2.047   7.842  18.446  0.00  0.00    +0.000 N 
ATOM     21  N   UNL     1       1.648   9.027  17.933  0.00  0.00    +0.000 NA
BRANCH  17  28
ATOM     22  C   UNL     1       2.257  12.400  18.464  0.00  0.00    +0.000 C 
ATOM     23  C   UNL     1       0.816  12.124  18.783  0.00  0.00    +0.000 A 
ATOM     24  C   UNL     1      -0.061  13.224  18.884  0.00  0.00    +0.000 A 
ATOM     25  C   UNL     1      -1.406  13.057  19.189  0.00  0.00    +0.000 A 
ATOM     26  C   UNL     1      -1.914  11.784  19.389  0.00  0.00    +0.000 A 
ATOM     27  C   UNL     1      -1.064  10.678  19.306  0.00  0.00    +0.000 A 
ATOM     28  C   UNL     1       0.308  10.822  19.016  0.00  0.00    +0.000 A 
ENDBRANCH  17  28
ENDBRANCH  16  20
ENDBRANCH   1  16
TORSDOF 5
ENDMDL
MODEL 4
REMARK VINA RESULT:      -8.1      0.617      1.235
REMARK  Name = 
REMARK  6 active torsions:
REMARK  status: ('A' for Active; 'I' for Inactive)
REMARK    1  A    between atoms: C_1  and  C_2
REMARK    2  A    between atoms: C_7  and  C_8
REMARK    3  A    between atoms: N_11  and  C_12
REMARK    4  A    between atoms: C_12  and  C_13
REMARK    5  A    between atoms: N_15  and  C_16
REMARK    6  A    between atoms: N_15  and  C_22
REMARK                            x       y       z     vdW  Elec       q    Type
REMARK                         _______ _______ _______ _____ _____    ______ ____
ROOT
ATOM      1  C   UNL     1       2.737   5.613  18.649  0.00  0.00    +0.000 C 
ATOM      2  O   UNL     1       1.574   5.204  18.627  0.00  0.00    +0.000 OA
ATOM      3  N   UNL     1       3.761   4.827  18.083  0.00  0.00    +0.000 N 
ENDROOT
BRANCH   3   4
ATOM      4  C   UNL     1       5.168   5.319  17.798  0.00  0.00    +0.000 C 
ATOM      5  C   UNL     1       6.129   4.242  17.217  0.00  0.00    +0.000 C 
ATOM      6  C   UNL     1       5.774   3.898  15.768  0.00  0.00    +0.000 C 
ATOM      7  C   UNL     1       6.102   5.094  14.889  0.00  0.00    +0.000 C 
ATOM      8  C   UNL     1       5.331   6.323  15.346  0.00  0.00    +0.000 C 
ATOM      9  C   UNL     1       5.340   6.556  16.865  0.00  0.00    +0.000 C 
ENDBRANCH   3   4
BRANCH   3  10
ATOM     10  C   UNL     1       3.588   3.344  18.336  0.00  0.00    +0.000 C 
ATOM     11  C   UNL     1       3.879   2.957  19.799  0.00  0.00    +0.000 C 
ATOM     12  C   UNL     1       2.656   2.972  20.707  0.00  0.00    +0.000 C 
ATOM     13  C   UNL     1       1.541   2.085  20.171  0.00  0.00    +0.000 C 
ATOM     14  C   UNL     1       1.159   2.382  18.726  0.00  0.00    +0.000 C 
ATOM     15  C   UNL     1       2.334   2.635  17.775  0.00  0.00    +0.000 C 
ENDBRANCH   3  10
BRANCH   1  16
ATOM     16  C   UNL     1       3.044   6.924  19.353  0.00  0.00    +0.000 C 
BRANCH  16  20
ATOM     17  C   UNL     1       1.180   9.760  18.655  0.00  0.00    +0.000 A 
ATOM     18  N   UNL     1       1.751   9.542  17.416  0.00  0.00    +0.000 NA
ATOM     19  N   UNL     1       2.426   8.403  17.486  0.00  0.00    +0.000 NA
ATOM     20  N   UNL     1       2.274   8.004  18.757  0.00  0.00    +0.000 N 
ATOM     21  N   UNL     1       1.385   8.717  19.484  0.00  0.00    +0.000 NA
BRANCH  17  28
ATOM     22  C   UNL     1       2.430  12.527  18.300  0.00  0.00    +0.000 C 
ATOM     23  C   UNL     1       1.090  12.291  18.934  0.00  0.00    +0.000 A 
ATOM     24  C   UNL     1       0.397  13.407  19.451  0.00  0.00    +0.000 A 
ATOM     25  C   UNL     1      -0.841  13.274  20.065  0.00  0.00    +0.000 A 
ATOM     26  C   UNL     1      -1.429  12.024  20.168  0.00  0.00    +0.000 A 
ATOM     27  C   UNL     1      -0.760  10.901  19.673  0.00  0.00    +0.000 A 
ATOM     28  C   UNL     1       0.506  11.006  19.062  0.00  0.00    +0.000 A 
ENDBRANCH  17  28
ENDBRANCH  16  20
ENDBRANCH   1  16
TORSDOF 5
ENDMDL
MODEL 5
REMARK VINA RESULT:      -8.1      1.163      2.061
REMARK  Name = 
REMARK  6 active torsions:
REMARK  status: ('A' for Active; 'I' for Inactive)
REMARK    1  A    between atoms: C_1  and  C_2
REMARK    2  A    between atoms: C_7  and  C_8
REMARK    3  A    between atoms: N_11  and  C_12
REMARK    4  A    between atoms: C_12  and  C_13
REMARK    5  A    between atoms: N_15  and  C_16
REMARK    6  A    between atoms: N_15  and  C_22
REMARK                            x       y       z     vdW  Elec       q    Type
REMARK                         _______ _______ _______ _____ _____    ______ ____
ROOT
ATOM      1  C   UNL     1       2.728   6.429  17.880  0.00  0.00    +0.000 C 
ATOM      2  O   UNL     1       1.546   6.084  17.952  0.00  0.00    +0.000 OA
ATOM      3  N   UNL     1       3.737   5.445  17.844  0.00  0.00    +0.000 N 
ENDROOT
BRANCH   3   4
ATOM      4  C   UNL     1       5.187   5.711  17.484  0.00  0.00    +0.000 C 
ATOM      5  C   UNL     1       6.090   4.444  17.438  0.00  0.00    +0.000 C 
ATOM      6  C   UNL     1       5.771   3.574  16.220  0.00  0.00    +0.000 C 
ATOM      7  C   UNL     1       6.222   4.305  14.966  0.00  0.00    +0.000 C 
ATOM      8  C   UNL     1       5.526   5.652  14.852  0.00  0.00    +0.000 C 
ATOM      9  C   UNL     1       5.489   6.467  16.154  0.00  0.00    +0.000 C 
ENDBRANCH   3   4
BRANCH   3  10
ATOM     10  C   UNL     1       3.458   4.266  18.751  0.00  0.00    +0.000 C 
ATOM     11  C   UNL     1       3.249   4.686  20.219  0.00  0.00    +0.000 C 
ATOM     12  C   UNL     1       1.798   4.961  20.592  0.00  0.00    +0.000 C 
ATOM     13  C   UNL     1       0.898   3.772  20.283  0.00  0.00    +0.000 C 
ATOM     14  C   UNL     1       1.013   3.271  18.849  0.00  0.00    +0.000 C 
ATOM     15  C   UNL     1       2.438   3.198  18.291  0.00  0.00    +0.000 C 
ENDBRANCH   3  10
BRANCH   1  16
ATOM     16  C   UNL     1       3.067   7.909  17.905  0.00  0.00    +0.000 C 
BRANCH  16  20
ATOM     17  C   UNL     1       0.255   9.717  18.814  0.00  0.00    +0.000 A 
ATOM     18  N   UNL     1       0.561   9.130  20.027  0.00  0.00    +0.000 NA
ATOM     19  N   UNL     1       1.703   8.475  19.872  0.00  0.00    +0.000 NA
ATOM     20  N   UNL     1       2.016   8.652  18.581  0.00  0.00    +0.000 N 
ATOM     21  N   UNL     1       1.245   9.541  17.916  0.00  0.00    +0.000 NA
BRANCH  17  28
ATOM     22  C   UNL     1      -0.848  12.076  20.416  0.00  0.00    +0.000 C 
ATOM     23  C   UNL     1      -1.562  11.449  19.254  0.00  0.00    +0.000 A 
ATOM     24  C   UNL     1      -2.844  11.938  18.924  0.00  0.00    +0.000 A 
ATOM     25  C   UNL     1      -3.577  11.405  17.873  0.00  0.00    +0.000 A 
ATOM     26  C   UNL     1      -3.046  10.376  17.113  0.00  0.00    +0.000 A 
ATOM     27  C   UNL     1      -1.782   9.866  17.425  0.00  0.00    +0.000 A 
ATOM     28  C   UNL     1      -1.025  10.377  18.499  0.00  0.00    +0.000 A 
ENDBRANCH  17  28
ENDBRANCH  16  20
ENDBRANCH   1  16
TORSDOF 5
ENDMDL
MODEL 6
REMARK VINA RESULT:      -7.9      1.667      1.868
REMARK  Name = 
REMARK  6 active torsions:
REMARK  status: ('A' for Active; 'I' for Inactive)
REMARK    1  A    between atoms: C_1  and  C_2
REMARK    2  A    between atoms: C_7  and  C_8
REMARK    3  A    between atoms: N_11  and  C_12
REMARK    4  A    between atoms: C_12  and  C_13
REMARK    5  A    between atoms: N_15  and  C_16
REMARK    6  A    between atoms: N_15  and  C_22
REMARK                            x       y       z     vdW  Elec       q    Type
REMARK                         _______ _______ _______ _____ _____    ______ ____
ROOT
ATOM      1  C   UNL     1       2.681   6.421  17.956  0.00  0.00    +0.000 C 
ATOM      2  O   UNL     1       1.505   6.062  18.048  0.00  0.00    +0.000 OA
ATOM      3  N   UNL     1       3.691   5.452  17.786  0.00  0.00    +0.000 N 
ENDROOT
BRANCH   3   4
ATOM      4  C   UNL     1       5.123   5.760  17.389  0.00  0.00    +0.000 C 
ATOM      5  C   UNL     1       6.082   4.535  17.407  0.00  0.00    +0.000 C 
ATOM      6  C   UNL     1       5.789   3.578  16.250  0.00  0.00    +0.000 C 
ATOM      7  C   UNL     1       6.191   4.248  14.947  0.00  0.00    +0.000 C 
ATOM      8  C   UNL     1       5.432   5.553  14.760  0.00  0.00    +0.000 C 
ATOM      9  C   UNL     1       5.374   6.445  16.010  0.00  0.00    +0.000 C 
ENDBRANCH   3   4
BRANCH   3  10
ATOM     10  C   UNL     1       3.456   4.193  18.592  0.00  0.00    +0.000 C 
ATOM     11  C   UNL     1       3.398   4.464  20.108  0.00  0.00    +0.000 C 
ATOM     12  C   UNL     1       1.997   4.735  20.643  0.00  0.00    +0.000 C 
ATOM     13  C   UNL     1       1.033   3.607  20.303  0.00  0.00    +0.000 C 
ATOM     14  C   UNL     1       0.998   3.254  18.821  0.00  0.00    +0.000 C 
ATOM     15  C   UNL     1       2.362   3.204  18.126  0.00  0.00    +0.000 C 
ENDBRANCH   3  10
BRANCH   1  16
ATOM     16  C   UNL     1       3.016   7.895  18.102  0.00  0.00    +0.000 C 
BRANCH  16  20
ATOM     17  C   UNL     1       0.582   9.793  19.676  0.00  0.00    +0.000 A 
ATOM     18  N   UNL     1       0.235  10.011  18.357  0.00  0.00    +0.000 NA
ATOM     19  N   UNL     1       1.022   9.250  17.610  0.00  0.00    +0.000 NA
ATOM     20  N   UNL     1       1.831   8.642  18.490  0.00  0.00    +0.000 N 
ATOM     21  N   UNL     1       1.504   8.816  19.790  0.00  0.00    +0.000 NA
BRANCH  17  28
ATOM     22  C   UNL     1      -0.504   8.524  22.237  0.00  0.00    +0.000 C 
ATOM     23  C   UNL     1      -0.452  10.005  21.996  0.00  0.00    +0.000 A 
ATOM     24  C   UNL     1      -0.993  10.855  22.983  0.00  0.00    +0.000 A 
ATOM     25  C   UNL     1      -0.997  12.235  22.832  0.00  0.00    +0.000 A 
ATOM     26  C   UNL     1      -0.448  12.807  21.696  0.00  0.00    +0.000 A 
ATOM     27  C   UNL     1       0.085  11.987  20.698  0.00  0.00    +0.000 A 
ATOM     28  C   UNL     1       0.085  10.582  20.818  0.00  0.00    +0.000 A 
ENDBRANCH  17  28
ENDBRANCH  16  20
ENDBRANCH   1  16
TORSDOF 5
ENDMDL
MODEL 7
REMARK VINA RESULT:      -7.9      0.641      1.149
REMARK  Name = 
REMARK  6 active torsions:
REMARK  status: ('A' for Active; 'I' for Inactive)
REMARK    1  A    between atoms: C_1  and  C_2
REMARK    2  A    between atoms: C_7  and  C_8
REMARK    3  A    between atoms: N_11  and  C_12
REMARK    4  A    between atoms: C_12  and  C_13
REMARK    5  A    between atoms: N_15  and  C_16
REMARK    6  A    between atoms: N_15  and  C_22
REMARK                            x       y       z     vdW  Elec       q    Type
REMARK                         _______ _______ _______ _____ _____    ______ ____
ROOT
ATOM      1  C   UNL     1       2.713   5.704  18.575  0.00  0.00    +0.000 C 
ATOM      2  O   UNL     1       1.700   5.134  18.986  0.00  0.00    +0.000 OA
ATOM      3  N   UNL     1       3.502   5.089  17.581  0.00  0.00    +0.000 N 
ENDROOT
BRANCH   3   4
ATOM      4  C   UNL     1       4.601   5.785  16.799  0.00  0.00    +0.000 C 
ATOM      5  C   UNL     1       5.759   6.354  17.669  0.00  0.00    +0.000 C 
ATOM      6  C   UNL     1       6.637   5.235  18.234  0.00  0.00    +0.000 C 
ATOM      7  C   UNL     1       7.410   4.597  17.092  0.00  0.00    +0.000 C 
ATOM      8  C   UNL     1       6.458   4.045  16.042  0.00  0.00    +0.000 C 
ATOM      9  C   UNL     1       5.309   4.991  15.659  0.00  0.00    +0.000 C 
ENDBRANCH   3   4
BRANCH   3  10
ATOM     10  C   UNL     1       3.624   3.590  17.755  0.00  0.00    +0.000 C 
ATOM     11  C   UNL     1       4.264   3.201  19.101  0.00  0.00    +0.000 C 
ATOM     12  C   UNL     1       3.265   2.971  20.228  0.00  0.00    +0.000 C 
ATOM     13  C   UNL     1       2.222   1.927  19.855  0.00  0.00    +0.000 C 
ATOM     14  C   UNL     1       1.511   2.211  18.538  0.00  0.00    +0.000 C 
ATOM     15  C   UNL     1       2.411   2.698  17.398  0.00  0.00    +0.000 C 
ENDBRANCH   3  10
BRANCH   1  16
ATOM     16  C   UNL     1       3.124   7.023  19.206  0.00  0.00    +0.000 C 
BRANCH  16  20
ATOM     17  C   UNL     1       1.024   9.736  18.718  0.00  0.00    +0.000 A 
ATOM     18  N   UNL     1       1.743   9.777  17.538  0.00  0.00    +0.000 NA
ATOM     19  N   UNL     1       2.535   8.715  17.520  0.00  0.00    +0.000 NA
ATOM     20  N   UNL     1       2.300   8.104  18.689  0.00  0.00    +0.000 N 
ATOM     21  N   UNL     1       1.263   8.599  19.401  0.00  0.00    +0.000 NA
BRANCH  17  28
ATOM     22  C   UNL     1      -1.837  10.204  17.748  0.00  0.00    +0.000 C 
ATOM     23  C   UNL     1      -1.144  11.074  18.755  0.00  0.00    +0.000 A 
ATOM     24  C   UNL     1      -1.833  12.209  19.234  0.00  0.00    +0.000 A 
ATOM     25  C   UNL     1      -1.258  13.073  20.157  0.00  0.00    +0.000 A 
ATOM     26  C   UNL     1       0.016  12.821  20.638  0.00  0.00    +0.000 A 
ATOM     27  C   UNL     1       0.724  11.709  20.172  0.00  0.00    +0.000 A 
ATOM     28  C   UNL     1       0.171  10.827  19.222  0.00  0.00    +0.000 A 
ENDBRANCH  17  28
ENDBRANCH  16  20
ENDBRANCH   1  16
TORSDOF 5
ENDMDL
MODEL 8
REMARK VINA RESULT:      -7.9      1.353      3.739
REMARK  Name = 
REMARK  6 active torsions:
REMARK  status: ('A' for Active; 'I' for Inactive)
REMARK    1  A    between atoms: C_1  and  C_2
REMARK    2  A    between atoms: C_7  and  C_8
REMARK    3  A    between atoms: N_11  and  C_12
REMARK    4  A    between atoms: C_12  and  C_13
REMARK    5  A    between atoms: N_15  and  C_16
REMARK    6  A    between atoms: N_15  and  C_22
REMARK                            x       y       z     vdW  Elec       q    Type
REMARK                         _______ _______ _______ _____ _____    ______ ____
ROOT
ATOM      1  C   UNL     1       3.844   6.375  18.044  0.00  0.00    +0.000 C 
ATOM      2  O   UNL     1       4.737   7.048  17.526  0.00  0.00    +0.000 OA
ATOM      3  N   UNL     1       4.180   5.207  18.758  0.00  0.00    +0.000 N 
ENDROOT
BRANCH   3   4
ATOM      4  C   UNL     1       3.228   4.446  19.664  0.00  0.00    +0.000 C 
ATOM      5  C   UNL     1       1.767   4.349  19.138  0.00  0.00    +0.000 C 
ATOM      6  C   UNL     1       1.664   3.395  17.946  0.00  0.00    +0.000 C 
ATOM      7  C   UNL     1       1.898   1.975  18.435  0.00  0.00    +0.000 C 
ATOM      8  C   UNL     1       3.263   1.854  19.094  0.00  0.00    +0.000 C 
ATOM      9  C   UNL     1       3.606   2.989  20.071  0.00  0.00    +0.000 C 
ENDBRANCH   3   4
BRANCH   3  10
ATOM     10  C   UNL     1       5.303   4.417  18.122  0.00  0.00    +0.000 C 
ATOM     11  C   UNL     1       4.947   3.917  16.708  0.00  0.00    +0.000 C 
ATOM     12  C   UNL     1       5.352   4.865  15.587  0.00  0.00    +0.000 C 
ATOM     13  C   UNL     1       6.836   5.200  15.636  0.00  0.00    +0.000 C 
ATOM     14  C   UNL     1       7.306   5.715  16.990  0.00  0.00    +0.000 C 
ATOM     15  C   UNL     1       6.744   4.972  18.207  0.00  0.00    +0.000 C 
ENDBRANCH   3  10
BRANCH   1  16
ATOM     16  C   UNL     1       2.396   6.785  17.835  0.00  0.00    +0.000 C 
BRANCH  16  20
ATOM     17  C   UNL     1       1.362   9.842  19.098  0.00  0.00    +0.000 A 
ATOM     18  N   UNL     1       1.381   9.099  20.262  0.00  0.00    +0.000 NA
ATOM     19  N   UNL     1       1.870   7.905  19.962  0.00  0.00    +0.000 NA
ATOM     20  N   UNL     1       2.087   7.956  18.640  0.00  0.00    +0.000 N 
ATOM     21  N   UNL     1       1.942   9.177  18.078  0.00  0.00    +0.000 NA
BRANCH  17  28
ATOM     22  C   UNL     1      -1.541  10.184  18.203  0.00  0.00    +0.000 C 
ATOM     23  C   UNL     1      -0.619  11.330  18.504  0.00  0.00    +0.000 A 
ATOM     24  C   UNL     1      -1.104  12.640  18.301  0.00  0.00    +0.000 A 
ATOM     25  C   UNL     1      -0.312  13.755  18.542  0.00  0.00    +0.000 A 
ATOM     26  C   UNL     1       0.984  13.593  19.005  0.00  0.00    +0.000 A 
ATOM     27  C   UNL     1       1.492  12.307  19.204  0.00  0.00    +0.000 A 
ATOM     28  C   UNL     1       0.715  11.158  18.950  0.00  0.00    +0.000 A 
ENDBRANCH  17  28
ENDBRANCH  16  20
ENDBRANCH   1  16
TORSDOF 5
ENDMDL
MODEL 9
REMARK VINA RESULT:      -7.8      1.120      2.336
REMARK  Name = 
REMARK  6 active torsions:
REMARK  status: ('A' for Active; 'I' for Inactive)
REMARK    1  A    between atoms: C_1  and  C_2
REMARK    2  A    between atoms: C_7  and  C_8
REMARK    3  A    between atoms: N_11  and  C_12
REMARK    4  A    between atoms: C_12  and  C_13
REMARK    5  A    between atoms: N_15  and  C_16
REMARK    6  A    between atoms: N_15  and  C_22
REMARK                            x       y       z     vdW  Elec       q    Type
REMARK                         _______ _______ _______ _____ _____    ______ ____
ROOT
ATOM      1  C   UNL     1       2.389   6.448  17.931  0.00  0.00    +0.000 C 
ATOM      2  O   UNL     1       1.179   6.233  17.835  0.00  0.00    +0.000 OA
ATOM      3  N   UNL     1       3.281   5.362  18.052  0.00  0.00    +0.000 N 
ENDROOT
BRANCH   3   4
ATOM      4  C   UNL     1       4.788   5.463  17.903  0.00  0.00    +0.000 C 
ATOM      5  C   UNL     1       5.462   4.224  17.246  0.00  0.00    +0.000 C 
ATOM      6  C   UNL     1       5.150   4.145  15.750  0.00  0.00    +0.000 C 
ATOM      7  C   UNL     1       5.867   5.283  15.041  0.00  0.00    +0.000 C 
ATOM      8  C   UNL     1       5.427   6.626  15.604  0.00  0.00    +0.000 C 
ATOM      9  C   UNL     1       5.371   6.691  17.138  0.00  0.00    +0.000 C 
ENDBRANCH   3   4
BRANCH   3  10
ATOM     10  C   UNL     1       2.748   4.243  18.921  0.00  0.00    +0.000 C 
ATOM     11  C   UNL     1       1.984   3.179  18.110  0.00  0.00    +0.000 C 
ATOM     12  C   UNL     1       2.845   2.019  17.627  0.00  0.00    +0.000 C 
ATOM     13  C   UNL     1       3.575   1.338  18.777  0.00  0.00    +0.000 C 
ATOM     14  C   UNL     1       4.378   2.295  19.649  0.00  0.00    +0.000 C 
ATOM     15  C   UNL     1       3.681   3.618  19.985  0.00  0.00    +0.000 C 
ENDBRANCH   3  10
BRANCH   1  16
ATOM     16  C   UNL     1       2.881   7.884  17.989  0.00  0.00    +0.000 C 
BRANCH  16  20
ATOM     17  C   UNL     1       0.135   9.839  18.794  0.00  0.00    +0.000 A 
ATOM     18  N   UNL     1       0.519   9.437  20.059  0.00  0.00    +0.000 NA
ATOM     19  N   UNL     1       1.647   8.754  19.932  0.00  0.00    +0.000 NA
ATOM     20  N   UNL     1       1.876   8.732  18.612  0.00  0.00    +0.000 N 
ATOM     21  N   UNL     1       1.064   9.519  17.872  0.00  0.00    +0.000 NA
BRANCH  17  28
ATOM     22  C   UNL     1      -1.040  12.187  20.360  0.00  0.00    +0.000 C 
ATOM     23  C   UNL     1      -1.732  11.523  19.205  0.00  0.00    +0.000 A 
ATOM     24  C   UNL     1      -3.026  11.971  18.864  0.00  0.00    +0.000 A 
ATOM     25  C   UNL     1      -3.741  11.402  17.818  0.00  0.00    +0.000 A 
ATOM     26  C   UNL     1      -3.177  10.378  17.074  0.00  0.00    +0.000 A 
ATOM     27  C   UNL     1      -1.901   9.910  17.397  0.00  0.00    +0.000 A 
ATOM     28  C   UNL     1      -1.162  10.457  18.466  0.00  0.00    +0.000 A 
ENDBRANCH  17  28
ENDBRANCH  16  20
ENDBRANCH   1  16
TORSDOF 5
ENDMDL
