MODEL 1
REMARK VINA RESULT:      -8.1      0.000      0.000
REMARK  Name = 
REMARK  4 active torsions:
REMARK  status: ('A' for Active; 'I' for Inactive)
REMARK    1  A    between atoms: N_1  and  C_2
REMARK    2  A    between atoms: C_3  and  C_4
REMARK    3  A    between atoms: C_4  and  C_6
REMARK    4  A    between atoms: C_18  and  C_19
REMARK                            x       y       z     vdW  Elec       q    Type
REMARK                         _______ _______ _______ _____ _____    ______ ____
ROOT
ATOM      1  C   UNL     1       2.164   7.885  18.626  0.00  0.00    +0.000 A 
ATOM      2  C   UNL     1       1.422   8.883  19.298  0.00  0.00    +0.000 A 
ATOM      3  C   UNL     1       0.956   8.679  20.596  0.00  0.00    +0.000 A 
ATOM      4  C   UNL     1       1.191   7.466  21.215  0.00  0.00    +0.000 A 
ATOM      5  N   UNL     1       1.862   6.430  20.581  0.00  0.00    +0.000 N 
ATOM      6  O   UNL     1       1.965   5.332  21.230  0.00  0.00    +0.000 OA
ATOM      7  C   UNL     1       2.383   6.621  19.278  0.00  0.00    +0.000 A 
ENDROOT
BRANCH   7   8
ATOM      8  C   UNL     1       3.066   5.454  18.642  0.00  0.00    +0.000 A 
ATOM      9  C   UNL     1       2.387   4.553  17.791  0.00  0.00    +0.000 A 
ATOM     10  C   UNL     1       3.053   3.537  17.074  0.00  0.00    +0.000 A 
ATOM     11  C   UNL     1       4.425   3.357  17.217  0.00  0.00    +0.000 A 
ATOM     12  C   UNL     1       5.082   4.197  18.085  0.00  0.00    +0.000 A 
ATOM     13  C   UNL     1       4.433   5.210  18.766  0.00  0.00    +0.000 A 
ATOM     14  O   UNL     1       5.307   5.906  19.556  0.00  0.00    +0.000 OA
ATOM     15  C   UNL     1       6.553   5.234  19.275  0.00  0.00    +0.000 C 
ATOM     16  O   UNL     1       6.414   4.140  18.358  0.00  0.00    +0.000 OA
ENDBRANCH   7   8
BRANCH   1  17
ATOM     17  N   UNL     1       2.899   8.214  17.453  0.00  0.00    +0.000 N 
ATOM     18  H   UNL     1       2.675   9.092  17.003  0.00  0.00    +0.000 HD
ATOM     19  H   UNL     1       2.904   7.458  16.771  0.00  0.00    +0.000 HD
ENDBRANCH   1  17
BRANCH   2  20
ATOM     20  C   UNL     1       1.058  10.194  18.701  0.00  0.00    +0.000 C 
ATOM     21  O   UNL     1       1.963  10.941  18.334  0.00  0.00    +0.000 OA
BRANCH  20  22
ATOM     22  C   UNL     1      -0.345  10.673  18.593  0.00  0.00    +0.000 A 
ATOM     23  C   UNL     1      -1.178  10.057  17.644  0.00  0.00    +0.000 A 
ATOM     24  C   UNL     1      -2.501  10.481  17.491  0.00  0.00    +0.000 A 
ATOM     25  C   UNL     1      -2.988  11.516  18.286  0.00  0.00    +0.000 A 
ATOM     26  F   UNL     1      -4.255  11.923  18.136  0.00  0.00    +0.000 F 
ATOM     27  C   UNL     1      -2.176  12.139  19.225  0.00  0.00    +0.000 A 
ATOM     28  C   UNL     1      -0.856  11.721  19.366  0.00  0.00    +0.000 A 
ATOM     29  F   UNL     1      -0.086  12.369  20.251  0.00  0.00    +0.000 F 
ENDBRANCH  20  22
ENDBRANCH   2  20
TORSDOF 4
ENDMDL
MODEL 2
REMARK VINA RESULT:      -8.0      0.874      1.308
REMARK  Name = 
REMARK  4 active torsions:
REMARK  status: ('A' for Active; 'I' for Inactive)
REMARK    1  A    between atoms: N_1  and  C_2
REMARK    2  A    between atoms: C_3  and  C_4
REMARK    3  A    between atoms: C_4  and  C_6
REMARK    4  A    between atoms: C_18  and  C_19
REMARK                            x       y       z     vdW  Elec       q    Type
REMARK                         _______ _______ _______ _____ _____    ______ ____
ROOT
ATOM      1  C   UNL     1       2.151   7.919  18.641  0.00  0.00    +0.000 A 
ATOM      2  C   UNL     1       1.423   8.915  19.330  0.00  0.00    +0.000 A 
ATOM      3  C   UNL     1       0.968   8.702  20.630  0.00  0.00    +0.000 A 
ATOM      4  C   UNL     1       1.201   7.481  21.235  0.00  0.00    +0.000 A 
ATOM      5  N   UNL     1       1.859   6.447  20.585  0.00  0.00    +0.000 N 
ATOM      6  O   UNL     1       1.962   5.342  21.223  0.00  0.00    +0.000 OA
ATOM      7  C   UNL     1       2.369   6.647  19.279  0.00  0.00    +0.000 A 
ENDROOT
BRANCH   7   8
ATOM      8  C   UNL     1       3.038   5.482  18.624  0.00  0.00    +0.000 A 
ATOM      9  C   UNL     1       2.339   4.580  17.790  0.00  0.00    +0.000 A 
ATOM     10  C   UNL     1       2.990   3.566  17.056  0.00  0.00    +0.000 A 
ATOM     11  C   UNL     1       4.365   3.389  17.165  0.00  0.00    +0.000 A 
ATOM     12  C   UNL     1       5.042   4.229  18.017  0.00  0.00    +0.000 A 
ATOM     13  C   UNL     1       4.408   5.241  18.714  0.00  0.00    +0.000 A 
ATOM     14  O   UNL     1       5.300   5.938  19.484  0.00  0.00    +0.000 OA
ATOM     15  C   UNL     1       6.540   5.269  19.172  0.00  0.00    +0.000 C 
ATOM     16  O   UNL     1       6.380   4.175  18.257  0.00  0.00    +0.000 OA
ENDBRANCH   7   8
BRANCH   1  17
ATOM     17  N   UNL     1       2.876   8.254  17.464  0.00  0.00    +0.000 N 
ATOM     18  H   UNL     1       2.928   7.550  16.740  0.00  0.00    +0.000 HD
ATOM     19  H   UNL     1       3.805   8.620  17.669  0.00  0.00    +0.000 HD
ENDBRANCH   1  17
BRANCH   2  20
ATOM     20  C   UNL     1       1.061  10.234  18.749  0.00  0.00    +0.000 C 
ATOM     21  O   UNL     1       1.959  10.937  18.290  0.00  0.00    +0.000 OA
BRANCH  20  22
ATOM     22  C   UNL     1      -0.325  10.771  18.760  0.00  0.00    +0.000 A 
ATOM     23  C   UNL     1      -0.635  11.770  19.698  0.00  0.00    +0.000 A 
ATOM     24  C   UNL     1      -1.927  12.297  19.762  0.00  0.00    +0.000 A 
ATOM     25  C   UNL     1      -2.906  11.827  18.888  0.00  0.00    +0.000 A 
ATOM     26  F   UNL     1      -4.144  12.332  18.953  0.00  0.00    +0.000 F 
ATOM     27  C   UNL     1      -2.618  10.836  17.959  0.00  0.00    +0.000 A 
ATOM     28  C   UNL     1      -1.332  10.305  17.907  0.00  0.00    +0.000 A 
ATOM     29  F   UNL     1      -1.097   9.321  17.029  0.00  0.00    +0.000 F 
ENDBRANCH  20  22
ENDBRANCH   2  20
TORSDOF 4
ENDMDL
MODEL 3
REMARK VINA RESULT:      -7.9      3.405      7.859
REMARK  Name = 
REMARK  4 active torsions:
REMARK  status: ('A' for Active; 'I' for Inactive)
REMARK    1  A    between atoms: N_1  and  C_2
REMARK    2  A    between atoms: C_3  and  C_4
REMARK    3  A    between atoms: C_4  and  C_6
REMARK    4  A    between atoms: C_18  and  C_19
REMARK                            x       y       z     vdW  Elec       q    Type
REMARK                         _______ _______ _______ _____ _____    ______ ____
ROOT
ATOM      1  C   UNL     1       1.829   8.571  18.755  0.00  0.00    +0.000 A 
ATOM      2  C   UNL     1       2.357   7.334  19.192  0.00  0.00    +0.000 A 
ATOM      3  C   UNL     1       2.027   6.815  20.443  0.00  0.00    +0.000 A 
ATOM      4  C   UNL     1       1.204   7.544  21.281  0.00  0.00    +0.000 A 
ATOM      5  N   UNL     1       0.705   8.790  20.928  0.00  0.00    +0.000 N 
ATOM      6  O   UNL     1       0.005   9.397  21.810  0.00  0.00    +0.000 OA
ATOM      7  C   UNL     1       0.988   9.325  19.648  0.00  0.00    +0.000 A 
ENDROOT
BRANCH   7   8
ATOM      8  C   UNL     1       0.447  10.684  19.344  0.00  0.00    +0.000 A 
ATOM      9  C   UNL     1       1.206  11.860  19.539  0.00  0.00    +0.000 A 
ATOM     10  C   UNL     1       0.756  13.131  19.121  0.00  0.00    +0.000 A 
ATOM     11  C   UNL     1      -0.494  13.278  18.530  0.00  0.00    +0.000 A 
ATOM     12  C   UNL     1      -1.259  12.144  18.388  0.00  0.00    +0.000 A 
ATOM     13  C   UNL     1      -0.807  10.895  18.772  0.00  0.00    +0.000 A 
ATOM     14  O   UNL     1      -1.748   9.935  18.518  0.00  0.00    +0.000 OA
ATOM     15  C   UNL     1      -2.807  10.714  17.925  0.00  0.00    +0.000 C 
ATOM     16  O   UNL     1      -2.510  12.116  17.855  0.00  0.00    +0.000 OA
ENDBRANCH   7   8
BRANCH   1  17
ATOM     17  N   UNL     1       1.907   8.931  17.382  0.00  0.00    +0.000 N 
ATOM     18  H   UNL     1       2.290   9.843  17.167  0.00  0.00    +0.000 HD
ATOM     19  H   UNL     1       1.025   8.793  16.891  0.00  0.00    +0.000 HD
ENDBRANCH   1  17
BRANCH   2  20
ATOM     20  C   UNL     1       3.301   6.505  18.400  0.00  0.00    +0.000 C 
ATOM     21  O   UNL     1       4.079   7.074  17.636  0.00  0.00    +0.000 OA
BRANCH  20  22
ATOM     22  C   UNL     1       3.299   5.019  18.434  0.00  0.00    +0.000 A 
ATOM     23  C   UNL     1       4.404   4.374  19.015  0.00  0.00    +0.000 A 
ATOM     24  C   UNL     1       4.459   2.978  19.058  0.00  0.00    +0.000 A 
ATOM     25  C   UNL     1       3.412   2.232  18.522  0.00  0.00    +0.000 A 
ATOM     26  F   UNL     1       3.468   0.895  18.562  0.00  0.00    +0.000 F 
ATOM     27  C   UNL     1       2.316   2.853  17.939  0.00  0.00    +0.000 A 
ATOM     28  C   UNL     1       2.270   4.244  17.888  0.00  0.00    +0.000 A 
ATOM     29  F   UNL     1       1.219   4.813  17.282  0.00  0.00    +0.000 F 
ENDBRANCH  20  22
ENDBRANCH   2  20
TORSDOF 4
ENDMDL
MODEL 4
REMARK VINA RESULT:      -7.9      3.473      7.864
REMARK  Name = 
REMARK  4 active torsions:
REMARK  status: ('A' for Active; 'I' for Inactive)
REMARK    1  A    between atoms: N_1  and  C_2
REMARK    2  A    between atoms: C_3  and  C_4
REMARK    3  A    between atoms: C_4  and  C_6
REMARK    4  A    between atoms: C_18  and  C_19
REMARK                            x       y       z     vdW  Elec       q    Type
REMARK                         _______ _______ _______ _____ _____    ______ ____
ROOT
ATOM      1  C   UNL     1       1.805   8.684  18.675  0.00  0.00    +0.000 A 
ATOM      2  C   UNL     1       2.373   7.451  19.068  0.00  0.00    +0.000 A 
ATOM      3  C   UNL     1       2.089   6.895  20.314  0.00  0.00    +0.000 A 
ATOM      4  C   UNL     1       1.271   7.584  21.191  0.00  0.00    +0.000 A 
ATOM      5  N   UNL     1       0.734   8.824  20.881  0.00  0.00    +0.000 N 
ATOM      6  O   UNL     1       0.043   9.394  21.794  0.00  0.00    +0.000 OA
ATOM      7  C   UNL     1       0.971   9.396  19.607  0.00  0.00    +0.000 A 
ENDROOT
BRANCH   7   8
ATOM      8  C   UNL     1       0.389  10.749  19.350  0.00  0.00    +0.000 A 
ATOM      9  C   UNL     1       1.112  11.939  19.589  0.00  0.00    +0.000 A 
ATOM     10  C   UNL     1       0.625  13.210  19.215  0.00  0.00    +0.000 A 
ATOM     11  C   UNL     1      -0.628  13.341  18.627  0.00  0.00    +0.000 A 
ATOM     12  C   UNL     1      -1.358  12.190  18.442  0.00  0.00    +0.000 A 
ATOM     13  C   UNL     1      -0.870  10.943  18.782  0.00  0.00    +0.000 A 
ATOM     14  O   UNL     1      -1.781   9.964  18.493  0.00  0.00    +0.000 OA
ATOM     15  C   UNL     1      -2.862  10.732  17.924  0.00  0.00    +0.000 C 
ATOM     16  O   UNL     1      -2.607  12.144  17.905  0.00  0.00    +0.000 OA
ENDBRANCH   7   8
BRANCH   1  17
ATOM     17  N   UNL     1       1.838   9.079  17.309  0.00  0.00    +0.000 N 
ATOM     18  H   UNL     1       2.626   8.763  16.759  0.00  0.00    +0.000 HD
ATOM     19  H   UNL     1       1.702  10.081  17.189  0.00  0.00    +0.000 HD
ENDBRANCH   1  17
BRANCH   2  20
ATOM     20  C   UNL     1       3.315   6.664  18.231  0.00  0.00    +0.000 C 
ATOM     21  O   UNL     1       4.014   7.264  17.416  0.00  0.00    +0.000 OA
BRANCH  20  22
ATOM     22  C   UNL     1       3.401   5.181  18.285  0.00  0.00    +0.000 A 
ATOM     23  C   UNL     1       2.391   4.441  17.647  0.00  0.00    +0.000 A 
ATOM     24  C   UNL     1       2.416   3.044  17.682  0.00  0.00    +0.000 A 
ATOM     25  C   UNL     1       3.449   2.391  18.350  0.00  0.00    +0.000 A 
ATOM     26  F   UNL     1       3.470   1.053  18.384  0.00  0.00    +0.000 F 
ATOM     27  C   UNL     1       4.452   3.107  18.990  0.00  0.00    +0.000 A 
ATOM     28  C   UNL     1       4.417   4.499  18.963  0.00  0.00    +0.000 A 
ATOM     29  F   UNL     1       5.376   5.162  19.625  0.00  0.00    +0.000 F 
ENDBRANCH  20  22
ENDBRANCH   2  20
TORSDOF 4
ENDMDL
MODEL 5
REMARK VINA RESULT:      -7.5      3.418      7.705
REMARK  Name = 
REMARK  4 active torsions:
REMARK  status: ('A' for Active; 'I' for Inactive)
REMARK    1  A    between atoms: N_1  and  C_2
REMARK    2  A    between atoms: C_3  and  C_4
REMARK    3  A    between atoms: C_4  and  C_6
REMARK    4  A    between atoms: C_18  and  C_19
REMARK                            x       y       z     vdW  Elec       q    Type
REMARK                         _______ _______ _______ _____ _____    ______ ____
ROOT
ATOM      1  C   UNL     1       1.488   8.913  18.853  0.00  0.00    +0.000 A 
ATOM      2  C   UNL     1       2.110   7.693  19.205  0.00  0.00    +0.000 A 
ATOM      3  C   UNL     1       1.891   7.108  20.451  0.00  0.00    +0.000 A 
ATOM      4  C   UNL     1       1.085   7.756  21.368  0.00  0.00    +0.000 A 
ATOM      5  N   UNL     1       0.496   8.984  21.099  0.00  0.00    +0.000 N 
ATOM      6  O   UNL     1      -0.178   9.516  22.047  0.00  0.00    +0.000 OA
ATOM      7  C   UNL     1       0.667   9.583  19.827  0.00  0.00    +0.000 A 
ENDROOT
BRANCH   7   8
ATOM      8  C   UNL     1       0.033  10.920  19.615  0.00  0.00    +0.000 A 
ATOM      9  C   UNL     1      -1.252  11.064  19.045  0.00  0.00    +0.000 A 
ATOM     10  C   UNL     1      -1.915  12.308  18.974  0.00  0.00    +0.000 A 
ATOM     11  C   UNL     1      -1.296  13.465  19.434  0.00  0.00    +0.000 A 
ATOM     12  C   UNL     1      -0.023  13.337  19.940  0.00  0.00    +0.000 A 
ATOM     13  C   UNL     1       0.615  12.115  20.035  0.00  0.00    +0.000 A 
ATOM     14  O   UNL     1       1.863  12.255  20.579  0.00  0.00    +0.000 OA
ATOM     15  C   UNL     1       1.916  13.675  20.825  0.00  0.00    +0.000 C 
ATOM     16  O   UNL     1       0.731  14.369  20.407  0.00  0.00    +0.000 OA
ENDBRANCH   7   8
BRANCH   1  17
ATOM     17  N   UNL     1       1.458   9.330  17.494  0.00  0.00    +0.000 N 
ATOM     18  H   UNL     1       0.617   9.793  17.174  0.00  0.00    +0.000 HD
ATOM     19  H   UNL     1       1.717   8.583  16.851  0.00  0.00    +0.000 HD
ENDBRANCH   1  17
BRANCH   2  20
ATOM     20  C   UNL     1       3.046   6.951  18.321  0.00  0.00    +0.000 C 
ATOM     21  O   UNL     1       3.692   7.585  17.489  0.00  0.00    +0.000 OA
BRANCH  20  22
ATOM     22  C   UNL     1       3.183   5.471  18.348  0.00  0.00    +0.000 A 
ATOM     23  C   UNL     1       2.136   4.704  17.809  0.00  0.00    +0.000 A 
ATOM     24  C   UNL     1       2.208   3.308  17.825  0.00  0.00    +0.000 A 
ATOM     25  C   UNL     1       3.325   2.683  18.376  0.00  0.00    +0.000 A 
ATOM     26  F   UNL     1       3.390   1.346  18.392  0.00  0.00    +0.000 F 
ATOM     27  C   UNL     1       4.365   3.426  18.917  0.00  0.00    +0.000 A 
ATOM     28  C   UNL     1       4.284   4.816  18.910  0.00  0.00    +0.000 A 
ATOM     29  F   UNL     1       5.285   5.504  19.477  0.00  0.00    +0.000 F 
ENDBRANCH  20  22
ENDBRANCH   2  20
TORSDOF 4
ENDMDL
MODEL 6
REMARK VINA RESULT:      -7.5      3.352      7.712
REMARK  Name = 
REMARK  4 active torsions:
REMARK  status: ('A' for Active; 'I' for Inactive)
REMARK    1  A    between atoms: N_1  and  C_2
REMARK    2  A    between atoms: C_3  and  C_4
REMARK    3  A    between atoms: C_4  and  C_6
REMARK    4  A    between atoms: C_18  and  C_19
REMARK                            x       y       z     vdW  Elec       q    Type
REMARK                         _______ _______ _______ _____ _____    ______ ____
ROOT
ATOM      1  C   UNL     1       1.494   8.952  18.878  0.00  0.00    +0.000 A 
ATOM      2  C   UNL     1       2.116   7.719  19.182  0.00  0.00    +0.000 A 
ATOM      3  C   UNL     1       1.908   7.095  20.411  0.00  0.00    +0.000 A 
ATOM      4  C   UNL     1       1.113   7.715  21.357  0.00  0.00    +0.000 A 
ATOM      5  N   UNL     1       0.526   8.952  21.135  0.00  0.00    +0.000 N 
ATOM      6  O   UNL     1      -0.137   9.455  22.107  0.00  0.00    +0.000 OA
ATOM      7  C   UNL     1       0.685   9.592  19.881  0.00  0.00    +0.000 A 
ENDROOT
BRANCH   7   8
ATOM      8  C   UNL     1       0.053  10.937  19.720  0.00  0.00    +0.000 A 
ATOM      9  C   UNL     1      -1.270  11.098  19.251  0.00  0.00    +0.000 A 
ATOM     10  C   UNL     1      -1.921  12.350  19.233  0.00  0.00    +0.000 A 
ATOM     11  C   UNL     1      -1.253  13.498  19.643  0.00  0.00    +0.000 A 
ATOM     12  C   UNL     1       0.053  13.354  20.049  0.00  0.00    +0.000 A 
ATOM     13  C   UNL     1       0.681  12.124  20.093  0.00  0.00    +0.000 A 
ATOM     14  O   UNL     1       1.970  12.248  20.538  0.00  0.00    +0.000 OA
ATOM     15  C   UNL     1       2.059  13.667  20.780  0.00  0.00    +0.000 C 
ATOM     16  O   UNL     1       0.854  14.376  20.456  0.00  0.00    +0.000 OA
ENDBRANCH   7   8
BRANCH   1  17
ATOM     17  N   UNL     1       1.451   9.413  17.533  0.00  0.00    +0.000 N 
ATOM     18  H   UNL     1       1.787   8.779  16.819  0.00  0.00    +0.000 HD
ATOM     19  H   UNL     1       1.879  10.330  17.421  0.00  0.00    +0.000 HD
ENDBRANCH   1  17
BRANCH   2  20
ATOM     20  C   UNL     1       3.039   7.003  18.265  0.00  0.00    +0.000 C 
ATOM     21  O   UNL     1       3.670   7.662  17.439  0.00  0.00    +0.000 OA
BRANCH  20  22
ATOM     22  C   UNL     1       3.182   5.524  18.252  0.00  0.00    +0.000 A 
ATOM     23  C   UNL     1       4.401   4.977  18.689  0.00  0.00    +0.000 A 
ATOM     24  C   UNL     1       4.593   3.593  18.680  0.00  0.00    +0.000 A 
ATOM     25  C   UNL     1       3.568   2.759  18.238  0.00  0.00    +0.000 A 
ATOM     26  F   UNL     1       3.754   1.434  18.229  0.00  0.00    +0.000 F 
ATOM     27  C   UNL     1       2.360   3.283  17.798  0.00  0.00    +0.000 A 
ATOM     28  C   UNL     1       2.177   4.664  17.797  0.00  0.00    +0.000 A 
ATOM     29  F   UNL     1       1.016   5.141  17.327  0.00  0.00    +0.000 F 
ENDBRANCH  20  22
ENDBRANCH   2  20
TORSDOF 4
ENDMDL
MODEL 7
REMARK VINA RESULT:      -7.4      5.302      8.088
REMARK  Name = 
REMARK  4 active torsions:
REMARK  status: ('A' for Active; 'I' for Inactive)
REMARK    1  A    between atoms: N_1  and  C_2
REMARK    2  A    between atoms: C_3  and  C_4
REMARK    3  A    between atoms: C_4  and  C_6
REMARK    4  A    between atoms: C_18  and  C_19
REMARK                            x       y       z     vdW  Elec       q    Type
REMARK                         _______ _______ _______ _____ _____    ______ ____
ROOT
ATOM      1  C   UNL     1       5.032   4.715  18.105  0.00  0.00    +0.000 A 
ATOM      2  C   UNL     1       5.685   5.551  17.170  0.00  0.00    +0.000 A 
ATOM      3  C   UNL     1       5.159   6.797  16.832  0.00  0.00    +0.000 A 
ATOM      4  C   UNL     1       3.961   7.199  17.392  0.00  0.00    +0.000 A 
ATOM      5  N   UNL     1       3.248   6.395  18.270  0.00  0.00    +0.000 N 
ATOM      6  O   UNL     1       2.122   6.847  18.675  0.00  0.00    +0.000 OA
ATOM      7  C   UNL     1       3.776   5.141  18.664  0.00  0.00    +0.000 A 
ENDROOT
BRANCH   7   8
ATOM      8  C   UNL     1       2.942   4.312  19.586  0.00  0.00    +0.000 A 
ATOM      9  C   UNL     1       3.071   4.385  20.992  0.00  0.00    +0.000 A 
ATOM     10  C   UNL     1       2.192   3.715  21.869  0.00  0.00    +0.000 A 
ATOM     11  C   UNL     1       1.174   2.909  21.370  0.00  0.00    +0.000 A 
ATOM     12  C   UNL     1       1.079   2.793  20.003  0.00  0.00    +0.000 A 
ATOM     13  C   UNL     1       1.923   3.471  19.143  0.00  0.00    +0.000 A 
ATOM     14  O   UNL     1       1.618   3.194  17.838  0.00  0.00    +0.000 OA
ATOM     15  C   UNL     1       0.495   2.299  17.985  0.00  0.00    +0.000 C 
ATOM     16  O   UNL     1       0.160   2.028  19.354  0.00  0.00    +0.000 OA
ENDBRANCH   7   8
BRANCH   1  17
ATOM     17  N   UNL     1       5.725   3.613  18.677  0.00  0.00    +0.000 N 
ATOM     18  H   UNL     1       5.284   2.705  18.602  0.00  0.00    +0.000 HD
ATOM     19  H   UNL     1       6.012   3.788  19.638  0.00  0.00    +0.000 HD
ENDBRANCH   1  17
BRANCH   2  20
ATOM     20  C   UNL     1       6.938   5.188  16.461  0.00  0.00    +0.000 C 
ATOM     21  O   UNL     1       7.994   5.208  17.092  0.00  0.00    +0.000 OA
BRANCH  20  22
ATOM     22  C   UNL     1       6.986   4.870  15.010  0.00  0.00    +0.000 A 
ATOM     23  C   UNL     1       7.899   5.580  14.211  0.00  0.00    +0.000 A 
ATOM     24  C   UNL     1       7.971   5.331  12.838  0.00  0.00    +0.000 A 
ATOM     25  C   UNL     1       7.134   4.374  12.267  0.00  0.00    +0.000 A 
ATOM     26  F   UNL     1       7.204   4.139  10.951  0.00  0.00    +0.000 F 
ATOM     27  C   UNL     1       6.223   3.668  13.041  0.00  0.00    +0.000 A 
ATOM     28  C   UNL     1       6.146   3.927  14.406  0.00  0.00    +0.000 A 
ATOM     29  F   UNL     1       5.227   3.260  15.119  0.00  0.00    +0.000 F 
ENDBRANCH  20  22
ENDBRANCH   2  20
TORSDOF 4
ENDMDL
MODEL 8
REMARK VINA RESULT:      -7.4      2.024      2.978
REMARK  Name = 
REMARK  4 active torsions:
REMARK  status: ('A' for Active; 'I' for Inactive)
REMARK    1  A    between atoms: N_1  and  C_2
REMARK    2  A    between atoms: C_3  and  C_4
REMARK    3  A    between atoms: C_4  and  C_6
REMARK    4  A    between atoms: C_18  and  C_19
REMARK                            x       y       z     vdW  Elec       q    Type
REMARK                         _______ _______ _______ _____ _____    ______ ____
ROOT
ATOM      1  C   UNL     1       3.189   6.852  18.453  0.00  0.00    +0.000 A 
ATOM      2  C   UNL     1       2.183   7.290  19.345  0.00  0.00    +0.000 A 
ATOM      3  C   UNL     1       1.721   6.464  20.369  0.00  0.00    +0.000 A 
ATOM      4  C   UNL     1       2.228   5.183  20.482  0.00  0.00    +0.000 A 
ATOM      5  N   UNL     1       3.173   4.680  19.600  0.00  0.00    +0.000 N 
ATOM      6  O   UNL     1       3.522   3.461  19.767  0.00  0.00    +0.000 OA
ATOM      7  C   UNL     1       3.692   5.509  18.576  0.00  0.00    +0.000 A 
ENDROOT
BRANCH   7   8
ATOM      8  C   UNL     1       4.682   4.894  17.640  0.00  0.00    +0.000 A 
ATOM      9  C   UNL     1       4.313   4.398  16.369  0.00  0.00    +0.000 A 
ATOM     10  C   UNL     1       5.262   3.949  15.426  0.00  0.00    +0.000 A 
ATOM     11  C   UNL     1       6.617   3.941  15.737  0.00  0.00    +0.000 A 
ATOM     12  C   UNL     1       6.976   4.372  16.992  0.00  0.00    +0.000 A 
ATOM     13  C   UNL     1       6.049   4.838  17.906  0.00  0.00    +0.000 A 
ATOM     14  O   UNL     1       6.659   5.214  19.073  0.00  0.00    +0.000 OA
ATOM     15  C   UNL     1       8.046   4.954  18.774  0.00  0.00    +0.000 C 
ATOM     16  O   UNL     1       8.252   4.404  17.464  0.00  0.00    +0.000 OA
ENDBRANCH   7   8
BRANCH   1  17
ATOM     17  N   UNL     1       3.871   7.793  17.634  0.00  0.00    +0.000 N 
ATOM     18  H   UNL     1       3.506   7.940  16.702  0.00  0.00    +0.000 HD
ATOM     19  H   UNL     1       4.875   7.623  17.598  0.00  0.00    +0.000 HD
ENDBRANCH   1  17
BRANCH   2  20
ATOM     20  C   UNL     1       1.525   8.620  19.269  0.00  0.00    +0.000 C 
ATOM     21  O   UNL     1       1.649   9.276  18.236  0.00  0.00    +0.000 OA
BRANCH  20  22
ATOM     22  C   UNL     1       0.785   9.224  20.408  0.00  0.00    +0.000 A 
ATOM     23  C   UNL     1       1.228   8.931  21.709  0.00  0.00    +0.000 A 
ATOM     24  C   UNL     1       0.557   9.460  22.815  0.00  0.00    +0.000 A 
ATOM     25  C   UNL     1      -0.551  10.280  22.619  0.00  0.00    +0.000 A 
ATOM     26  F   UNL     1      -1.194  10.784  23.680  0.00  0.00    +0.000 F 
ATOM     27  C   UNL     1      -1.006  10.575  21.341  0.00  0.00    +0.000 A 
ATOM     28  C   UNL     1      -0.342  10.037  20.242  0.00  0.00    +0.000 A 
ATOM     29  F   UNL     1      -0.830  10.305  19.023  0.00  0.00    +0.000 F 
ENDBRANCH  20  22
ENDBRANCH   2  20
TORSDOF 4
ENDMDL
MODEL 9
REMARK VINA RESULT:      -7.4      1.369      1.978
REMARK  Name = 
REMARK  4 active torsions:
REMARK  status: ('A' for Active; 'I' for Inactive)
REMARK    1  A    between atoms: N_1  and  C_2
REMARK    2  A    between atoms: C_3  and  C_4
REMARK    3  A    between atoms: C_4  and  C_6
REMARK    4  A    between atoms: C_18  and  C_19
REMARK                            x       y       z     vdW  Elec       q    Type
REMARK                         _______ _______ _______ _____ _____    ______ ____
ROOT
ATOM      1  C   UNL     1       1.849   8.457  18.539  0.00  0.00    +0.000 A 
ATOM      2  C   UNL     1       1.049   9.322  19.319  0.00  0.00    +0.000 A 
ATOM      3  C   UNL     1       0.747   9.020  20.646  0.00  0.00    +0.000 A 
ATOM      4  C   UNL     1       1.207   7.835  21.190  0.00  0.00    +0.000 A 
ATOM      5  N   UNL     1       1.947   6.921  20.453  0.00  0.00    +0.000 N 
ATOM      6  O   UNL     1       2.263   5.831  21.044  0.00  0.00    +0.000 OA
ATOM      7  C   UNL     1       2.304   7.219  19.115  0.00  0.00    +0.000 A 
ENDROOT
BRANCH   7   8
ATOM      8  C   UNL     1       3.073   6.177  18.370  0.00  0.00    +0.000 A 
ATOM      9  C   UNL     1       4.387   6.401  17.899  0.00  0.00    +0.000 A 
ATOM     10  C   UNL     1       5.171   5.378  17.323  0.00  0.00    +0.000 A 
ATOM     11  C   UNL     1       4.651   4.100  17.157  0.00  0.00    +0.000 A 
ATOM     12  C   UNL     1       3.354   3.891  17.564  0.00  0.00    +0.000 A 
ATOM     13  C   UNL     1       2.596   4.885  18.154  0.00  0.00    +0.000 A 
ATOM     14  O   UNL     1       1.348   4.424  18.475  0.00  0.00    +0.000 OA
ATOM     15  C   UNL     1       1.426   3.049  18.044  0.00  0.00    +0.000 C 
ATOM     16  O   UNL     1       2.688   2.710  17.451  0.00  0.00    +0.000 OA
ENDBRANCH   7   8
BRANCH   1  17
ATOM     17  N   UNL     1       2.411   8.917  17.316  0.00  0.00    +0.000 N 
ATOM     18  H   UNL     1       3.298   9.400  17.372  0.00  0.00    +0.000 HD
ATOM     19  H   UNL     1       1.748   9.457  16.761  0.00  0.00    +0.000 HD
ENDBRANCH   1  17
BRANCH   2  20
ATOM     20  C   UNL     1       0.450  10.584  18.813  0.00  0.00    +0.000 C 
ATOM     21  O   UNL     1       1.163  11.584  18.748  0.00  0.00    +0.000 OA
BRANCH  20  22
ATOM     22  C   UNL     1      -0.986  10.711  18.451  0.00  0.00    +0.000 A 
ATOM     23  C   UNL     1      -1.468   9.925  17.390  0.00  0.00    +0.000 A 
ATOM     24  C   UNL     1      -2.806  10.019  16.999  0.00  0.00    +0.000 A 
ATOM     25  C   UNL     1      -3.659  10.895  17.667  0.00  0.00    +0.000 A 
ATOM     26  F   UNL     1      -4.940  10.985  17.289  0.00  0.00    +0.000 F 
ATOM     27  C   UNL     1      -3.197  11.683  18.713  0.00  0.00    +0.000 A 
ATOM     28  C   UNL     1      -1.860  11.595  19.093  0.00  0.00    +0.000 A 
ATOM     29  F   UNL     1      -1.435  12.398  20.077  0.00  0.00    +0.000 F 
ENDBRANCH  20  22
ENDBRANCH   2  20
TORSDOF 4
ENDMDL
