MODEL 1
REMARK VINA RESULT:      -9.0      0.000      0.000
REMARK  Name = 
REMARK  8 active torsions:
REMARK  status: ('A' for Active; 'I' for Inactive)
REMARK    1  A    between atoms: C_1  and  C_2
REMARK    2  A    between atoms: C_5  and  N_6
REMARK    3  A    between atoms: N_6  and  S_7
REMARK    4  A    between atoms: S_7  and  C_10
REMARK    5  A    between atoms: C_10  and  C_11
REMARK    6  A    between atoms: N_13  and  C_14
REMARK    7  A    between atoms: C_17  and  O_18
REMARK    8  A    between atoms: O_18  and  C_19
REMARK                            x       y       z     vdW  Elec       q    Type
REMARK                         _______ _______ _______ _____ _____    ______ ____
ROOT
ATOM      1  C   UNL     1       2.355   7.498  19.343  0.00  0.00    +0.000 A 
ATOM      2  C   UNL     1       2.344   8.124  18.094  0.00  0.00    +0.000 A 
ATOM      3  C   UNL     1       1.582   9.281  17.905  0.00  0.00    +0.000 A 
ATOM      4  C   UNL     1       0.853   9.826  18.966  0.00  0.00    +0.000 A 
ATOM      5  C   UNL     1       0.930   9.215  20.223  0.00  0.00    +0.000 A 
ATOM      6  F   UNL     1       0.325   9.749  21.296  0.00  0.00    +0.000 F 
ATOM      7  C   UNL     1       1.632   8.027  20.407  0.00  0.00    +0.000 A 
ENDROOT
BRANCH   1  10
ATOM      8  C   UNL     1       2.459   5.167  19.918  0.00  0.00    +0.000 C 
ATOM      9  O   UNL     1       1.254   5.099  20.151  0.00  0.00    +0.000 OA
ATOM     10  N   UNL     1       3.116   6.330  19.522  0.00  0.00    +0.000 N 
ATOM     11  H   UNL     1       3.837   6.178  18.824  0.00  0.00    +0.000 HD
BRANCH   8  12
ATOM     12  C   UNL     1       3.337   3.956  19.971  0.00  0.00    +0.000 C 
BRANCH  12  13
ATOM     13  S   UNL     1       3.294   3.185  18.371  0.00  0.00    +0.000 S 
ATOM     14  O   UNL     1       2.709   4.106  17.424  0.00  0.00    +0.000 OA
ATOM     15  O   UNL     1       2.806   1.830  18.517  0.00  0.00    +0.000 OA
BRANCH  13  16
ATOM     16  N   UNL     1       4.932   3.128  17.958  0.00  0.00    +0.000 N 
ATOM     17  H   UNL     1       5.182   2.347  17.356  0.00  0.00    +0.000 HD
BRANCH  16  22
ATOM     18  C   UNL     1       7.689   8.115  17.527  0.00  0.00    +0.000 C 
ATOM     19  C   UNL     1       6.987   6.793  17.636  0.00  0.00    +0.000 A 
ATOM     20  C   UNL     1       7.179   5.967  18.751  0.00  0.00    +0.000 A 
ATOM     21  C   UNL     1       6.501   4.751  18.851  0.00  0.00    +0.000 A 
ATOM     22  C   UNL     1       5.651   4.344  17.827  0.00  0.00    +0.000 A 
ATOM     23  C   UNL     1       5.462   5.147  16.705  0.00  0.00    +0.000 A 
ATOM     24  C   UNL     1       6.123   6.374  16.616  0.00  0.00    +0.000 A 
ENDBRANCH  16  22
ENDBRANCH  13  16
ENDBRANCH  12  13
ENDBRANCH   8  12
ENDBRANCH   1  10
BRANCH   4  25
ATOM     25  O   UNL     1       0.150  10.977  18.676  0.00  0.00    +0.000 OA
BRANCH  25  26
ATOM     26  C   UNL     1      -1.191  10.899  18.364  0.00  0.00    +0.000 A 
ATOM     27  C   UNL     1      -1.692   9.955  17.469  0.00  0.00    +0.000 A 
ATOM     28  C   UNL     1      -3.056   9.909  17.266  0.00  0.00    +0.000 A 
ATOM     29  N   UNL     1      -3.931  10.766  17.834  0.00  0.00    +0.000 NA
ATOM     30  C   UNL     1      -3.429  11.725  18.637  0.00  0.00    +0.000 A 
ATOM     31  N   UNL     1      -4.389  12.565  19.205  0.00  0.00    +0.000 N 
ATOM     32  C   UNL     1      -2.064  11.835  18.928  0.00  0.00    +0.000 A 
ATOM     33 CL   UNL     1      -1.472  13.120  19.925  0.00  0.00    +0.000 Cl
ATOM     34  H   UNL     1      -5.287  12.332  18.789  0.00  0.00    +0.000 HD
ATOM     35  H   UNL     1      -4.144  13.544  19.108  0.00  0.00    +0.000 HD
ENDBRANCH  25  26
ENDBRANCH   4  25
TORSDOF 7
ENDMDL
MODEL 2
REMARK VINA RESULT:      -9.0      1.389      1.737
REMARK  Name = 
REMARK  8 active torsions:
REMARK  status: ('A' for Active; 'I' for Inactive)
REMARK    1  A    between atoms: C_1  and  C_2
REMARK    2  A    between atoms: C_5  and  N_6
REMARK    3  A    between atoms: N_6  and  S_7
REMARK    4  A    between atoms: S_7  and  C_10
REMARK    5  A    between atoms: C_10  and  C_11
REMARK    6  A    between atoms: N_13  and  C_14
REMARK    7  A    between atoms: C_17  and  O_18
REMARK    8  A    between atoms: O_18  and  C_19
REMARK                            x       y       z     vdW  Elec       q    Type
REMARK                         _______ _______ _______ _____ _____    ______ ____
ROOT
ATOM      1  C   UNL     1       2.111   6.766  20.239  0.00  0.00    +0.000 A 
ATOM      2  C   UNL     1       2.473   7.128  18.939  0.00  0.00    +0.000 A 
ATOM      3  C   UNL     1       2.027   8.343  18.408  0.00  0.00    +0.000 A 
ATOM      4  C   UNL     1       1.243   9.205  19.181  0.00  0.00    +0.000 A 
ATOM      5  C   UNL     1       0.946   8.847  20.501  0.00  0.00    +0.000 A 
ATOM      6  F   UNL     1       0.277   9.678  21.315  0.00  0.00    +0.000 F 
ATOM      7  C   UNL     1       1.329   7.612  21.018  0.00  0.00    +0.000 A 
ENDROOT
BRANCH   1  10
ATOM      8  C   UNL     1       2.154   4.366  20.125  0.00  0.00    +0.000 C 
ATOM      9  O   UNL     1       1.411   4.329  19.148  0.00  0.00    +0.000 OA
ATOM     10  N   UNL     1       2.555   5.539  20.762  0.00  0.00    +0.000 N 
ATOM     11  H   UNL     1       3.521   5.531  21.071  0.00  0.00    +0.000 HD
BRANCH   8  12
ATOM     12  C   UNL     1       2.771   3.124  20.689  0.00  0.00    +0.000 C 
BRANCH  12  13
ATOM     13  S   UNL     1       4.150   2.686  19.659  0.00  0.00    +0.000 S 
ATOM     14  O   UNL     1       3.655   2.036  18.467  0.00  0.00    +0.000 OA
ATOM     15  O   UNL     1       5.178   2.085  20.483  0.00  0.00    +0.000 OA
BRANCH  13  16
ATOM     16  N   UNL     1       4.695   4.195  19.130  0.00  0.00    +0.000 N 
ATOM     17  H   UNL     1       5.029   4.801  19.877  0.00  0.00    +0.000 HD
BRANCH  16  22
ATOM     18  C   UNL     1       7.109   4.809  13.988  0.00  0.00    +0.000 C 
ATOM     19  C   UNL     1       6.485   4.623  15.339  0.00  0.00    +0.000 A 
ATOM     20  C   UNL     1       7.272   4.601  16.498  0.00  0.00    +0.000 A 
ATOM     21  C   UNL     1       6.675   4.453  17.751  0.00  0.00    +0.000 A 
ATOM     22  C   UNL     1       5.296   4.300  17.850  0.00  0.00    +0.000 A 
ATOM     23  C   UNL     1       4.501   4.305  16.706  0.00  0.00    +0.000 A 
ATOM     24  C   UNL     1       5.096   4.476  15.453  0.00  0.00    +0.000 A 
ENDBRANCH  16  22
ENDBRANCH  13  16
ENDBRANCH  12  13
ENDBRANCH   8  12
ENDBRANCH   1  10
BRANCH   4  25
ATOM     25  O   UNL     1       0.873  10.383  18.567  0.00  0.00    +0.000 OA
BRANCH  25  26
ATOM     26  C   UNL     1      -0.465  10.679  18.405  0.00  0.00    +0.000 A 
ATOM     27  C   UNL     1      -1.278   9.977  17.516  0.00  0.00    +0.000 A 
ATOM     28  C   UNL     1      -2.619  10.300  17.467  0.00  0.00    +0.000 A 
ATOM     29  N   UNL     1      -3.180  11.298  18.182  0.00  0.00    +0.000 NA
ATOM     30  C   UNL     1      -2.370  12.022  18.980  0.00  0.00    +0.000 A 
ATOM     31  N   UNL     1      -3.017  13.026  19.704  0.00  0.00    +0.000 N 
ATOM     32  C   UNL     1      -1.003  11.753  19.121  0.00  0.00    +0.000 A 
ATOM     33 CL   UNL     1      -0.002  12.750  20.121  0.00  0.00    +0.000 Cl
ATOM     34  H   UNL     1      -3.979  13.068  19.379  0.00  0.00    +0.000 HD
ATOM     35  H   UNL     1      -2.532  13.914  19.640  0.00  0.00    +0.000 HD
ENDBRANCH  25  26
ENDBRANCH   4  25
TORSDOF 7
ENDMDL
MODEL 3
REMARK VINA RESULT:      -8.9      1.526      2.035
REMARK  Name = 
REMARK  8 active torsions:
REMARK  status: ('A' for Active; 'I' for Inactive)
REMARK    1  A    between atoms: C_1  and  C_2
REMARK    2  A    between atoms: C_5  and  N_6
REMARK    3  A    between atoms: N_6  and  S_7
REMARK    4  A    between atoms: S_7  and  C_10
REMARK    5  A    between atoms: C_10  and  C_11
REMARK    6  A    between atoms: N_13  and  C_14
REMARK    7  A    between atoms: C_17  and  O_18
REMARK    8  A    between atoms: O_18  and  C_19
REMARK                            x       y       z     vdW  Elec       q    Type
REMARK                         _______ _______ _______ _____ _____    ______ ____
ROOT
ATOM      1  C   UNL     1       2.076   7.200  20.166  0.00  0.00    +0.000 A 
ATOM      2  C   UNL     1       1.199   7.925  20.976  0.00  0.00    +0.000 A 
ATOM      3  C   UNL     1       0.655   9.125  20.509  0.00  0.00    +0.000 A 
ATOM      4  C   UNL     1       0.965   9.587  19.225  0.00  0.00    +0.000 A 
ATOM      5  C   UNL     1       1.798   8.811  18.411  0.00  0.00    +0.000 A 
ATOM      6  F   UNL     1       2.052   9.161  17.140  0.00  0.00    +0.000 F 
ATOM      7  C   UNL     1       2.397   7.649  18.889  0.00  0.00    +0.000 A 
ENDROOT
BRANCH   1  10
ATOM      8  C   UNL     1       1.904   4.821  20.466  0.00  0.00    +0.000 C 
ATOM      9  O   UNL     1       0.798   4.763  19.935  0.00  0.00    +0.000 OA
ATOM     10  N   UNL     1       2.626   5.999  20.648  0.00  0.00    +0.000 N 
ATOM     11  H   UNL     1       3.625   5.897  20.500  0.00  0.00    +0.000 HD
BRANCH   8  12
ATOM     12  C   UNL     1       2.626   3.588  20.912  0.00  0.00    +0.000 C 
BRANCH  12  13
ATOM     13  S   UNL     1       3.499   2.934  19.510  0.00  0.00    +0.000 S 
ATOM     14  O   UNL     1       2.791   1.776  19.017  0.00  0.00    +0.000 OA
ATOM     15  O   UNL     1       4.913   2.887  19.820  0.00  0.00    +0.000 OA
BRANCH  13  16
ATOM     16  N   UNL     1       3.242   4.126  18.341  0.00  0.00    +0.000 N 
ATOM     17  H   UNL     1       2.670   4.905  18.660  0.00  0.00    +0.000 HD
BRANCH  16  22
ATOM     18  C   UNL     1       7.185   5.203  14.347  0.00  0.00    +0.000 C 
ATOM     19  C   UNL     1       6.168   4.919  15.414  0.00  0.00    +0.000 A 
ATOM     20  C   UNL     1       5.812   5.902  16.346  0.00  0.00    +0.000 A 
ATOM     21  C   UNL     1       4.846   5.633  17.317  0.00  0.00    +0.000 A 
ATOM     22  C   UNL     1       4.254   4.376  17.379  0.00  0.00    +0.000 A 
ATOM     23  C   UNL     1       4.610   3.383  16.469  0.00  0.00    +0.000 A 
ATOM     24  C   UNL     1       5.559   3.660  15.482  0.00  0.00    +0.000 A 
ENDBRANCH  16  22
ENDBRANCH  13  16
ENDBRANCH  12  13
ENDBRANCH   8  12
ENDBRANCH   1  10
BRANCH   4  25
ATOM     25  O   UNL     1       0.361  10.771  18.858  0.00  0.00    +0.000 OA
BRANCH  25  26
ATOM     26  C   UNL     1      -0.955  10.768  18.445  0.00  0.00    +0.000 A 
ATOM     27  C   UNL     1      -1.418   9.913  17.446  0.00  0.00    +0.000 A 
ATOM     28  C   UNL     1      -2.764   9.935  17.142  0.00  0.00    +0.000 A 
ATOM     29  N   UNL     1      -3.651  10.781  17.709  0.00  0.00    +0.000 NA
ATOM     30  C   UNL     1      -3.178  11.659  18.618  0.00  0.00    +0.000 A 
ATOM     31  N   UNL     1      -4.150  12.491  19.178  0.00  0.00    +0.000 N 
ATOM     32  C   UNL     1      -1.836  11.694  19.014  0.00  0.00    +0.000 A 
ATOM     33 CL   UNL     1      -1.277  12.877  20.146  0.00  0.00    +0.000 Cl
ATOM     34  H   UNL     1      -5.021  12.324  18.682  0.00  0.00    +0.000 HD
ATOM     35  H   UNL     1      -3.866  13.464  19.174  0.00  0.00    +0.000 HD
ENDBRANCH  25  26
ENDBRANCH   4  25
TORSDOF 7
ENDMDL
MODEL 4
REMARK VINA RESULT:      -8.9      0.894      1.515
REMARK  Name = 
REMARK  8 active torsions:
REMARK  status: ('A' for Active; 'I' for Inactive)
REMARK    1  A    between atoms: C_1  and  C_2
REMARK    2  A    between atoms: C_5  and  N_6
REMARK    3  A    between atoms: N_6  and  S_7
REMARK    4  A    between atoms: S_7  and  C_10
REMARK    5  A    between atoms: C_10  and  C_11
REMARK    6  A    between atoms: N_13  and  C_14
REMARK    7  A    between atoms: C_17  and  O_18
REMARK    8  A    between atoms: O_18  and  C_19
REMARK                            x       y       z     vdW  Elec       q    Type
REMARK                         _______ _______ _______ _____ _____    ______ ____
ROOT
ATOM      1  C   UNL     1       2.270   7.323  19.805  0.00  0.00    +0.000 A 
ATOM      2  C   UNL     1       1.482   7.799  20.855  0.00  0.00    +0.000 A 
ATOM      3  C   UNL     1       0.810   9.018  20.721  0.00  0.00    +0.000 A 
ATOM      4  C   UNL     1       0.904   9.747  19.531  0.00  0.00    +0.000 A 
ATOM      5  C   UNL     1       1.651   9.218  18.472  0.00  0.00    +0.000 A 
ATOM      6  F   UNL     1       1.699   9.831  17.279  0.00  0.00    +0.000 F 
ATOM      7  C   UNL     1       2.377   8.040  18.618  0.00  0.00    +0.000 A 
ENDROOT
BRANCH   1  10
ATOM      8  C   UNL     1       2.204   4.958  20.225  0.00  0.00    +0.000 C 
ATOM      9  O   UNL     1       0.984   4.947  20.373  0.00  0.00    +0.000 OA
ATOM     10  N   UNL     1       2.951   6.102  19.953  0.00  0.00    +0.000 N 
ATOM     11  H   UNL     1       3.709   5.953  19.295  0.00  0.00    +0.000 HD
BRANCH   8  12
ATOM     12  C   UNL     1       3.008   3.695  20.250  0.00  0.00    +0.000 C 
BRANCH  12  13
ATOM     13  S   UNL     1       3.018   3.024  18.606  0.00  0.00    +0.000 S 
ATOM     14  O   UNL     1       2.480   4.008  17.696  0.00  0.00    +0.000 OA
ATOM     15  O   UNL     1       2.510   1.669  18.650  0.00  0.00    +0.000 OA
BRANCH  13  16
ATOM     16  N   UNL     1       4.670   2.970  18.253  0.00  0.00    +0.000 N 
ATOM     17  H   UNL     1       4.951   2.159  17.705  0.00  0.00    +0.000 HD
BRANCH  16  22
ATOM     18  C   UNL     1       7.660   7.776  17.466  0.00  0.00    +0.000 C 
ATOM     19  C   UNL     1       6.853   6.528  17.674  0.00  0.00    +0.000 A 
ATOM     20  C   UNL     1       6.051   6.012  16.648  0.00  0.00    +0.000 A 
ATOM     21  C   UNL     1       5.325   4.836  16.845  0.00  0.00    +0.000 A 
ATOM     22  C   UNL     1       5.375   4.188  18.075  0.00  0.00    +0.000 A 
ATOM     23  C   UNL     1       6.155   4.698  19.111  0.00  0.00    +0.000 A 
ATOM     24  C   UNL     1       6.900   5.861  18.905  0.00  0.00    +0.000 A 
ENDBRANCH  16  22
ENDBRANCH  13  16
ENDBRANCH  12  13
ENDBRANCH   8  12
ENDBRANCH   1  10
BRANCH   4  25
ATOM     25  O   UNL     1       0.188  10.925  19.498  0.00  0.00    +0.000 OA
BRANCH  25  26
ATOM     26  C   UNL     1      -1.086  10.937  18.968  0.00  0.00    +0.000 A 
ATOM     27  C   UNL     1      -1.473  10.073  17.945  0.00  0.00    +0.000 A 
ATOM     28  C   UNL     1      -2.785  10.112  17.521  0.00  0.00    +0.000 A 
ATOM     29  N   UNL     1      -3.704  10.981  17.993  0.00  0.00    +0.000 NA
ATOM     30  C   UNL     1      -3.300  11.866  18.927  0.00  0.00    +0.000 A 
ATOM     31  N   UNL     1      -4.303  12.723  19.384  0.00  0.00    +0.000 N 
ATOM     32  C   UNL     1      -1.998  11.886  19.441  0.00  0.00    +0.000 A 
ATOM     33 CL   UNL     1      -1.523  13.079  20.602  0.00  0.00    +0.000 Cl
ATOM     34  H   UNL     1      -5.129  12.562  18.814  0.00  0.00    +0.000 HD
ATOM     35  H   UNL     1      -4.002  13.691  19.392  0.00  0.00    +0.000 HD
ENDBRANCH  25  26
ENDBRANCH   4  25
TORSDOF 7
ENDMDL
MODEL 5
REMARK VINA RESULT:      -8.8      1.320      1.644
REMARK  Name = 
REMARK  8 active torsions:
REMARK  status: ('A' for Active; 'I' for Inactive)
REMARK    1  A    between atoms: C_1  and  C_2
REMARK    2  A    between atoms: C_5  and  N_6
REMARK    3  A    between atoms: N_6  and  S_7
REMARK    4  A    between atoms: S_7  and  C_10
REMARK    5  A    between atoms: C_10  and  C_11
REMARK    6  A    between atoms: N_13  and  C_14
REMARK    7  A    between atoms: C_17  and  O_18
REMARK    8  A    between atoms: O_18  and  C_19
REMARK                            x       y       z     vdW  Elec       q    Type
REMARK                         _______ _______ _______ _____ _____    ______ ____
ROOT
ATOM      1  C   UNL     1       1.881   7.246  20.394  0.00  0.00    +0.000 A 
ATOM      2  C   UNL     1       0.982   7.986  21.165  0.00  0.00    +0.000 A 
ATOM      3  C   UNL     1       0.457   9.181  20.662  0.00  0.00    +0.000 A 
ATOM      4  C   UNL     1       0.809   9.621  19.382  0.00  0.00    +0.000 A 
ATOM      5  C   UNL     1       1.664   8.830  18.606  0.00  0.00    +0.000 A 
ATOM      6  F   UNL     1       1.960   9.159  17.339  0.00  0.00    +0.000 F 
ATOM      7  C   UNL     1       2.243   7.674  19.122  0.00  0.00    +0.000 A 
ENDROOT
BRANCH   1  10
ATOM      8  C   UNL     1       1.737   4.860  20.650  0.00  0.00    +0.000 C 
ATOM      9  O   UNL     1       0.686   4.785  20.017  0.00  0.00    +0.000 OA
ATOM     10  N   UNL     1       2.412   6.051  20.912  0.00  0.00    +0.000 N 
ATOM     11  H   UNL     1       3.422   5.973  20.857  0.00  0.00    +0.000 HD
BRANCH   8  12
ATOM     12  C   UNL     1       2.442   3.637  21.147  0.00  0.00    +0.000 C 
BRANCH  12  13
ATOM     13  S   UNL     1       3.028   2.736  19.733  0.00  0.00    +0.000 S 
ATOM     14  O   UNL     1       2.028   1.768  19.348  0.00  0.00    +0.000 OA
ATOM     15  O   UNL     1       4.408   2.357  19.958  0.00  0.00    +0.000 OA
BRANCH  13  16
ATOM     16  N   UNL     1       2.982   3.909  18.518  0.00  0.00    +0.000 N 
ATOM     17  H   UNL     1       2.076   4.360  18.410  0.00  0.00    +0.000 HD
BRANCH  16  22
ATOM     18  C   UNL     1       7.615   7.095  17.499  0.00  0.00    +0.000 C 
ATOM     19  C   UNL     1       6.413   6.237  17.763  0.00  0.00    +0.000 A 
ATOM     20  C   UNL     1       6.285   5.529  18.965  0.00  0.00    +0.000 A 
ATOM     21  C   UNL     1       5.150   4.755  19.209  0.00  0.00    +0.000 A 
ATOM     22  C   UNL     1       4.152   4.662  18.243  0.00  0.00    +0.000 A 
ATOM     23  C   UNL     1       4.272   5.347  17.036  0.00  0.00    +0.000 A 
ATOM     24  C   UNL     1       5.398   6.141  16.802  0.00  0.00    +0.000 A 
ENDBRANCH  16  22
ENDBRANCH  13  16
ENDBRANCH  12  13
ENDBRANCH   8  12
ENDBRANCH   1  10
BRANCH   4  25
ATOM     25  O   UNL     1       0.221  10.801  18.977  0.00  0.00    +0.000 OA
BRANCH  25  26
ATOM     26  C   UNL     1      -1.070  10.791  18.491  0.00  0.00    +0.000 A 
ATOM     27  C   UNL     1      -1.466   9.948  17.454  0.00  0.00    +0.000 A 
ATOM     28  C   UNL     1      -2.793   9.960  17.075  0.00  0.00    +0.000 A 
ATOM     29  N   UNL     1      -3.720  10.786  17.605  0.00  0.00    +0.000 NA
ATOM     30  C   UNL     1      -3.310  11.653  18.553  0.00  0.00    +0.000 A 
ATOM     31  N   UNL     1      -4.321  12.465  19.071  0.00  0.00    +0.000 N 
ATOM     32  C   UNL     1      -1.992  11.697  19.024  0.00  0.00    +0.000 A 
ATOM     33 CL   UNL     1      -1.512  12.867  20.206  0.00  0.00    +0.000 Cl
ATOM     34  H   UNL     1      -5.161  12.297  18.524  0.00  0.00    +0.000 HD
ATOM     35  H   UNL     1      -4.049  13.441  19.099  0.00  0.00    +0.000 HD
ENDBRANCH  25  26
ENDBRANCH   4  25
TORSDOF 7
ENDMDL
MODEL 6
REMARK VINA RESULT:      -8.6      2.016      2.628
REMARK  Name = 
REMARK  8 active torsions:
REMARK  status: ('A' for Active; 'I' for Inactive)
REMARK    1  A    between atoms: C_1  and  C_2
REMARK    2  A    between atoms: C_5  and  N_6
REMARK    3  A    between atoms: N_6  and  S_7
REMARK    4  A    between atoms: S_7  and  C_10
REMARK    5  A    between atoms: C_10  and  C_11
REMARK    6  A    between atoms: N_13  and  C_14
REMARK    7  A    between atoms: C_17  and  O_18
REMARK    8  A    between atoms: O_18  and  C_19
REMARK                            x       y       z     vdW  Elec       q    Type
REMARK                         _______ _______ _______ _____ _____    ______ ____
ROOT
ATOM      1  C   UNL     1       2.429   7.224  19.683  0.00  0.00    +0.000 A 
ATOM      2  C   UNL     1       1.751   7.467  20.879  0.00  0.00    +0.000 A 
ATOM      3  C   UNL     1       0.887   8.562  20.977  0.00  0.00    +0.000 A 
ATOM      4  C   UNL     1       0.679   9.396  19.874  0.00  0.00    +0.000 A 
ATOM      5  C   UNL     1       1.323   9.095  18.668  0.00  0.00    +0.000 A 
ATOM      6  F   UNL     1       1.088   9.808  17.556  0.00  0.00    +0.000 F 
ATOM      7  C   UNL     1       2.236   8.048  18.579  0.00  0.00    +0.000 A 
ENDROOT
BRANCH   1  10
ATOM      8  C   UNL     1       2.786   4.850  19.802  0.00  0.00    +0.000 C 
ATOM      9  O   UNL     1       1.612   4.617  20.083  0.00  0.00    +0.000 OA
ATOM     10  N   UNL     1       3.304   6.127  19.597  0.00  0.00    +0.000 N 
ATOM     11  H   UNL     1       3.983   6.180  18.845  0.00  0.00    +0.000 HD
BRANCH   8  12
ATOM     12  C   UNL     1       3.772   3.746  19.577  0.00  0.00    +0.000 C 
BRANCH  12  13
ATOM     13  S   UNL     1       3.535   3.135  17.926  0.00  0.00    +0.000 S 
ATOM     14  O   UNL     1       2.756   4.094  17.179  0.00  0.00    +0.000 OA
ATOM     15  O   UNL     1       3.161   1.737  17.994  0.00  0.00    +0.000 OA
BRANCH  13  16
ATOM     16  N   UNL     1       5.091   3.246  17.277  0.00  0.00    +0.000 N 
ATOM     17  H   UNL     1       5.253   2.637  16.478  0.00  0.00    +0.000 HD
BRANCH  16  22
ATOM     18  C   UNL     1       7.733   8.299  17.656  0.00  0.00    +0.000 C 
ATOM     19  C   UNL     1       7.059   6.964  17.542  0.00  0.00    +0.000 A 
ATOM     20  C   UNL     1       7.567   5.842  18.209  0.00  0.00    +0.000 A 
ATOM     21  C   UNL     1       6.915   4.612  18.114  0.00  0.00    +0.000 A 
ATOM     22  C   UNL     1       5.771   4.490  17.332  0.00  0.00    +0.000 A 
ATOM     23  C   UNL     1       5.263   5.592  16.649  0.00  0.00    +0.000 A 
ATOM     24  C   UNL     1       5.902   6.830  16.763  0.00  0.00    +0.000 A 
ENDBRANCH  16  22
ENDBRANCH  13  16
ENDBRANCH  12  13
ENDBRANCH   8  12
ENDBRANCH   1  10
BRANCH   4  25
ATOM     25  O   UNL     1      -0.205  10.435  20.073  0.00  0.00    +0.000 OA
BRANCH  25  26
ATOM     26  C   UNL     1       0.252  11.736  20.056  0.00  0.00    +0.000 A 
ATOM     27  C   UNL     1       1.375  12.137  20.778  0.00  0.00    +0.000 A 
ATOM     28  C   UNL     1       1.798  13.445  20.652  0.00  0.00    +0.000 A 
ATOM     29  N   UNL     1       1.152  14.378  19.921  0.00  0.00    +0.000 NA
ATOM     30  C   UNL     1       0.022  14.000  19.289  0.00  0.00    +0.000 A 
ATOM     31  N   UNL     1      -0.585  15.008  18.538  0.00  0.00    +0.000 N 
ATOM     32  C   UNL     1      -0.471  12.690  19.333  0.00  0.00    +0.000 A 
ATOM     33 CL   UNL     1      -1.955  12.276  18.544  0.00  0.00    +0.000 Cl
ATOM     34  H   UNL     1      -0.086  15.873  18.722  0.00  0.00    +0.000 HD
ATOM     35  H   UNL     1      -1.580  15.072  18.720  0.00  0.00    +0.000 HD
ENDBRANCH  25  26
ENDBRANCH   4  25
TORSDOF 7
ENDMDL
MODEL 7
REMARK VINA RESULT:      -8.6      2.271      2.802
REMARK  Name = 
REMARK  8 active torsions:
REMARK  status: ('A' for Active; 'I' for Inactive)
REMARK    1  A    between atoms: C_1  and  C_2
REMARK    2  A    between atoms: C_5  and  N_6
REMARK    3  A    between atoms: N_6  and  S_7
REMARK    4  A    between atoms: S_7  and  C_10
REMARK    5  A    between atoms: C_10  and  C_11
REMARK    6  A    between atoms: N_13  and  C_14
REMARK    7  A    between atoms: C_17  and  O_18
REMARK    8  A    between atoms: O_18  and  C_19
REMARK                            x       y       z     vdW  Elec       q    Type
REMARK                         _______ _______ _______ _____ _____    ______ ____
ROOT
ATOM      1  C   UNL     1       2.323   7.345  19.692  0.00  0.00    +0.000 A 
ATOM      2  C   UNL     1       2.157   8.127  18.547  0.00  0.00    +0.000 A 
ATOM      3  C   UNL     1       1.362   9.276  18.601  0.00  0.00    +0.000 A 
ATOM      4  C   UNL     1       0.757   9.658  19.802  0.00  0.00    +0.000 A 
ATOM      5  C   UNL     1       0.989   8.891  20.950  0.00  0.00    +0.000 A 
ATOM      6  F   UNL     1       0.507   9.264  22.146  0.00  0.00    +0.000 F 
ATOM      7  C   UNL     1       1.723   7.710  20.892  0.00  0.00    +0.000 A 
ENDROOT
BRANCH   1  10
ATOM      8  C   UNL     1       2.521   4.961  19.925  0.00  0.00    +0.000 C 
ATOM      9  O   UNL     1       1.350   4.828  20.273  0.00  0.00    +0.000 OA
ATOM     10  N   UNL     1       3.115   6.185  19.626  0.00  0.00    +0.000 N 
ATOM     11  H   UNL     1       3.758   6.151  18.842  0.00  0.00    +0.000 HD
BRANCH   8  12
ATOM     12  C   UNL     1       3.416   3.780  19.716  0.00  0.00    +0.000 C 
BRANCH  12  13
ATOM     13  S   UNL     1       3.204   3.228  18.042  0.00  0.00    +0.000 S 
ATOM     14  O   UNL     1       2.489   4.242  17.302  0.00  0.00    +0.000 OA
ATOM     15  O   UNL     1       2.770   1.846  18.055  0.00  0.00    +0.000 OA
BRANCH  13  16
ATOM     16  N   UNL     1       4.783   3.292  17.442  0.00  0.00    +0.000 N 
ATOM     17  H   UNL     1       4.952   2.676  16.649  0.00  0.00    +0.000 HD
BRANCH  16  22
ATOM     18  C   UNL     1       7.773   8.159  17.598  0.00  0.00    +0.000 C 
ATOM     19  C   UNL     1       6.969   6.892  17.571  0.00  0.00    +0.000 A 
ATOM     20  C   UNL     1       5.834   6.779  16.757  0.00  0.00    +0.000 A 
ATOM     21  C   UNL     1       5.110   5.586  16.721  0.00  0.00    +0.000 A 
ATOM     22  C   UNL     1       5.498   4.514  17.518  0.00  0.00    +0.000 A 
ATOM     23  C   UNL     1       6.615   4.617  18.345  0.00  0.00    +0.000 A 
ATOM     24  C   UNL     1       7.353   5.803  18.362  0.00  0.00    +0.000 A 
ENDBRANCH  16  22
ENDBRANCH  13  16
ENDBRANCH  12  13
ENDBRANCH   8  12
ENDBRANCH   1  10
BRANCH   4  25
ATOM     25  O   UNL     1       0.010  10.816  19.749  0.00  0.00    +0.000 OA
BRANCH  25  26
ATOM     26  C   UNL     1       0.453  11.947  20.403  0.00  0.00    +0.000 A 
ATOM     27  C   UNL     1       1.694  12.523  20.132  0.00  0.00    +0.000 A 
ATOM     28  C   UNL     1       2.028  13.689  20.789  0.00  0.00    +0.000 A 
ATOM     29  N   UNL     1       1.253  14.274  21.727  0.00  0.00    +0.000 NA
ATOM     30  C   UNL     1       0.090  13.667  22.039  0.00  0.00    +0.000 A 
ATOM     31  N   UNL     1      -0.670  14.333  23.002  0.00  0.00    +0.000 N 
ATOM     32  C   UNL     1      -0.349  12.497  21.408  0.00  0.00    +0.000 A 
ATOM     33 CL   UNL     1      -1.827  11.733  21.887  0.00  0.00    +0.000 Cl
ATOM     34  H   UNL     1      -0.112  15.106  23.355  0.00  0.00    +0.000 HD
ATOM     35  H   UNL     1      -0.994  13.707  23.731  0.00  0.00    +0.000 HD
ENDBRANCH  25  26
ENDBRANCH   4  25
TORSDOF 7
ENDMDL
MODEL 8
REMARK VINA RESULT:      -8.5      1.805      2.232
REMARK  Name = 
REMARK  8 active torsions:
REMARK  status: ('A' for Active; 'I' for Inactive)
REMARK    1  A    between atoms: C_1  and  C_2
REMARK    2  A    between atoms: C_5  and  N_6
REMARK    3  A    between atoms: N_6  and  S_7
REMARK    4  A    between atoms: S_7  and  C_10
REMARK    5  A    between atoms: C_10  and  C_11
REMARK    6  A    between atoms: N_13  and  C_14
REMARK    7  A    between atoms: C_17  and  O_18
REMARK    8  A    between atoms: O_18  and  C_19
REMARK                            x       y       z     vdW  Elec       q    Type
REMARK                         _______ _______ _______ _____ _____    ______ ____
ROOT
ATOM      1  C   UNL     1       2.179   7.745  19.488  0.00  0.00    +0.000 A 
ATOM      2  C   UNL     1       2.267   8.346  18.231  0.00  0.00    +0.000 A 
ATOM      3  C   UNL     1       1.474   9.461  17.938  0.00  0.00    +0.000 A 
ATOM      4  C   UNL     1       0.616   9.989  18.907  0.00  0.00    +0.000 A 
ATOM      5  C   UNL     1       0.592   9.405  20.180  0.00  0.00    +0.000 A 
ATOM      6  F   UNL     1      -0.144   9.928  21.173  0.00  0.00    +0.000 F 
ATOM      7  C   UNL     1       1.327   8.257  20.461  0.00  0.00    +0.000 A 
ENDROOT
BRANCH   1  10
ATOM      8  C   UNL     1       2.701   5.433  19.090  0.00  0.00    +0.000 C 
ATOM      9  O   UNL     1       1.793   5.295  18.275  0.00  0.00    +0.000 OA
ATOM     10  N   UNL     1       2.972   6.619  19.771  0.00  0.00    +0.000 N 
ATOM     11  H   UNL     1       3.961   6.810  19.887  0.00  0.00    +0.000 HD
BRANCH   8  12
ATOM     12  C   UNL     1       3.670   4.329  19.378  0.00  0.00    +0.000 C 
BRANCH  12  13
ATOM     13  S   UNL     1       5.212   4.742  18.598  0.00  0.00    +0.000 S 
ATOM     14  O   UNL     1       6.294   4.409  19.495  0.00  0.00    +0.000 OA
ATOM     15  O   UNL     1       5.096   6.055  17.998  0.00  0.00    +0.000 OA
BRANCH  13  16
ATOM     16  N   UNL     1       5.307   3.591  17.364  0.00  0.00    +0.000 N 
ATOM     17  H   UNL     1       4.534   2.928  17.353  0.00  0.00    +0.000 HD
BRANCH  16  22
ATOM     18  C   UNL     1       7.645   5.215  12.409  0.00  0.00    +0.000 C 
ATOM     19  C   UNL     1       7.050   4.771  13.713  0.00  0.00    +0.000 A 
ATOM     20  C   UNL     1       7.671   5.080  14.929  0.00  0.00    +0.000 A 
ATOM     21  C   UNL     1       7.094   4.683  16.136  0.00  0.00    +0.000 A 
ATOM     22  C   UNL     1       5.910   3.952  16.132  0.00  0.00    +0.000 A 
ATOM     23  C   UNL     1       5.288   3.623  14.930  0.00  0.00    +0.000 A 
ATOM     24  C   UNL     1       5.854   4.041  13.723  0.00  0.00    +0.000 A 
ENDBRANCH  16  22
ENDBRANCH  13  16
ENDBRANCH  12  13
ENDBRANCH   8  12
ENDBRANCH   1  10
BRANCH   4  25
ATOM     25  O   UNL     1      -0.107  11.098  18.521  0.00  0.00    +0.000 OA
BRANCH  25  26
ATOM     26  C   UNL     1      -1.452  10.975  18.242  0.00  0.00    +0.000 A 
ATOM     27  C   UNL     1      -1.941  10.028  17.345  0.00  0.00    +0.000 A 
ATOM     28  C   UNL     1      -3.308   9.935  17.176  0.00  0.00    +0.000 A 
ATOM     29  N   UNL     1      -4.198  10.749  17.780  0.00  0.00    +0.000 NA
ATOM     30  C   UNL     1      -3.711  11.714  18.586  0.00  0.00    +0.000 A 
ATOM     31  N   UNL     1      -4.686  12.509  19.192  0.00  0.00    +0.000 N 
ATOM     32  C   UNL     1      -2.343  11.870  18.843  0.00  0.00    +0.000 A 
ATOM     33 CL   UNL     1      -1.773  13.160  19.846  0.00  0.00    +0.000 Cl
ATOM     34  H   UNL     1      -5.585  12.249  18.796  0.00  0.00    +0.000 HD
ATOM     35  H   UNL     1      -4.479  13.497  19.105  0.00  0.00    +0.000 HD
ENDBRANCH  25  26
ENDBRANCH   4  25
TORSDOF 7
ENDMDL
MODEL 9
REMARK VINA RESULT:      -8.5      1.870      2.250
REMARK  Name = 
REMARK  8 active torsions:
REMARK  status: ('A' for Active; 'I' for Inactive)
REMARK    1  A    between atoms: C_1  and  C_2
REMARK    2  A    between atoms: C_5  and  N_6
REMARK    3  A    between atoms: N_6  and  S_7
REMARK    4  A    between atoms: S_7  and  C_10
REMARK    5  A    between atoms: C_10  and  C_11
REMARK    6  A    between atoms: N_13  and  C_14
REMARK    7  A    between atoms: C_17  and  O_18
REMARK    8  A    between atoms: O_18  and  C_19
REMARK                            x       y       z     vdW  Elec       q    Type
REMARK                         _______ _______ _______ _____ _____    ______ ____
ROOT
ATOM      1  C   UNL     1       2.433   7.370  19.386  0.00  0.00    +0.000 A 
ATOM      2  C   UNL     1       2.203   8.038  18.182  0.00  0.00    +0.000 A 
ATOM      3  C   UNL     1       1.318   9.121  18.147  0.00  0.00    +0.000 A 
ATOM      4  C   UNL     1       0.686   9.552  19.318  0.00  0.00    +0.000 A 
ATOM      5  C   UNL     1       0.981   8.903  20.523  0.00  0.00    +0.000 A 
ATOM      6  F   UNL     1       0.474   9.334  21.689  0.00  0.00    +0.000 F 
ATOM      7  C   UNL     1       1.808   7.784  20.557  0.00  0.00    +0.000 A 
ENDROOT
BRANCH   1  10
ATOM      8  C   UNL     1       2.787   5.005  19.624  0.00  0.00    +0.000 C 
ATOM      9  O   UNL     1       1.596   4.776  19.824  0.00  0.00    +0.000 OA
ATOM     10  N   UNL     1       3.315   6.276  19.409  0.00  0.00    +0.000 N 
ATOM     11  H   UNL     1       4.050   6.304  18.709  0.00  0.00    +0.000 HD
BRANCH   8  12
ATOM     12  C   UNL     1       3.790   3.899  19.518  0.00  0.00    +0.000 C 
BRANCH  12  13
ATOM     13  S   UNL     1       3.601   3.145  17.921  0.00  0.00    +0.000 S 
ATOM     14  O   UNL     1       2.789   4.005  17.091  0.00  0.00    +0.000 OA
ATOM     15  O   UNL     1       3.286   1.743  18.100  0.00  0.00    +0.000 OA
BRANCH  13  16
ATOM     16  N   UNL     1       5.158   3.272  17.278  0.00  0.00    +0.000 N 
ATOM     17  H   UNL     1       5.330   2.663  16.481  0.00  0.00    +0.000 HD
BRANCH  16  22
ATOM     18  C   UNL     1       7.740   8.356  17.656  0.00  0.00    +0.000 C 
ATOM     19  C   UNL     1       7.082   7.012  17.542  0.00  0.00    +0.000 A 
ATOM     20  C   UNL     1       7.577   5.907  18.246  0.00  0.00    +0.000 A 
ATOM     21  C   UNL     1       6.941   4.669  18.152  0.00  0.00    +0.000 A 
ATOM     22  C   UNL     1       5.825   4.523  17.334  0.00  0.00    +0.000 A 
ATOM     23  C   UNL     1       5.330   5.608  16.615  0.00  0.00    +0.000 A 
ATOM     24  C   UNL     1       5.953   6.853  16.728  0.00  0.00    +0.000 A 
ENDBRANCH  16  22
ENDBRANCH  13  16
ENDBRANCH  12  13
ENDBRANCH   8  12
ENDBRANCH   1  10
BRANCH   4  25
ATOM     25  O   UNL     1      -0.152  10.638  19.176  0.00  0.00    +0.000 OA
BRANCH  25  26
ATOM     26  C   UNL     1       0.384  11.896  18.993  0.00  0.00    +0.000 A 
ATOM     27  C   UNL     1       1.740  12.095  18.740  0.00  0.00    +0.000 A 
ATOM     28  C   UNL     1       2.177  13.383  18.507  0.00  0.00    +0.000 A 
ATOM     29  N   UNL     1       1.381  14.472  18.571  0.00  0.00    +0.000 NA
ATOM     30  C   UNL     1       0.086  14.276  18.893  0.00  0.00    +0.000 A 
ATOM     31  N   UNL     1      -0.685  15.440  18.924  0.00  0.00    +0.000 N 
ATOM     32  C   UNL     1      -0.457  13.006  19.119  0.00  0.00    +0.000 A 
ATOM     33 CL   UNL     1      -2.115  12.821  19.581  0.00  0.00    +0.000 Cl
ATOM     34  H   UNL     1      -0.056  16.229  18.798  0.00  0.00    +0.000 HD
ATOM     35  H   UNL     1      -1.245  15.503  19.767  0.00  0.00    +0.000 HD
ENDBRANCH  25  26
ENDBRANCH   4  25
TORSDOF 7
ENDMDL
