MODEL 1
REMARK VINA RESULT:      -6.3      0.000      0.000
REMARK  Name = 
REMARK  6 active torsions:
REMARK  status: ('A' for Active; 'I' for Inactive)
REMARK    1  A    between atoms: C_2  and  C_3
REMARK    2  A    between atoms: C_3  and  O_4
REMARK    3  A    between atoms: O_4  and  C_5
REMARK    4  A    between atoms: C_5  and  C_7
REMARK    5  A    between atoms: N_11  and  C_12
REMARK    6  A    between atoms: C_12  and  C_13
REMARK                            x       y       z     vdW  Elec       q    Type
REMARK                         _______ _______ _______ _____ _____    ______ ____
ROOT
ATOM      1  O   UNL     1       4.593   6.963  16.284  0.00  0.00    +0.000 OA
ATOM      2  C   UNL     1       5.244   6.853  17.321  0.00  0.00    +0.000 C 
ATOM      3  N   UNL     1       4.723   6.364  18.496  0.00  0.00    +0.000 N 
ATOM      4  H   UNL     1       5.353   6.121  19.250  0.00  0.00    +0.000 HD
ENDROOT
BRANCH   2   5
ATOM      5  C   UNL     1       6.719   7.267  17.392  0.00  0.00    +0.000 C 
BRANCH   5   6
ATOM      6  O   UNL     1       7.576   6.376  16.678  0.00  0.00    +0.000 OA
BRANCH   6   7
ATOM      7  C   UNL     1       7.420   5.059  17.010  0.00  0.00    +0.000 C 
ATOM      8  O   UNL     1       7.571   4.647  18.161  0.00  0.00    +0.000 OA
BRANCH   7   9
ATOM      9  C   UNL     1       7.060   4.183  15.782  0.00  0.00    +0.000 C 
ATOM     10  C   UNL     1       5.580   3.733  15.647  0.00  0.00    +0.000 C 
ATOM     11  C   UNL     1       5.706   3.953  14.129  0.00  0.00    +0.000 C 
ATOM     12  C   UNL     1       6.867   4.918  14.426  0.00  0.00    +0.000 C 
ENDBRANCH   7   9
ENDBRANCH   6   7
ENDBRANCH   5   6
ENDBRANCH   2   5
BRANCH   3  13
ATOM     13  C   UNL     1       3.355   5.890  18.599  0.00  0.00    +0.000 C 
BRANCH  13  14
ATOM     14  C   UNL     1       3.285   4.383  18.563  0.00  0.00    +0.000 A 
ATOM     15  C   UNL     1       2.422   3.725  17.674  0.00  0.00    +0.000 A 
ATOM     16  C   UNL     1       2.350   2.330  17.655  0.00  0.00    +0.000 A 
ATOM     17  C   UNL     1       3.144   1.578  18.518  0.00  0.00    +0.000 A 
ATOM     18  C   UNL     1       4.022   2.218  19.390  0.00  0.00    +0.000 A 
ATOM     19  C   UNL     1       4.095   3.613  19.410  0.00  0.00    +0.000 A 
ENDBRANCH  13  14
ENDBRANCH   3  13
TORSDOF 6
ENDMDL
MODEL 2
REMARK VINA RESULT:      -6.3      1.826      2.498
REMARK  Name = 
REMARK  6 active torsions:
REMARK  status: ('A' for Active; 'I' for Inactive)
REMARK    1  A    between atoms: C_2  and  C_3
REMARK    2  A    between atoms: C_3  and  O_4
REMARK    3  A    between atoms: O_4  and  C_5
REMARK    4  A    between atoms: C_5  and  C_7
REMARK    5  A    between atoms: N_11  and  C_12
REMARK    6  A    between atoms: C_12  and  C_13
REMARK                            x       y       z     vdW  Elec       q    Type
REMARK                         _______ _______ _______ _____ _____    ______ ____
ROOT
ATOM      1  O   UNL     1       4.303   6.720  16.823  0.00  0.00    +0.000 OA
ATOM      2  C   UNL     1       5.051   5.842  17.249  0.00  0.00    +0.000 C 
ATOM      3  N   UNL     1       4.956   5.314  18.516  0.00  0.00    +0.000 N 
ATOM      4  H   UNL     1       5.470   4.471  18.737  0.00  0.00    +0.000 HD
ENDROOT
BRANCH   2   5
ATOM      5  C   UNL     1       6.177   5.256  16.389  0.00  0.00    +0.000 C 
BRANCH   5   6
ATOM      6  O   UNL     1       6.125   5.705  15.035  0.00  0.00    +0.000 OA
BRANCH   6   7
ATOM      7  C   UNL     1       7.043   5.115  14.212  0.00  0.00    +0.000 C 
ATOM      8  O   UNL     1       8.158   5.599  14.012  0.00  0.00    +0.000 OA
BRANCH   7   9
ATOM      9  C   UNL     1       6.503   3.810  13.571  0.00  0.00    +0.000 C 
ATOM     10  C   UNL     1       5.005   3.794  13.160  0.00  0.00    +0.000 C 
ATOM     11  C   UNL     1       5.410   2.993  11.911  0.00  0.00    +0.000 C 
ATOM     12  C   UNL     1       6.825   3.576  12.069  0.00  0.00    +0.000 C 
ENDBRANCH   7   9
ENDBRANCH   6   7
ENDBRANCH   5   6
ENDBRANCH   2   5
BRANCH   3  13
ATOM     13  C   UNL     1       3.925   5.724  19.452  0.00  0.00    +0.000 C 
BRANCH  13  14
ATOM     14  C   UNL     1       2.798   4.723  19.511  0.00  0.00    +0.000 A 
ATOM     15  C   UNL     1       2.220   4.364  20.738  0.00  0.00    +0.000 A 
ATOM     16  C   UNL     1       1.186   3.425  20.789  0.00  0.00    +0.000 A 
ATOM     17  C   UNL     1       0.715   2.840  19.615  0.00  0.00    +0.000 A 
ATOM     18  C   UNL     1       1.266   3.204  18.388  0.00  0.00    +0.000 A 
ATOM     19  C   UNL     1       2.299   4.143  18.336  0.00  0.00    +0.000 A 
ENDBRANCH  13  14
ENDBRANCH   3  13
TORSDOF 6
ENDMDL
MODEL 3
REMARK VINA RESULT:      -6.2      2.814      5.171
REMARK  Name = 
REMARK  6 active torsions:
REMARK  status: ('A' for Active; 'I' for Inactive)
REMARK    1  A    between atoms: C_2  and  C_3
REMARK    2  A    between atoms: C_3  and  O_4
REMARK    3  A    between atoms: O_4  and  C_5
REMARK    4  A    between atoms: C_5  and  C_7
REMARK    5  A    between atoms: N_11  and  C_12
REMARK    6  A    between atoms: C_12  and  C_13
REMARK                            x       y       z     vdW  Elec       q    Type
REMARK                         _______ _______ _______ _____ _____    ______ ____
ROOT
ATOM      1  O   UNL     1       2.268   7.580  20.048  0.00  0.00    +0.000 OA
ATOM      2  C   UNL     1       2.314   6.363  19.884  0.00  0.00    +0.000 C 
ATOM      3  N   UNL     1       2.979   5.764  18.840  0.00  0.00    +0.000 N 
ATOM      4  H   UNL     1       3.139   4.764  18.868  0.00  0.00    +0.000 HD
ENDROOT
BRANCH   2   5
ATOM      5  C   UNL     1       1.614   5.394  20.845  0.00  0.00    +0.000 C 
BRANCH   5   6
ATOM      6  O   UNL     1       1.208   4.183  20.207  0.00  0.00    +0.000 OA
BRANCH   6   7
ATOM      7  C   UNL     1       1.758   3.053  20.744  0.00  0.00    +0.000 C 
ATOM      8  O   UNL     1       1.704   2.801  21.948  0.00  0.00    +0.000 OA
BRANCH   7   9
ATOM      9  C   UNL     1       2.450   2.172  19.671  0.00  0.00    +0.000 C 
ATOM     10  C   UNL     1       2.139   2.496  18.185  0.00  0.00    +0.000 C 
ATOM     11  C   UNL     1       3.614   2.199  17.864  0.00  0.00    +0.000 C 
ATOM     12  C   UNL     1       3.933   2.501  19.339  0.00  0.00    +0.000 C 
ENDBRANCH   7   9
ENDBRANCH   6   7
ENDBRANCH   5   6
ENDBRANCH   2   5
BRANCH   3  13
ATOM     13  C   UNL     1       3.727   6.525  17.858  0.00  0.00    +0.000 C 
BRANCH  13  14
ATOM     14  C   UNL     1       4.939   5.768  17.373  0.00  0.00    +0.000 A 
ATOM     15  C   UNL     1       6.075   5.632  18.186  0.00  0.00    +0.000 A 
ATOM     16  C   UNL     1       7.199   4.942  17.726  0.00  0.00    +0.000 A 
ATOM     17  C   UNL     1       7.199   4.375  16.454  0.00  0.00    +0.000 A 
ATOM     18  C   UNL     1       6.070   4.483  15.645  0.00  0.00    +0.000 A 
ATOM     19  C   UNL     1       4.944   5.173  16.103  0.00  0.00    +0.000 A 
ENDBRANCH  13  14
ENDBRANCH   3  13
TORSDOF 6
ENDMDL
MODEL 4
REMARK VINA RESULT:      -6.2      1.873      2.550
REMARK  Name = 
REMARK  6 active torsions:
REMARK  status: ('A' for Active; 'I' for Inactive)
REMARK    1  A    between atoms: C_2  and  C_3
REMARK    2  A    between atoms: C_3  and  O_4
REMARK    3  A    between atoms: O_4  and  C_5
REMARK    4  A    between atoms: C_5  and  C_7
REMARK    5  A    between atoms: N_11  and  C_12
REMARK    6  A    between atoms: C_12  and  C_13
REMARK                            x       y       z     vdW  Elec       q    Type
REMARK                         _______ _______ _______ _____ _____    ______ ____
ROOT
ATOM      1  O   UNL     1       3.543   5.436  17.445  0.00  0.00    +0.000 OA
ATOM      2  C   UNL     1       4.658   4.950  17.625  0.00  0.00    +0.000 C 
ATOM      3  N   UNL     1       4.875   3.606  17.824  0.00  0.00    +0.000 N 
ATOM      4  H   UNL     1       5.821   3.248  17.775  0.00  0.00    +0.000 HD
ENDROOT
BRANCH   2   5
ATOM      5  C   UNL     1       5.921   5.818  17.650  0.00  0.00    +0.000 C 
BRANCH   5   6
ATOM      6  O   UNL     1       6.365   6.180  16.342  0.00  0.00    +0.000 OA
BRANCH   6   7
ATOM      7  C   UNL     1       6.941   5.158  15.641  0.00  0.00    +0.000 C 
ATOM      8  O   UNL     1       7.879   4.498  16.088  0.00  0.00    +0.000 OA
BRANCH   7   9
ATOM      9  C   UNL     1       6.286   4.962  14.248  0.00  0.00    +0.000 C 
ATOM     10  C   UNL     1       7.163   4.314  13.142  0.00  0.00    +0.000 C 
ATOM     11  C   UNL     1       5.912   3.553  12.669  0.00  0.00    +0.000 C 
ATOM     12  C   UNL     1       5.335   3.744  14.082  0.00  0.00    +0.000 C 
ENDBRANCH   7   9
ENDBRANCH   6   7
ENDBRANCH   5   6
ENDBRANCH   2   5
BRANCH   3  13
ATOM     13  C   UNL     1       3.799   2.633  17.795  0.00  0.00    +0.000 C 
BRANCH  13  14
ATOM     14  C   UNL     1       2.935   2.722  19.028  0.00  0.00    +0.000 A 
ATOM     15  C   UNL     1       3.495   2.595  20.309  0.00  0.00    +0.000 A 
ATOM     16  C   UNL     1       2.688   2.665  21.447  0.00  0.00    +0.000 A 
ATOM     17  C   UNL     1       1.316   2.868  21.320  0.00  0.00    +0.000 A 
ATOM     18  C   UNL     1       0.750   3.018  20.055  0.00  0.00    +0.000 A 
ATOM     19  C   UNL     1       1.556   2.949  18.916  0.00  0.00    +0.000 A 
ENDBRANCH  13  14
ENDBRANCH   3  13
TORSDOF 6
ENDMDL
MODEL 5
REMARK VINA RESULT:      -6.2      2.581      5.820
REMARK  Name = 
REMARK  6 active torsions:
REMARK  status: ('A' for Active; 'I' for Inactive)
REMARK    1  A    between atoms: C_2  and  C_3
REMARK    2  A    between atoms: C_3  and  O_4
REMARK    3  A    between atoms: O_4  and  C_5
REMARK    4  A    between atoms: C_5  and  C_7
REMARK    5  A    between atoms: N_11  and  C_12
REMARK    6  A    between atoms: C_12  and  C_13
REMARK                            x       y       z     vdW  Elec       q    Type
REMARK                         _______ _______ _______ _____ _____    ______ ____
ROOT
ATOM      1  O   UNL     1       3.138   4.169  17.206  0.00  0.00    +0.000 OA
ATOM      2  C   UNL     1       3.948   3.246  17.266  0.00  0.00    +0.000 C 
ATOM      3  N   UNL     1       5.204   3.302  16.709  0.00  0.00    +0.000 N 
ATOM      4  H   UNL     1       5.884   2.593  16.956  0.00  0.00    +0.000 HD
ENDROOT
BRANCH   2   5
ATOM      5  C   UNL     1       3.614   1.927  17.975  0.00  0.00    +0.000 C 
BRANCH   5   6
ATOM      6  O   UNL     1       2.722   2.105  19.075  0.00  0.00    +0.000 OA
BRANCH   6   7
ATOM      7  C   UNL     1       3.318   2.573  20.213  0.00  0.00    +0.000 C 
ATOM      8  O   UNL     1       4.391   2.131  20.625  0.00  0.00    +0.000 OA
BRANCH   7   9
ATOM      9  C   UNL     1       2.480   3.683  20.898  0.00  0.00    +0.000 C 
ATOM     10  C   UNL     1       2.780   5.150  20.483  0.00  0.00    +0.000 C 
ATOM     11  C   UNL     1       1.268   5.426  20.562  0.00  0.00    +0.000 C 
ATOM     12  C   UNL     1       1.043   3.918  20.356  0.00  0.00    +0.000 C 
ENDBRANCH   7   9
ENDBRANCH   6   7
ENDBRANCH   5   6
ENDBRANCH   2   5
BRANCH   3  13
ATOM     13  C   UNL     1       5.701   4.486  16.034  0.00  0.00    +0.000 C 
BRANCH  13  14
ATOM     14  C   UNL     1       6.541   5.339  16.953  0.00  0.00    +0.000 A 
ATOM     15  C   UNL     1       7.160   4.783  18.083  0.00  0.00    +0.000 A 
ATOM     16  C   UNL     1       7.926   5.579  18.938  0.00  0.00    +0.000 A 
ATOM     17  C   UNL     1       8.087   6.937  18.670  0.00  0.00    +0.000 A 
ATOM     18  C   UNL     1       7.497   7.497  17.539  0.00  0.00    +0.000 A 
ATOM     19  C   UNL     1       6.731   6.702  16.683  0.00  0.00    +0.000 A 
ENDBRANCH  13  14
ENDBRANCH   3  13
TORSDOF 6
ENDMDL
MODEL 6
REMARK VINA RESULT:      -6.2      1.809      2.139
REMARK  Name = 
REMARK  6 active torsions:
REMARK  status: ('A' for Active; 'I' for Inactive)
REMARK    1  A    between atoms: C_2  and  C_3
REMARK    2  A    between atoms: C_3  and  O_4
REMARK    3  A    between atoms: O_4  and  C_5
REMARK    4  A    between atoms: C_5  and  C_7
REMARK    5  A    between atoms: N_11  and  C_12
REMARK    6  A    between atoms: C_12  and  C_13
REMARK                            x       y       z     vdW  Elec       q    Type
REMARK                         _______ _______ _______ _____ _____    ______ ____
ROOT
ATOM      1  O   UNL     1       4.998   5.523  18.690  0.00  0.00    +0.000 OA
ATOM      2  C   UNL     1       4.350   6.216  17.909  0.00  0.00    +0.000 C 
ATOM      3  N   UNL     1       3.091   6.695  18.185  0.00  0.00    +0.000 N 
ATOM      4  H   UNL     1       2.694   7.410  17.588  0.00  0.00    +0.000 HD
ENDROOT
BRANCH   2   5
ATOM      5  C   UNL     1       4.901   6.606  16.531  0.00  0.00    +0.000 C 
BRANCH   5   6
ATOM      6  O   UNL     1       5.227   5.472  15.728  0.00  0.00    +0.000 OA
BRANCH   6   7
ATOM      7  C   UNL     1       6.558   5.350  15.441  0.00  0.00    +0.000 C 
ATOM      8  O   UNL     1       7.418   6.036  15.996  0.00  0.00    +0.000 OA
BRANCH   7   9
ATOM      9  C   UNL     1       6.826   4.284  14.348  0.00  0.00    +0.000 C 
ATOM     10  C   UNL     1       5.602   3.791  13.528  0.00  0.00    +0.000 C 
ATOM     11  C   UNL     1       6.509   3.768  12.285  0.00  0.00    +0.000 C 
ATOM     12  C   UNL     1       7.412   4.788  12.999  0.00  0.00    +0.000 C 
ENDBRANCH   7   9
ENDBRANCH   6   7
ENDBRANCH   5   6
ENDBRANCH   2   5
BRANCH   3  13
ATOM     13  C   UNL     1       2.432   6.456  19.456  0.00  0.00    +0.000 C 
BRANCH  13  14
ATOM     14  C   UNL     1       1.920   5.040  19.559  0.00  0.00    +0.000 A 
ATOM     15  C   UNL     1       1.604   4.305  18.406  0.00  0.00    +0.000 A 
ATOM     16  C   UNL     1       1.117   2.999  18.508  0.00  0.00    +0.000 A 
ATOM     17  C   UNL     1       0.947   2.412  19.760  0.00  0.00    +0.000 A 
ATOM     18  C   UNL     1       1.278   3.124  20.911  0.00  0.00    +0.000 A 
ATOM     19  C   UNL     1       1.765   4.429  20.811  0.00  0.00    +0.000 A 
ENDBRANCH  13  14
ENDBRANCH   3  13
TORSDOF 6
ENDMDL
MODEL 7
REMARK VINA RESULT:      -6.2      1.838      2.617
REMARK  Name = 
REMARK  6 active torsions:
REMARK  status: ('A' for Active; 'I' for Inactive)
REMARK    1  A    between atoms: C_2  and  C_3
REMARK    2  A    between atoms: C_3  and  O_4
REMARK    3  A    between atoms: O_4  and  C_5
REMARK    4  A    between atoms: C_5  and  C_7
REMARK    5  A    between atoms: N_11  and  C_12
REMARK    6  A    between atoms: C_12  and  C_13
REMARK                            x       y       z     vdW  Elec       q    Type
REMARK                         _______ _______ _______ _____ _____    ______ ____
ROOT
ATOM      1  O   UNL     1       6.296   4.934  19.105  0.00  0.00    +0.000 OA
ATOM      2  C   UNL     1       5.910   4.896  17.938  0.00  0.00    +0.000 C 
ATOM      3  N   UNL     1       4.673   5.344  17.535  0.00  0.00    +0.000 N 
ATOM      4  H   UNL     1       4.491   5.462  16.546  0.00  0.00    +0.000 HD
ENDROOT
BRANCH   2   5
ATOM      5  C   UNL     1       6.789   4.331  16.816  0.00  0.00    +0.000 C 
BRANCH   5   6
ATOM      6  O   UNL     1       6.117   4.290  15.558  0.00  0.00    +0.000 OA
BRANCH   6   7
ATOM      7  C   UNL     1       6.833   4.816  14.520  0.00  0.00    +0.000 C 
ATOM      8  O   UNL     1       7.868   5.462  14.692  0.00  0.00    +0.000 OA
BRANCH   7   9
ATOM      9  C   UNL     1       6.180   4.516  13.146  0.00  0.00    +0.000 C 
ATOM     10  C   UNL     1       6.931   3.529  12.209  0.00  0.00    +0.000 C 
ATOM     11  C   UNL     1       5.562   2.957  11.801  0.00  0.00    +0.000 C 
ATOM     12  C   UNL     1       5.007   3.496  13.131  0.00  0.00    +0.000 C 
ENDBRANCH   7   9
ENDBRANCH   6   7
ENDBRANCH   5   6
ENDBRANCH   2   5
BRANCH   3  13
ATOM     13  C   UNL     1       3.727   5.944  18.457  0.00  0.00    +0.000 C 
BRANCH  13  14
ATOM     14  C   UNL     1       2.711   4.940  18.942  0.00  0.00    +0.000 A 
ATOM     15  C   UNL     1       2.083   4.061  18.046  0.00  0.00    +0.000 A 
ATOM     16  C   UNL     1       1.133   3.143  18.500  0.00  0.00    +0.000 A 
ATOM     17  C   UNL     1       0.804   3.089  19.852  0.00  0.00    +0.000 A 
ATOM     18  C   UNL     1       1.435   3.941  20.756  0.00  0.00    +0.000 A 
ATOM     19  C   UNL     1       2.386   4.859  20.304  0.00  0.00    +0.000 A 
ENDBRANCH  13  14
ENDBRANCH   3  13
TORSDOF 6
ENDMDL
MODEL 8
REMARK VINA RESULT:      -6.1      1.829      2.334
REMARK  Name = 
REMARK  6 active torsions:
REMARK  status: ('A' for Active; 'I' for Inactive)
REMARK    1  A    between atoms: C_2  and  C_3
REMARK    2  A    between atoms: C_3  and  O_4
REMARK    3  A    between atoms: O_4  and  C_5
REMARK    4  A    between atoms: C_5  and  C_7
REMARK    5  A    between atoms: N_11  and  C_12
REMARK    6  A    between atoms: C_12  and  C_13
REMARK                            x       y       z     vdW  Elec       q    Type
REMARK                         _______ _______ _______ _____ _____    ______ ____
ROOT
ATOM      1  O   UNL     1       4.329   7.517  17.649  0.00  0.00    +0.000 OA
ATOM      2  C   UNL     1       4.733   6.457  17.179  0.00  0.00    +0.000 C 
ATOM      3  N   UNL     1       4.806   5.286  17.898  0.00  0.00    +0.000 N 
ATOM      4  H   UNL     1       4.963   4.416  17.406  0.00  0.00    +0.000 HD
ENDROOT
BRANCH   2   5
ATOM      5  C   UNL     1       5.205   6.350  15.723  0.00  0.00    +0.000 C 
BRANCH   5   6
ATOM      6  O   UNL     1       5.339   4.998  15.286  0.00  0.00    +0.000 OA
BRANCH   6   7
ATOM      7  C   UNL     1       6.465   4.754  14.550  0.00  0.00    +0.000 C 
ATOM      8  O   UNL     1       7.496   5.413  14.683  0.00  0.00    +0.000 OA
BRANCH   7   9
ATOM      9  C   UNL     1       6.267   3.588  13.546  0.00  0.00    +0.000 C 
ATOM     10  C   UNL     1       4.919   3.544  12.775  0.00  0.00    +0.000 C 
ATOM     11  C   UNL     1       5.704   3.083  11.534  0.00  0.00    +0.000 C 
ATOM     12  C   UNL     1       6.953   3.729  12.159  0.00  0.00    +0.000 C 
ENDBRANCH   7   9
ENDBRANCH   6   7
ENDBRANCH   5   6
ENDBRANCH   2   5
BRANCH   3  13
ATOM     13  C   UNL     1       4.364   5.195  19.277  0.00  0.00    +0.000 C 
BRANCH  13  14
ATOM     14  C   UNL     1       3.101   4.380  19.404  0.00  0.00    +0.000 A 
ATOM     15  C   UNL     1       2.652   3.581  18.341  0.00  0.00    +0.000 A 
ATOM     16  C   UNL     1       1.474   2.839  18.459  0.00  0.00    +0.000 A 
ATOM     17  C   UNL     1       0.736   2.882  19.641  0.00  0.00    +0.000 A 
ATOM     18  C   UNL     1       1.183   3.654  20.711  0.00  0.00    +0.000 A 
ATOM     19  C   UNL     1       2.361   4.396  20.595  0.00  0.00    +0.000 A 
ENDBRANCH  13  14
ENDBRANCH   3  13
TORSDOF 6
ENDMDL
MODEL 9
REMARK VINA RESULT:      -6.0      1.480      1.909
REMARK  Name = 
REMARK  6 active torsions:
REMARK  status: ('A' for Active; 'I' for Inactive)
REMARK    1  A    between atoms: C_2  and  C_3
REMARK    2  A    between atoms: C_3  and  O_4
REMARK    3  A    between atoms: O_4  and  C_5
REMARK    4  A    between atoms: C_5  and  C_7
REMARK    5  A    between atoms: N_11  and  C_12
REMARK    6  A    between atoms: C_12  and  C_13
REMARK                            x       y       z     vdW  Elec       q    Type
REMARK                         _______ _______ _______ _____ _____    ______ ____
ROOT
ATOM      1  O   UNL     1       5.013   5.807  19.311  0.00  0.00    +0.000 OA
ATOM      2  C   UNL     1       4.680   6.345  18.257  0.00  0.00    +0.000 C 
ATOM      3  N   UNL     1       3.375   6.642  17.937  0.00  0.00    +0.000 N 
ATOM      4  H   UNL     1       3.188   7.251  17.151  0.00  0.00    +0.000 HD
ENDROOT
BRANCH   2   5
ATOM      5  C   UNL     1       5.710   6.732  17.189  0.00  0.00    +0.000 C 
BRANCH   5   6
ATOM      6  O   UNL     1       6.998   6.170  17.438  0.00  0.00    +0.000 OA
BRANCH   6   7
ATOM      7  C   UNL     1       7.271   5.046  16.708  0.00  0.00    +0.000 C 
ATOM      8  O   UNL     1       8.112   4.219  17.061  0.00  0.00    +0.000 OA
BRANCH   7   9
ATOM      9  C   UNL     1       6.420   4.967  15.414  0.00  0.00    +0.000 C 
ATOM     10  C   UNL     1       7.191   4.855  14.070  0.00  0.00    +0.000 C 
ATOM     11  C   UNL     1       6.103   3.879  13.588  0.00  0.00    +0.000 C 
ATOM     12  C   UNL     1       5.793   3.588  15.066  0.00  0.00    +0.000 C 
ENDBRANCH   7   9
ENDBRANCH   6   7
ENDBRANCH   5   6
ENDBRANCH   2   5
BRANCH   3  13
ATOM     13  C   UNL     1       2.275   6.380  18.847  0.00  0.00    +0.000 C 
BRANCH  13  14
ATOM     14  C   UNL     1       1.943   4.910  18.909  0.00  0.00    +0.000 A 
ATOM     15  C   UNL     1       1.325   4.360  20.043  0.00  0.00    +0.000 A 
ATOM     16  C   UNL     1       1.033   2.995  20.102  0.00  0.00    +0.000 A 
ATOM     17  C   UNL     1       1.349   2.166  19.027  0.00  0.00    +0.000 A 
ATOM     18  C   UNL     1       1.942   2.703  17.887  0.00  0.00    +0.000 A 
ATOM     19  C   UNL     1       2.235   4.068  17.826  0.00  0.00    +0.000 A 
ENDBRANCH  13  14
ENDBRANCH   3  13
TORSDOF 6
ENDMDL
