MODEL 1
REMARK VINA RESULT:      -8.8      0.000      0.000
REMARK  Name = 
REMARK  5 active torsions:
REMARK  status: ('A' for Active; 'I' for Inactive)
REMARK    1  A    between atoms: C_1  and  C_2
REMARK    2  A    between atoms: C_2  and  C_3
REMARK    3  A    between atoms: N_10  and  C_11
REMARK    4  A    between atoms: C_15  and  C_16
REMARK    5  A    between atoms: C_16  and  N_17
REMARK                            x       y       z     vdW  Elec       q    Type
REMARK                         _______ _______ _______ _____ _____    ______ ____
ROOT
ATOM      1  C   UNL     1       2.635   6.081  19.409  0.00  0.00    +0.000 A 
ATOM      2  C   UNL     1       2.644   6.844  18.230  0.00  0.00    +0.000 A 
ATOM      3  C   UNL     1       2.205   8.171  18.200  0.00  0.00    +0.000 A 
ATOM      4  C   UNL     1       1.642   8.744  19.333  0.00  0.00    +0.000 A 
ATOM      5  C   UNL     1       1.512   7.988  20.500  0.00  0.00    +0.000 A 
ATOM      6  C   UNL     1       2.066   6.694  20.543  0.00  0.00    +0.000 A 
ENDROOT
BRANCH   1  16
ATOM      7  C   UNL     1       1.713   3.841  17.594  0.00  0.00    +0.000 C 
ATOM      8  C   UNL     1       2.181   3.652  19.051  0.00  0.00    +0.000 C 
ATOM      9  C   UNL     1       0.943   3.550  19.963  0.00  0.00    +0.000 C 
ATOM     10  N   UNL     1       2.739   2.297  19.113  0.00  0.00    +0.000 NA
ATOM     11  C   UNL     1       4.013   2.169  19.147  0.00  0.00    +0.000 C 
ATOM     12  N   UNL     1       4.537   0.921  19.208  0.00  0.00    +0.000 N 
ATOM     13  N   UNL     1       4.896   3.190  19.102  0.00  0.00    +0.000 NA
ATOM     14  C   UNL     1       4.444   4.392  19.268  0.00  0.00    +0.000 C 
ATOM     15  N   UNL     1       5.390   5.371  19.313  0.00  0.00    +0.000 N 
ATOM     16  N   UNL     1       3.120   4.743  19.432  0.00  0.00    +0.000 N 
ATOM     17  H   UNL     1       3.889   0.213  18.892  0.00  0.00    +0.000 HD
ATOM     18  H   UNL     1       5.460   0.866  18.802  0.00  0.00    +0.000 HD
ATOM     19  H   UNL     1       6.320   4.973  19.380  0.00  0.00    +0.000 HD
ATOM     20  H   UNL     1       5.220   6.070  20.025  0.00  0.00    +0.000 HD
ENDBRANCH   1  16
BRANCH   5  21
ATOM     21  C   UNL     1       0.776   8.550  21.687  0.00  0.00    +0.000 C 
BRANCH  21  22
ATOM     22  N   UNL     1       0.095   9.773  21.354  0.00  0.00    +0.000 N 
ATOM     23  C   UNL     1      -0.330  10.591  22.364  0.00  0.00    +0.000 C 
ATOM     24  O   UNL     1      -0.189  10.290  23.549  0.00  0.00    +0.000 OA
ATOM     25  N   UNL     1      -0.900  11.774  21.955  0.00  0.00    +0.000 N 
ATOM     26  C   UNL     1      -1.278  12.142  20.588  0.00  0.00    +0.000 C 
ATOM     27  C   UNL     1      -0.690  13.513  20.244  0.00  0.00    +0.000 C 
ATOM     28  O   UNL     1      -1.100  14.506  21.201  0.00  0.00    +0.000 OA
ATOM     29  C   UNL     1      -0.682  14.144  22.529  0.00  0.00    +0.000 C 
ATOM     30  C   UNL     1      -1.263  12.788  22.946  0.00  0.00    +0.000 C 
ATOM     31  H   UNL     1       0.460  10.248  20.546  0.00  0.00    +0.000 HD
ENDBRANCH  21  22
ENDBRANCH   5  21
TORSDOF 3
ENDMDL
MODEL 2
REMARK VINA RESULT:      -8.6      1.029      1.107
REMARK  Name = 
REMARK  5 active torsions:
REMARK  status: ('A' for Active; 'I' for Inactive)
REMARK    1  A    between atoms: C_1  and  C_2
REMARK    2  A    between atoms: C_2  and  C_3
REMARK    3  A    between atoms: N_10  and  C_11
REMARK    4  A    between atoms: C_15  and  C_16
REMARK    5  A    between atoms: C_16  and  N_17
REMARK                            x       y       z     vdW  Elec       q    Type
REMARK                         _______ _______ _______ _____ _____    ______ ____
ROOT
ATOM      1  C   UNL     1       2.872   6.399  19.239  0.00  0.00    +0.000 A 
ATOM      2  C   UNL     1       3.005   7.005  17.979  0.00  0.00    +0.000 A 
ATOM      3  C   UNL     1       2.504   8.283  17.712  0.00  0.00    +0.000 A 
ATOM      4  C   UNL     1       1.757   8.952  18.672  0.00  0.00    +0.000 A 
ATOM      5  C   UNL     1       1.506   8.343  19.903  0.00  0.00    +0.000 A 
ATOM      6  C   UNL     1       2.117   7.108  20.193  0.00  0.00    +0.000 A 
ENDROOT
BRANCH   1  16
ATOM      7  C   UNL     1       1.962   3.799  17.984  0.00  0.00    +0.000 C 
ATOM      8  C   UNL     1       2.516   3.934  19.417  0.00  0.00    +0.000 C 
ATOM      9  C   UNL     1       1.335   3.981  20.406  0.00  0.00    +0.000 C 
ATOM     10  N   UNL     1       3.140   2.643  19.722  0.00  0.00    +0.000 NA
ATOM     11  C   UNL     1       4.419   2.570  19.702  0.00  0.00    +0.000 C 
ATOM     12  N   UNL     1       5.004   1.381  19.985  0.00  0.00    +0.000 N 
ATOM     13  N   UNL     1       5.249   3.590  19.392  0.00  0.00    +0.000 NA
ATOM     14  C   UNL     1       4.750   4.784  19.335  0.00  0.00    +0.000 C 
ATOM     15  N   UNL     1       5.649   5.783  19.118  0.00  0.00    +0.000 N 
ATOM     16  N   UNL     1       3.421   5.113  19.506  0.00  0.00    +0.000 N 
ATOM     17  H   UNL     1       4.375   0.600  19.863  0.00  0.00    +0.000 HD
ATOM     18  H   UNL     1       5.905   1.276  19.543  0.00  0.00    +0.000 HD
ATOM     19  H   UNL     1       6.599   5.441  19.208  0.00  0.00    +0.000 HD
ATOM     20  H   UNL     1       5.484   6.609  19.680  0.00  0.00    +0.000 HD
ENDBRANCH   1  16
BRANCH   5  21
ATOM     21  C   UNL     1       0.581   8.996  20.896  0.00  0.00    +0.000 C 
BRANCH  21  22
ATOM     22  N   UNL     1       0.024  10.216  20.374  0.00  0.00    +0.000 N 
ATOM     23  C   UNL     1      -0.154  11.278  21.217  0.00  0.00    +0.000 C 
ATOM     24  O   UNL     1       0.105  11.206  22.418  0.00  0.00    +0.000 OA
ATOM     25  N   UNL     1      -0.617  12.426  20.618  0.00  0.00    +0.000 N 
ATOM     26  C   UNL     1      -1.124  12.563  19.250  0.00  0.00    +0.000 C 
ATOM     27  C   UNL     1      -0.415  13.728  18.554  0.00  0.00    +0.000 C 
ATOM     28  O   UNL     1      -0.563  14.945  19.306  0.00  0.00    +0.000 OA
ATOM     29  C   UNL     1      -0.021  14.801  20.631  0.00  0.00    +0.000 C 
ATOM     30  C   UNL     1      -0.711  13.664  21.394  0.00  0.00    +0.000 C 
ATOM     31  H   UNL     1       0.336  10.455  19.447  0.00  0.00    +0.000 HD
ENDBRANCH  21  22
ENDBRANCH   5  21
TORSDOF 3
ENDMDL
MODEL 3
REMARK VINA RESULT:      -8.4      3.251      4.247
REMARK  Name = 
REMARK  5 active torsions:
REMARK  status: ('A' for Active; 'I' for Inactive)
REMARK    1  A    between atoms: C_1  and  C_2
REMARK    2  A    between atoms: C_2  and  C_3
REMARK    3  A    between atoms: N_10  and  C_11
REMARK    4  A    between atoms: C_15  and  C_16
REMARK    5  A    between atoms: C_16  and  N_17
REMARK                            x       y       z     vdW  Elec       q    Type
REMARK                         _______ _______ _______ _____ _____    ______ ____
ROOT
ATOM      1  C   UNL     1       2.893   6.550  18.567  0.00  0.00    +0.000 A 
ATOM      2  C   UNL     1       2.682   6.282  19.929  0.00  0.00    +0.000 A 
ATOM      3  C   UNL     1       1.900   7.112  20.739  0.00  0.00    +0.000 A 
ATOM      4  C   UNL     1       1.390   8.299  20.230  0.00  0.00    +0.000 A 
ATOM      5  C   UNL     1       1.664   8.662  18.911  0.00  0.00    +0.000 A 
ATOM      6  C   UNL     1       2.355   7.758  18.081  0.00  0.00    +0.000 A 
ENDROOT
BRANCH   1  16
ATOM      7  C   UNL     1       5.668   5.523  19.204  0.00  0.00    +0.000 C 
ATOM      8  C   UNL     1       5.144   5.808  17.782  0.00  0.00    +0.000 C 
ATOM      9  C   UNL     1       5.656   7.189  17.329  0.00  0.00    +0.000 C 
ATOM     10  N   UNL     1       5.874   4.889  16.902  0.00  0.00    +0.000 NA
ATOM     11  C   UNL     1       5.254   3.862  16.453  0.00  0.00    +0.000 C 
ATOM     12  N   UNL     1       5.920   3.010  15.637  0.00  0.00    +0.000 N 
ATOM     13  N   UNL     1       3.977   3.536  16.750  0.00  0.00    +0.000 NA
ATOM     14  C   UNL     1       3.243   4.427  17.338  0.00  0.00    +0.000 C 
ATOM     15  N   UNL     1       1.939   4.080  17.522  0.00  0.00    +0.000 N 
ATOM     16  N   UNL     1       3.661   5.676  17.748  0.00  0.00    +0.000 N 
ATOM     17  H   UNL     1       6.923   3.092  15.726  0.00  0.00    +0.000 HD
ATOM     18  H   UNL     1       5.562   2.067  15.684  0.00  0.00    +0.000 HD
ATOM     19  H   UNL     1       1.713   3.236  17.008  0.00  0.00    +0.000 HD
ATOM     20  H   UNL     1       1.287   4.831  17.332  0.00  0.00    +0.000 HD
ENDBRANCH   1  16
BRANCH   5  21
ATOM     21  C   UNL     1       1.239  10.010  18.392  0.00  0.00    +0.000 C 
BRANCH  21  22
ATOM     22  N   UNL     1      -0.005   9.929  17.672  0.00  0.00    +0.000 N 
ATOM     23  C   UNL     1      -1.167  10.246  18.318  0.00  0.00    +0.000 C 
ATOM     24  O   UNL     1      -1.187  10.554  19.509  0.00  0.00    +0.000 OA
ATOM     25  N   UNL     1      -2.297  10.217  17.533  0.00  0.00    +0.000 N 
ATOM     26  C   UNL     1      -2.407   9.692  16.170  0.00  0.00    +0.000 C 
ATOM     27  C   UNL     1      -3.073  10.736  15.270  0.00  0.00    +0.000 C 
ATOM     28  O   UNL     1      -4.351  11.134  15.798  0.00  0.00    +0.000 OA
ATOM     29  C   UNL     1      -4.212  11.685  17.120  0.00  0.00    +0.000 C 
ATOM     30  C   UNL     1      -3.575  10.674  18.080  0.00  0.00    +0.000 C 
ATOM     31  H   UNL     1       0.047  10.231  16.714  0.00  0.00    +0.000 HD
ENDBRANCH  21  22
ENDBRANCH   5  21
TORSDOF 3
ENDMDL
MODEL 4
REMARK VINA RESULT:      -8.2      1.364      1.554
REMARK  Name = 
REMARK  5 active torsions:
REMARK  status: ('A' for Active; 'I' for Inactive)
REMARK    1  A    between atoms: C_1  and  C_2
REMARK    2  A    between atoms: C_2  and  C_3
REMARK    3  A    between atoms: N_10  and  C_11
REMARK    4  A    between atoms: C_15  and  C_16
REMARK    5  A    between atoms: C_16  and  N_17
REMARK                            x       y       z     vdW  Elec       q    Type
REMARK                         _______ _______ _______ _____ _____    ______ ____
ROOT
ATOM      1  C   UNL     1       2.865   6.439  19.181  0.00  0.00    +0.000 A 
ATOM      2  C   UNL     1       2.971   7.010  17.903  0.00  0.00    +0.000 A 
ATOM      3  C   UNL     1       2.479   8.286  17.614  0.00  0.00    +0.000 A 
ATOM      4  C   UNL     1       1.766   8.991  18.576  0.00  0.00    +0.000 A 
ATOM      5  C   UNL     1       1.541   8.418  19.829  0.00  0.00    +0.000 A 
ATOM      6  C   UNL     1       2.144   7.183  20.136  0.00  0.00    +0.000 A 
ENDROOT
BRANCH   1  16
ATOM      7  C   UNL     1       1.959   3.830  17.941  0.00  0.00    +0.000 C 
ATOM      8  C   UNL     1       2.495   3.978  19.379  0.00  0.00    +0.000 C 
ATOM      9  C   UNL     1       1.302   4.039  20.353  0.00  0.00    +0.000 C 
ATOM     10  N   UNL     1       3.110   2.687  19.705  0.00  0.00    +0.000 NA
ATOM     11  C   UNL     1       4.388   2.608  19.703  0.00  0.00    +0.000 C 
ATOM     12  N   UNL     1       4.965   1.420  20.005  0.00  0.00    +0.000 N 
ATOM     13  N   UNL     1       5.227   3.622  19.393  0.00  0.00    +0.000 NA
ATOM     14  C   UNL     1       4.734   4.817  19.318  0.00  0.00    +0.000 C 
ATOM     15  N   UNL     1       5.640   5.810  19.102  0.00  0.00    +0.000 N 
ATOM     16  N   UNL     1       3.405   5.154  19.468  0.00  0.00    +0.000 N 
ATOM     17  H   UNL     1       4.334   0.641  19.882  0.00  0.00    +0.000 HD
ATOM     18  H   UNL     1       5.871   1.307  19.575  0.00  0.00    +0.000 HD
ATOM     19  H   UNL     1       6.588   5.465  19.207  0.00  0.00    +0.000 HD
ATOM     20  H   UNL     1       5.472   6.642  19.654  0.00  0.00    +0.000 HD
ENDBRANCH   1  16
BRANCH   5  21
ATOM     21  C   UNL     1       0.651   9.108  20.828  0.00  0.00    +0.000 C 
BRANCH  21  22
ATOM     22  N   UNL     1       0.811  10.538  20.776  0.00  0.00    +0.000 N 
ATOM     23  C   UNL     1      -0.193  11.299  20.245  0.00  0.00    +0.000 C 
ATOM     24  O   UNL     1      -1.209  10.795  19.768  0.00  0.00    +0.000 OA
ATOM     25  N   UNL     1       0.011  12.658  20.307  0.00  0.00    +0.000 N 
ATOM     26  C   UNL     1       1.249  13.346  20.681  0.00  0.00    +0.000 C 
ATOM     27  C   UNL     1       0.949  14.392  21.759  0.00  0.00    +0.000 C 
ATOM     28  O   UNL     1      -0.064  15.312  21.318  0.00  0.00    +0.000 OA
ATOM     29  C   UNL     1      -1.284  14.619  20.996  0.00  0.00    +0.000 C 
ATOM     30  C   UNL     1      -1.056  13.573  19.899  0.00  0.00    +0.000 C 
ATOM     31  H   UNL     1       1.269  10.936  21.578  0.00  0.00    +0.000 HD
ENDBRANCH  21  22
ENDBRANCH   5  21
TORSDOF 3
ENDMDL
MODEL 5
REMARK VINA RESULT:      -8.1      0.891      1.862
REMARK  Name = 
REMARK  5 active torsions:
REMARK  status: ('A' for Active; 'I' for Inactive)
REMARK    1  A    between atoms: C_1  and  C_2
REMARK    2  A    between atoms: C_2  and  C_3
REMARK    3  A    between atoms: N_10  and  C_11
REMARK    4  A    between atoms: C_15  and  C_16
REMARK    5  A    between atoms: C_16  and  N_17
REMARK                            x       y       z     vdW  Elec       q    Type
REMARK                         _______ _______ _______ _____ _____    ______ ____
ROOT
ATOM      1  C   UNL     1       2.441   6.184  18.805  0.00  0.00    +0.000 A 
ATOM      2  C   UNL     1       2.401   7.060  17.708  0.00  0.00    +0.000 A 
ATOM      3  C   UNL     1       2.101   8.417  17.851  0.00  0.00    +0.000 A 
ATOM      4  C   UNL     1       1.724   8.920  19.090  0.00  0.00    +0.000 A 
ATOM      5  C   UNL     1       1.643   8.064  20.190  0.00  0.00    +0.000 A 
ATOM      6  C   UNL     1       2.062   6.726  20.049  0.00  0.00    +0.000 A 
ENDROOT
BRANCH   1  16
ATOM      7  C   UNL     1       5.171   4.982  19.321  0.00  0.00    +0.000 C 
ATOM      8  C   UNL     1       4.182   4.483  18.248  0.00  0.00    +0.000 C 
ATOM      9  C   UNL     1       4.591   5.065  16.882  0.00  0.00    +0.000 C 
ATOM     10  N   UNL     1       4.465   3.053  18.087  0.00  0.00    +0.000 NA
ATOM     11  C   UNL     1       3.649   2.212  18.605  0.00  0.00    +0.000 C 
ATOM     12  N   UNL     1       3.901   0.889  18.458  0.00  0.00    +0.000 N 
ATOM     13  N   UNL     1       2.551   2.539  19.322  0.00  0.00    +0.000 NA
ATOM     14  C   UNL     1       2.154   3.771  19.298  0.00  0.00    +0.000 C 
ATOM     15  N   UNL     1       0.988   4.023  19.956  0.00  0.00    +0.000 N 
ATOM     16  N   UNL     1       2.785   4.812  18.648  0.00  0.00    +0.000 N 
ATOM     17  H   UNL     1       4.870   0.702  18.239  0.00  0.00    +0.000 HD
ATOM     18  H   UNL     1       3.518   0.335  19.209  0.00  0.00    +0.000 HD
ATOM     19  H   UNL     1       0.527   3.158  20.217  0.00  0.00    +0.000 HD
ATOM     20  H   UNL     1       0.370   4.654  19.462  0.00  0.00    +0.000 HD
ENDBRANCH   1  16
BRANCH   5  21
ATOM     21  C   UNL     1       1.100   8.565  21.501  0.00  0.00    +0.000 C 
BRANCH  21  22
ATOM     22  N   UNL     1       0.238   9.703  21.314  0.00  0.00    +0.000 N 
ATOM     23  C   UNL     1      -0.223  10.373  22.413  0.00  0.00    +0.000 C 
ATOM     24  O   UNL     1       0.039  10.005  23.557  0.00  0.00    +0.000 OA
ATOM     25  N   UNL     1      -0.975  11.492  22.140  0.00  0.00    +0.000 N 
ATOM     26  C   UNL     1      -1.492  11.907  20.833  0.00  0.00    +0.000 C 
ATOM     27  C   UNL     1      -1.120  13.370  20.574  0.00  0.00    +0.000 C 
ATOM     28  O   UNL     1      -1.594  14.219  21.634  0.00  0.00    +0.000 OA
ATOM     29  C   UNL     1      -1.040  13.818  22.901  0.00  0.00    +0.000 C 
ATOM     30  C   UNL     1      -1.402  12.366  23.233  0.00  0.00    +0.000 C 
ATOM     31  H   UNL     1       0.479  10.285  20.530  0.00  0.00    +0.000 HD
ENDBRANCH  21  22
ENDBRANCH   5  21
TORSDOF 3
ENDMDL
MODEL 6
REMARK VINA RESULT:      -8.0      1.858      2.565
REMARK  Name = 
REMARK  5 active torsions:
REMARK  status: ('A' for Active; 'I' for Inactive)
REMARK    1  A    between atoms: C_1  and  C_2
REMARK    2  A    between atoms: C_2  and  C_3
REMARK    3  A    between atoms: N_10  and  C_11
REMARK    4  A    between atoms: C_15  and  C_16
REMARK    5  A    between atoms: C_16  and  N_17
REMARK                            x       y       z     vdW  Elec       q    Type
REMARK                         _______ _______ _______ _____ _____    ______ ____
ROOT
ATOM      1  C   UNL     1       2.341   5.935  19.681  0.00  0.00    +0.000 A 
ATOM      2  C   UNL     1       1.968   6.369  20.963  0.00  0.00    +0.000 A 
ATOM      3  C   UNL     1       1.447   7.646  21.195  0.00  0.00    +0.000 A 
ATOM      4  C   UNL     1       1.384   8.569  20.160  0.00  0.00    +0.000 A 
ATOM      5  C   UNL     1       1.845   8.219  18.889  0.00  0.00    +0.000 A 
ATOM      6  C   UNL     1       2.257   6.893  18.651  0.00  0.00    +0.000 A 
ENDROOT
BRANCH   1  16
ATOM      7  C   UNL     1       1.343   4.018  17.562  0.00  0.00    +0.000 C 
ATOM      8  C   UNL     1       1.883   3.594  18.943  0.00  0.00    +0.000 C 
ATOM      9  C   UNL     1       0.693   3.324  19.884  0.00  0.00    +0.000 C 
ATOM     10  N   UNL     1       2.451   2.256  18.750  0.00  0.00    +0.000 NA
ATOM     11  C   UNL     1       3.726   2.141  18.701  0.00  0.00    +0.000 C 
ATOM     12  N   UNL     1       4.259   0.908  18.527  0.00  0.00    +0.000 N 
ATOM     13  N   UNL     1       4.600   3.169  18.786  0.00  0.00    +0.000 NA
ATOM     14  C   UNL     1       4.150   4.320  19.172  0.00  0.00    +0.000 C 
ATOM     15  N   UNL     1       5.092   5.290  19.335  0.00  0.00    +0.000 N 
ATOM     16  N   UNL     1       2.834   4.619  19.456  0.00  0.00    +0.000 N 
ATOM     17  H   UNL     1       3.601   0.254  18.128  0.00  0.00    +0.000 HD
ATOM     18  H   UNL     1       5.161   0.936  18.074  0.00  0.00    +0.000 HD
ATOM     19  H   UNL     1       6.026   4.899  19.290  0.00  0.00    +0.000 HD
ATOM     20  H   UNL     1       4.953   5.858  20.161  0.00  0.00    +0.000 HD
ENDBRANCH   1  16
BRANCH   5  21
ATOM     21  C   UNL     1       1.914   9.254  17.798  0.00  0.00    +0.000 C 
BRANCH  21  22
ATOM     22  N   UNL     1       1.233  10.464  18.175  0.00  0.00    +0.000 N 
ATOM     23  C   UNL     1      -0.116  10.557  17.971  0.00  0.00    +0.000 C 
ATOM     24  O   UNL     1      -0.757   9.655  17.433  0.00  0.00    +0.000 OA
ATOM     25  N   UNL     1      -0.696  11.716  18.432  0.00  0.00    +0.000 N 
ATOM     26  C   UNL     1      -0.005  12.915  18.914  0.00  0.00    +0.000 C 
ATOM     27  C   UNL     1      -0.572  13.320  20.278  0.00  0.00    +0.000 C 
ATOM     28  O   UNL     1      -1.996  13.512  20.209  0.00  0.00    +0.000 OA
ATOM     29  C   UNL     1      -2.656  12.310  19.774  0.00  0.00    +0.000 C 
ATOM     30  C   UNL     1      -2.152  11.865  18.396  0.00  0.00    +0.000 C 
ATOM     31  H   UNL     1       1.566  10.882  19.027  0.00  0.00    +0.000 HD
ENDBRANCH  21  22
ENDBRANCH   5  21
TORSDOF 3
ENDMDL
MODEL 7
REMARK VINA RESULT:      -7.8      3.219      3.863
REMARK  Name = 
REMARK  5 active torsions:
REMARK  status: ('A' for Active; 'I' for Inactive)
REMARK    1  A    between atoms: C_1  and  C_2
REMARK    2  A    between atoms: C_2  and  C_3
REMARK    3  A    between atoms: N_10  and  C_11
REMARK    4  A    between atoms: C_15  and  C_16
REMARK    5  A    between atoms: C_16  and  N_17
REMARK                            x       y       z     vdW  Elec       q    Type
REMARK                         _______ _______ _______ _____ _____    ______ ____
ROOT
ATOM      1  C   UNL     1       2.679   6.752  19.038  0.00  0.00    +0.000 A 
ATOM      2  C   UNL     1       2.399   6.637  20.409  0.00  0.00    +0.000 A 
ATOM      3  C   UNL     1       1.582   7.552  21.081  0.00  0.00    +0.000 A 
ATOM      4  C   UNL     1       1.106   8.676  20.418  0.00  0.00    +0.000 A 
ATOM      5  C   UNL     1       1.449   8.890  19.082  0.00  0.00    +0.000 A 
ATOM      6  C   UNL     1       2.174   7.898  18.394  0.00  0.00    +0.000 A 
ENDROOT
BRANCH   1  16
ATOM      7  C   UNL     1       1.646   4.330  17.545  0.00  0.00    +0.000 C 
ATOM      8  C   UNL     1       2.989   4.386  18.300  0.00  0.00    +0.000 C 
ATOM      9  C   UNL     1       2.814   3.728  19.682  0.00  0.00    +0.000 C 
ATOM     10  N   UNL     1       3.872   3.444  17.604  0.00  0.00    +0.000 NA
ATOM     11  C   UNL     1       4.781   3.921  16.838  0.00  0.00    +0.000 C 
ATOM     12  N   UNL     1       5.603   3.058  16.194  0.00  0.00    +0.000 N 
ATOM     13  N   UNL     1       4.978   5.235  16.593  0.00  0.00    +0.000 NA
ATOM     14  C   UNL     1       4.370   6.092  17.350  0.00  0.00    +0.000 C 
ATOM     15  N   UNL     1       4.683   7.398  17.122  0.00  0.00    +0.000 N 
ATOM     16  N   UNL     1       3.482   5.791  18.361  0.00  0.00    +0.000 N 
ATOM     17  H   UNL     1       5.212   2.128  16.125  0.00  0.00    +0.000 HD
ATOM     18  H   UNL     1       5.962   3.435  15.329  0.00  0.00    +0.000 HD
ATOM     19  H   UNL     1       5.481   7.476  16.502  0.00  0.00    +0.000 HD
ATOM     20  H   UNL     1       4.800   7.942  17.967  0.00  0.00    +0.000 HD
ENDBRANCH   1  16
BRANCH   5  21
ATOM     21  C   UNL     1       1.058  10.172  18.396  0.00  0.00    +0.000 C 
BRANCH  21  22
ATOM     22  N   UNL     1      -0.166  10.021  17.655  0.00  0.00    +0.000 N 
ATOM     23  C   UNL     1      -1.348  10.369  18.249  0.00  0.00    +0.000 C 
ATOM     24  O   UNL     1      -1.400  10.763  19.414  0.00  0.00    +0.000 OA
ATOM     25  N   UNL     1      -2.458  10.267  17.443  0.00  0.00    +0.000 N 
ATOM     26  C   UNL     1      -2.529   9.642  16.119  0.00  0.00    +0.000 C 
ATOM     27  C   UNL     1      -3.185  10.609  15.130  0.00  0.00    +0.000 C 
ATOM     28  O   UNL     1      -4.480  11.027  15.598  0.00  0.00    +0.000 OA
ATOM     29  C   UNL     1      -4.380  11.674  16.879  0.00  0.00    +0.000 C 
ATOM     30  C   UNL     1      -3.754  10.745  17.925  0.00  0.00    +0.000 C 
ATOM     31  H   UNL     1      -0.095  10.254  16.679  0.00  0.00    +0.000 HD
ENDBRANCH  21  22
ENDBRANCH   5  21
TORSDOF 3
ENDMDL
MODEL 8
REMARK VINA RESULT:      -7.6      1.931      2.568
REMARK  Name = 
REMARK  5 active torsions:
REMARK  status: ('A' for Active; 'I' for Inactive)
REMARK    1  A    between atoms: C_1  and  C_2
REMARK    2  A    between atoms: C_2  and  C_3
REMARK    3  A    between atoms: N_10  and  C_11
REMARK    4  A    between atoms: C_15  and  C_16
REMARK    5  A    between atoms: C_16  and  N_17
REMARK                            x       y       z     vdW  Elec       q    Type
REMARK                         _______ _______ _______ _____ _____    ______ ____
ROOT
ATOM      1  C   UNL     1       2.322   6.037  19.645  0.00  0.00    +0.000 A 
ATOM      2  C   UNL     1       1.950   6.480  20.924  0.00  0.00    +0.000 A 
ATOM      3  C   UNL     1       1.428   7.758  21.146  0.00  0.00    +0.000 A 
ATOM      4  C   UNL     1       1.362   8.673  20.103  0.00  0.00    +0.000 A 
ATOM      5  C   UNL     1       1.822   8.313  18.835  0.00  0.00    +0.000 A 
ATOM      6  C   UNL     1       2.235   6.986  18.608  0.00  0.00    +0.000 A 
ENDROOT
BRANCH   1  16
ATOM      7  C   UNL     1       1.323   4.099  17.544  0.00  0.00    +0.000 C 
ATOM      8  C   UNL     1       1.867   3.689  18.928  0.00  0.00    +0.000 C 
ATOM      9  C   UNL     1       0.678   3.425  19.873  0.00  0.00    +0.000 C 
ATOM     10  N   UNL     1       2.437   2.350  18.745  0.00  0.00    +0.000 NA
ATOM     11  C   UNL     1       3.711   2.237  18.696  0.00  0.00    +0.000 C 
ATOM     12  N   UNL     1       4.246   1.003  18.531  0.00  0.00    +0.000 N 
ATOM     13  N   UNL     1       4.584   3.266  18.770  0.00  0.00    +0.000 NA
ATOM     14  C   UNL     1       4.133   4.419  19.147  0.00  0.00    +0.000 C 
ATOM     15  N   UNL     1       5.073   5.393  19.300  0.00  0.00    +0.000 N 
ATOM     16  N   UNL     1       2.817   4.720  19.430  0.00  0.00    +0.000 N 
ATOM     17  H   UNL     1       3.588   0.344  18.139  0.00  0.00    +0.000 HD
ATOM     18  H   UNL     1       5.147   1.028  18.076  0.00  0.00    +0.000 HD
ATOM     19  H   UNL     1       6.008   5.003  19.257  0.00  0.00    +0.000 HD
ATOM     20  H   UNL     1       4.935   5.967  20.122  0.00  0.00    +0.000 HD
ENDBRANCH   1  16
BRANCH   5  21
ATOM     21  C   UNL     1       1.888   9.338  17.735  0.00  0.00    +0.000 C 
BRANCH  21  22
ATOM     22  N   UNL     1       2.058  10.667  18.262  0.00  0.00    +0.000 N 
ATOM     23  C   UNL     1       0.950  11.426  18.516  0.00  0.00    +0.000 C 
ATOM     24  O   UNL     1      -0.186  11.025  18.265  0.00  0.00    +0.000 OA
ATOM     25  N   UNL     1       1.202  12.651  19.091  0.00  0.00    +0.000 N 
ATOM     26  C   UNL     1       2.508  13.291  19.259  0.00  0.00    +0.000 C 
ATOM     27  C   UNL     1       2.677  13.740  20.714  0.00  0.00    +0.000 C 
ATOM     28  O   UNL     1       1.599  14.603  21.116  0.00  0.00    +0.000 OA
ATOM     29  C   UNL     1       0.330  13.939  20.982  0.00  0.00    +0.000 C 
ATOM     30  C   UNL     1       0.087  13.488  19.537  0.00  0.00    +0.000 C 
ATOM     31  H   UNL     1       2.801  10.757  18.934  0.00  0.00    +0.000 HD
ENDBRANCH  21  22
ENDBRANCH   5  21
TORSDOF 3
ENDMDL
MODEL 9
REMARK VINA RESULT:      -7.5      0.934      1.838
REMARK  Name = 
REMARK  5 active torsions:
REMARK  status: ('A' for Active; 'I' for Inactive)
REMARK    1  A    between atoms: C_1  and  C_2
REMARK    2  A    between atoms: C_2  and  C_3
REMARK    3  A    between atoms: N_10  and  C_11
REMARK    4  A    between atoms: C_15  and  C_16
REMARK    5  A    between atoms: C_16  and  N_17
REMARK                            x       y       z     vdW  Elec       q    Type
REMARK                         _______ _______ _______ _____ _____    ______ ____
ROOT
ATOM      1  C   UNL     1       2.603   6.210  18.714  0.00  0.00    +0.000 A 
ATOM      2  C   UNL     1       2.693   7.154  17.679  0.00  0.00    +0.000 A 
ATOM      3  C   UNL     1       2.362   8.499  17.869  0.00  0.00    +0.000 A 
ATOM      4  C   UNL     1       1.826   8.920  19.079  0.00  0.00    +0.000 A 
ATOM      5  C   UNL     1       1.617   7.995  20.103  0.00  0.00    +0.000 A 
ATOM      6  C   UNL     1       2.065   6.670  19.932  0.00  0.00    +0.000 A 
ENDROOT
BRANCH   1  16
ATOM      7  C   UNL     1       3.451   4.280  20.887  0.00  0.00    +0.000 C 
ATOM      8  C   UNL     1       3.987   4.263  19.441  0.00  0.00    +0.000 C 
ATOM      9  C   UNL     1       5.354   4.974  19.407  0.00  0.00    +0.000 C 
ATOM     10  N   UNL     1       4.344   2.866  19.170  0.00  0.00    +0.000 NA
ATOM     11  C   UNL     1       3.563   2.176  18.425  0.00  0.00    +0.000 C 
ATOM     12  N   UNL     1       3.886   0.886  18.167  0.00  0.00    +0.000 N 
ATOM     13  N   UNL     1       2.409   2.627  17.885  0.00  0.00    +0.000 NA
ATOM     14  C   UNL     1       2.178   3.901  17.920  0.00  0.00    +0.000 C 
ATOM     15  N   UNL     1       1.050   4.308  17.274  0.00  0.00    +0.000 N 
ATOM     16  N   UNL     1       2.980   4.852  18.515  0.00  0.00    +0.000 N 
ATOM     17  H   UNL     1       4.530   0.505  18.845  0.00  0.00    +0.000 HD
ATOM     18  H   UNL     1       3.077   0.313  17.977  0.00  0.00    +0.000 HD
ATOM     19  H   UNL     1       0.660   3.555  16.718  0.00  0.00    +0.000 HD
ATOM     20  H   UNL     1       1.172   5.158  16.738  0.00  0.00    +0.000 HD
ENDBRANCH   1  16
BRANCH   5  21
ATOM     21  C   UNL     1       0.907   8.409  21.364  0.00  0.00    +0.000 C 
BRANCH  21  22
ATOM     22  N   UNL     1       0.120   9.598  21.160  0.00  0.00    +0.000 N 
ATOM     23  C   UNL     1      -0.219  10.362  22.241  0.00  0.00    +0.000 C 
ATOM     24  O   UNL     1       0.089  10.041  23.388  0.00  0.00    +0.000 OA
ATOM     25  N   UNL     1      -0.903  11.519  21.946  0.00  0.00    +0.000 N 
ATOM     26  C   UNL     1      -1.472  11.897  20.650  0.00  0.00    +0.000 C 
ATOM     27  C   UNL     1      -1.011  13.310  20.280  0.00  0.00    +0.000 C 
ATOM     28  O   UNL     1      -1.351  14.252  21.312  0.00  0.00    +0.000 OA
ATOM     29  C   UNL     1      -0.748  13.882  22.565  0.00  0.00    +0.000 C 
ATOM     30  C   UNL     1      -1.193  12.483  23.007  0.00  0.00    +0.000 C 
ATOM     31  H   UNL     1       0.352  10.113  20.328  0.00  0.00    +0.000 HD
ENDBRANCH  21  22
ENDBRANCH   5  21
TORSDOF 3
ENDMDL
