MODEL 1
REMARK VINA RESULT:      -8.4      0.000      0.000
REMARK  Name = 
REMARK  5 active torsions:
REMARK  status: ('A' for Active; 'I' for Inactive)
REMARK    1  A    between atoms: C_1  and  N_2
REMARK    2  A    between atoms: C_3  and  C_5
REMARK    3  A    between atoms: C_12  and  C_13
REMARK    4  A    between atoms: N_19  and  C_20
REMARK    5  A    between atoms: C_20  and  C_21
REMARK                            x       y       z     vdW  Elec       q    Type
REMARK                         _______ _______ _______ _____ _____    ______ ____
ROOT
ATOM      1  C   UNL     1       4.918   5.472  16.531  0.00  0.00    +0.000 A 
ATOM      2  C   UNL     1       4.324   6.662  16.715  0.00  0.00    +0.000 A 
ATOM      3  C   UNL     1       3.473   6.948  17.857  0.00  0.00    +0.000 A 
ATOM      4  C   UNL     1       2.729   8.237  17.903  0.00  0.00    +0.000 A 
ATOM      5  O   UNL     1       2.831   9.042  16.976  0.00  0.00    +0.000 OA
ATOM      6  N   UNL     1       1.937   8.438  19.020  0.00  0.00    +0.000 N 
ATOM      7  C   UNL     1       1.179   9.600  19.114  0.00  0.00    +0.000 A 
ATOM      8  C   UNL     1       0.395   9.859  20.173  0.00  0.00    +0.000 A 
ATOM      9  C   UNL     1      -0.444  11.093  20.283  0.00  0.00    +0.000 C 
ATOM     10  C   UNL     1       0.355   8.906  21.260  0.00  0.00    +0.000 A 
ATOM     11  C   UNL     1       1.068   7.776  21.208  0.00  0.00    +0.000 A 
ATOM     12  C   UNL     1       1.915   7.483  20.018  0.00  0.00    +0.000 A 
ATOM     13  N   UNL     1       2.572   6.368  19.981  0.00  0.00    +0.000 NA
ATOM     14  C   UNL     1       3.342   6.070  18.878  0.00  0.00    +0.000 A 
ATOM     15  N   UNL     1       4.011   4.822  18.786  0.00  0.00    +0.000 N 
ATOM     16  C   UNL     1       4.671   4.442  17.607  0.00  0.00    +0.000 A 
ATOM     17  N   UNL     1       5.085   3.228  17.369  0.00  0.00    +0.000 NA
ATOM     18  H   UNL     1       4.800   2.595  18.126  0.00  0.00    +0.000 HD
ENDROOT
BRANCH   1  21
ATOM     19  C   UNL     1       5.982   3.892  13.269  0.00  0.00    +0.000 C 
ATOM     20  N   UNL     1       5.357   4.205  14.523  0.00  0.00    +0.000 N 
ATOM     21  C   UNL     1       5.719   5.283  15.282  0.00  0.00    +0.000 C 
ATOM     22  O   UNL     1       6.620   6.055  14.962  0.00  0.00    +0.000 OA
ATOM     23  H   UNL     1       4.646   3.582  14.916  0.00  0.00    +0.000 HD
ENDBRANCH   1  21
BRANCH  15  24
ATOM     24  C   UNL     1       4.120   3.992  19.998  0.00  0.00    +0.000 C 
BRANCH  24  25
ATOM     25  C   UNL     1       2.855   3.403  20.528  0.00  0.00    +0.000 A 
ATOM     26  C   UNL     1       2.403   3.124  21.802  0.00  0.00    +0.000 A 
ATOM     27  C   UNL     1       1.179   2.430  21.650  0.00  0.00    +0.000 A 
ATOM     28  C   UNL     1       0.942   2.362  20.298  0.00  0.00    +0.000 A 
ATOM     29  O   UNL     1       1.950   2.958  19.606  0.00  0.00    +0.000 OA
ENDBRANCH  24  25
ENDBRANCH  15  24
TORSDOF 3
ENDMDL
MODEL 2
REMARK VINA RESULT:      -8.1      1.136      1.306
REMARK  Name = 
REMARK  5 active torsions:
REMARK  status: ('A' for Active; 'I' for Inactive)
REMARK    1  A    between atoms: C_1  and  N_2
REMARK    2  A    between atoms: C_3  and  C_5
REMARK    3  A    between atoms: C_12  and  C_13
REMARK    4  A    between atoms: N_19  and  C_20
REMARK    5  A    between atoms: C_20  and  C_21
REMARK                            x       y       z     vdW  Elec       q    Type
REMARK                         _______ _______ _______ _____ _____    ______ ____
ROOT
ATOM      1  C   UNL     1       4.402   6.370  16.954  0.00  0.00    +0.000 A 
ATOM      2  C   UNL     1       3.751   7.531  17.133  0.00  0.00    +0.000 A 
ATOM      3  C   UNL     1       2.872   7.774  18.264  0.00  0.00    +0.000 A 
ATOM      4  C   UNL     1       2.068   9.027  18.302  0.00  0.00    +0.000 A 
ATOM      5  O   UNL     1       2.145   9.839  17.379  0.00  0.00    +0.000 OA
ATOM      6  N   UNL     1       1.252   9.188  19.408  0.00  0.00    +0.000 N 
ATOM      7  C   UNL     1       0.439  10.313  19.494  0.00  0.00    +0.000 A 
ATOM      8  C   UNL     1      -0.370  10.532  20.543  0.00  0.00    +0.000 A 
ATOM      9  C   UNL     1      -1.267  11.725  20.644  0.00  0.00    +0.000 C 
ATOM     10  C   UNL     1      -0.381   9.575  21.627  0.00  0.00    +0.000 A 
ATOM     11  C   UNL     1       0.385   8.479  21.582  0.00  0.00    +0.000 A 
ATOM     12  C   UNL     1       1.261   8.230  20.403  0.00  0.00    +0.000 A 
ATOM     13  N   UNL     1       1.969   7.146  20.374  0.00  0.00    +0.000 NA
ATOM     14  C   UNL     1       2.768   6.888  19.280  0.00  0.00    +0.000 A 
ATOM     15  N   UNL     1       3.495   5.673  19.195  0.00  0.00    +0.000 N 
ATOM     16  C   UNL     1       4.188   5.327  18.024  0.00  0.00    +0.000 A 
ATOM     17  N   UNL     1       4.662   4.134  17.790  0.00  0.00    +0.000 NA
ATOM     18  H   UNL     1       4.396   3.486  18.540  0.00  0.00    +0.000 HD
ENDROOT
BRANCH   1  21
ATOM     19  C   UNL     1       6.871   4.792  14.570  0.00  0.00    +0.000 C 
ATOM     20  N   UNL     1       6.040   5.124  15.694  0.00  0.00    +0.000 N 
ATOM     21  C   UNL     1       5.228   6.223  15.716  0.00  0.00    +0.000 C 
ATOM     22  O   UNL     1       5.161   7.025  14.788  0.00  0.00    +0.000 OA
ATOM     23  H   UNL     1       6.079   4.561  16.548  0.00  0.00    +0.000 HD
ENDBRANCH   1  21
BRANCH  15  24
ATOM     24  C   UNL     1       3.626   4.845  20.406  0.00  0.00    +0.000 C 
BRANCH  24  25
ATOM     25  C   UNL     1       2.546   3.847  20.661  0.00  0.00    +0.000 A 
ATOM     26  C   UNL     1       1.451   3.431  19.930  0.00  0.00    +0.000 A 
ATOM     27  C   UNL     1       0.713   2.564  20.772  0.00  0.00    +0.000 A 
ATOM     28  C   UNL     1       1.423   2.475  21.946  0.00  0.00    +0.000 A 
ATOM     29  O   UNL     1       2.542   3.244  21.887  0.00  0.00    +0.000 OA
ENDBRANCH  24  25
ENDBRANCH  15  24
TORSDOF 3
ENDMDL
MODEL 3
REMARK VINA RESULT:      -8.0      4.243      9.420
REMARK  Name = 
REMARK  5 active torsions:
REMARK  status: ('A' for Active; 'I' for Inactive)
REMARK    1  A    between atoms: C_1  and  N_2
REMARK    2  A    between atoms: C_3  and  C_5
REMARK    3  A    between atoms: C_12  and  C_13
REMARK    4  A    between atoms: N_19  and  C_20
REMARK    5  A    between atoms: C_20  and  C_21
REMARK                            x       y       z     vdW  Elec       q    Type
REMARK                         _______ _______ _______ _____ _____    ______ ____
ROOT
ATOM      1  C   UNL     1      -1.699  11.964  21.879  0.00  0.00    +0.000 A 
ATOM      2  C   UNL     1      -0.734  11.048  22.061  0.00  0.00    +0.000 A 
ATOM      3  C   UNL     1      -0.128  10.317  20.962  0.00  0.00    +0.000 A 
ATOM      4  C   UNL     1       0.821   9.209  21.264  0.00  0.00    +0.000 A 
ATOM      5  O   UNL     1       1.077   8.917  22.434  0.00  0.00    +0.000 OA
ATOM      6  N   UNL     1       1.356   8.556  20.168  0.00  0.00    +0.000 N 
ATOM      7  C   UNL     1       2.217   7.483  20.371  0.00  0.00    +0.000 A 
ATOM      8  C   UNL     1       2.776   6.811  19.352  0.00  0.00    +0.000 A 
ATOM      9  C   UNL     1       3.688   5.641  19.549  0.00  0.00    +0.000 C 
ATOM     10  C   UNL     1       2.486   7.231  17.998  0.00  0.00    +0.000 A 
ATOM     11  C   UNL     1       1.662   8.257  17.760  0.00  0.00    +0.000 A 
ATOM     12  C   UNL     1       1.026   8.981  18.896  0.00  0.00    +0.000 A 
ATOM     13  N   UNL     1       0.209   9.952  18.635  0.00  0.00    +0.000 NA
ATOM     14  C   UNL     1      -0.406  10.617  19.674  0.00  0.00    +0.000 A 
ATOM     15  N   UNL     1      -1.359  11.635  19.408  0.00  0.00    +0.000 N 
ATOM     16  C   UNL     1      -2.105  12.213  20.447  0.00  0.00    +0.000 A 
ATOM     17  N   UNL     1      -3.156  12.962  20.252  0.00  0.00    +0.000 NA
ATOM     18  H   UNL     1      -3.389  13.003  19.253  0.00  0.00    +0.000 HD
ENDROOT
BRANCH   1  21
ATOM     19  C   UNL     1      -4.208  12.583  24.635  0.00  0.00    +0.000 C 
ATOM     20  N   UNL     1      -3.511  12.123  23.466  0.00  0.00    +0.000 N 
ATOM     21  C   UNL     1      -2.286  12.604  23.097  0.00  0.00    +0.000 C 
ATOM     22  O   UNL     1      -1.694  13.481  23.722  0.00  0.00    +0.000 OA
ATOM     23  H   UNL     1      -3.951  11.447  22.835  0.00  0.00    +0.000 HD
ENDBRANCH   1  21
BRANCH  15  24
ATOM     24  C   UNL     1      -1.451  12.172  18.039  0.00  0.00    +0.000 C 
BRANCH  24  25
ATOM     25  C   UNL     1      -2.470  11.555  17.140  0.00  0.00    +0.000 A 
ATOM     26  C   UNL     1      -2.381  10.819  15.975  0.00  0.00    +0.000 A 
ATOM     27  C   UNL     1      -3.707  10.644  15.510  0.00  0.00    +0.000 A 
ATOM     28  C   UNL     1      -4.521  11.248  16.438  0.00  0.00    +0.000 A 
ATOM     29  O   UNL     1      -3.781  11.798  17.437  0.00  0.00    +0.000 OA
ENDBRANCH  24  25
ENDBRANCH  15  24
TORSDOF 3
ENDMDL
MODEL 4
REMARK VINA RESULT:      -7.8      1.426      1.960
REMARK  Name = 
REMARK  5 active torsions:
REMARK  status: ('A' for Active; 'I' for Inactive)
REMARK    1  A    between atoms: C_1  and  N_2
REMARK    2  A    between atoms: C_3  and  C_5
REMARK    3  A    between atoms: C_12  and  C_13
REMARK    4  A    between atoms: N_19  and  C_20
REMARK    5  A    between atoms: C_20  and  C_21
REMARK                            x       y       z     vdW  Elec       q    Type
REMARK                         _______ _______ _______ _____ _____    ______ ____
ROOT
ATOM      1  C   UNL     1       4.085   6.748  17.429  0.00  0.00    +0.000 A 
ATOM      2  C   UNL     1       3.578   7.992  17.401  0.00  0.00    +0.000 A 
ATOM      3  C   UNL     1       2.585   8.458  18.352  0.00  0.00    +0.000 A 
ATOM      4  C   UNL     1       1.962   9.796  18.154  0.00  0.00    +0.000 A 
ATOM      5  O   UNL     1       2.284  10.490  17.188  0.00  0.00    +0.000 OA
ATOM      6  N   UNL     1       1.022  10.171  19.098  0.00  0.00    +0.000 N 
ATOM      7  C   UNL     1       0.367  11.389  18.956  0.00  0.00    +0.000 A 
ATOM      8  C   UNL     1      -0.550  11.816  19.839  0.00  0.00    +0.000 A 
ATOM      9  C   UNL     1      -1.282  13.113  19.693  0.00  0.00    +0.000 C 
ATOM     10  C   UNL     1      -0.851  10.987  20.986  0.00  0.00    +0.000 A 
ATOM     11  C   UNL     1      -0.244   9.808  21.158  0.00  0.00    +0.000 A 
ATOM     12  C   UNL     1       0.754   9.331  20.160  0.00  0.00    +0.000 A 
ATOM     13  N   UNL     1       1.304   8.172  20.337  0.00  0.00    +0.000 NA
ATOM     14  C   UNL     1       2.212   7.704  19.411  0.00  0.00    +0.000 A 
ATOM     15  N   UNL     1       2.772   6.407  19.548  0.00  0.00    +0.000 N 
ATOM     16  C   UNL     1       3.575   5.858  18.537  0.00  0.00    +0.000 A 
ATOM     17  N   UNL     1       3.911   4.598  18.484  0.00  0.00    +0.000 NA
ATOM     18  H   UNL     1       3.452   4.071  19.236  0.00  0.00    +0.000 HD
ENDROOT
BRANCH   1  21
ATOM     19  C   UNL     1       6.966   4.917  15.813  0.00  0.00    +0.000 C 
ATOM     20  N   UNL     1       5.982   5.435  16.722  0.00  0.00    +0.000 N 
ATOM     21  C   UNL     1       5.056   6.371  16.356  0.00  0.00    +0.000 C 
ATOM     22  O   UNL     1       5.004   6.858  15.229  0.00  0.00    +0.000 OA
ATOM     23  H   UNL     1       5.987   5.150  17.705  0.00  0.00    +0.000 HD
ENDBRANCH   1  21
BRANCH  15  24
ATOM     24  C   UNL     1       2.609   5.703  20.831  0.00  0.00    +0.000 C 
BRANCH  24  25
ATOM     25  C   UNL     1       1.948   4.365  20.787  0.00  0.00    +0.000 A 
ATOM     26  C   UNL     1       2.046   3.235  21.573  0.00  0.00    +0.000 A 
ATOM     27  C   UNL     1       1.276   2.233  20.935  0.00  0.00    +0.000 A 
ATOM     28  C   UNL     1       0.725   2.825  19.822  0.00  0.00    +0.000 A 
ATOM     29  O   UNL     1       1.120   4.123  19.727  0.00  0.00    +0.000 OA
ENDBRANCH  24  25
ENDBRANCH  15  24
TORSDOF 3
ENDMDL
MODEL 5
REMARK VINA RESULT:      -7.8      1.028      1.158
REMARK  Name = 
REMARK  5 active torsions:
REMARK  status: ('A' for Active; 'I' for Inactive)
REMARK    1  A    between atoms: C_1  and  N_2
REMARK    2  A    between atoms: C_3  and  C_5
REMARK    3  A    between atoms: C_12  and  C_13
REMARK    4  A    between atoms: N_19  and  C_20
REMARK    5  A    between atoms: C_20  and  C_21
REMARK                            x       y       z     vdW  Elec       q    Type
REMARK                         _______ _______ _______ _____ _____    ______ ____
ROOT
ATOM      1  C   UNL     1       5.040   5.158  16.190  0.00  0.00    +0.000 A 
ATOM      2  C   UNL     1       4.491   6.356  16.450  0.00  0.00    +0.000 A 
ATOM      3  C   UNL     1       3.683   6.612  17.630  0.00  0.00    +0.000 A 
ATOM      4  C   UNL     1       2.983   7.920  17.760  0.00  0.00    +0.000 A 
ATOM      5  O   UNL     1       3.086   8.767  16.871  0.00  0.00    +0.000 OA
ATOM      6  N   UNL     1       2.231   8.091  18.908  0.00  0.00    +0.000 N 
ATOM      7  C   UNL     1       1.514   9.271  19.081  0.00  0.00    +0.000 A 
ATOM      8  C   UNL     1       0.770   9.502  20.174  0.00  0.00    +0.000 A 
ATOM      9  C   UNL     1      -0.025  10.755  20.369  0.00  0.00    +0.000 C 
ATOM     10  C   UNL     1       0.729   8.498  21.215  0.00  0.00    +0.000 A 
ATOM     11  C   UNL     1       1.402   7.350  21.087  0.00  0.00    +0.000 A 
ATOM     12  C   UNL     1       2.205   7.090  19.859  0.00  0.00    +0.000 A 
ATOM     13  N   UNL     1       2.823   5.957  19.749  0.00  0.00    +0.000 NA
ATOM     14  C   UNL     1       3.551   5.690  18.610  0.00  0.00    +0.000 A 
ATOM     15  N   UNL     1       4.176   4.427  18.438  0.00  0.00    +0.000 N 
ATOM     16  C   UNL     1       4.789   4.085  17.222  0.00  0.00    +0.000 A 
ATOM     17  N   UNL     1       5.156   2.871  16.914  0.00  0.00    +0.000 NA
ATOM     18  H   UNL     1       4.872   2.211  17.647  0.00  0.00    +0.000 HD
ENDROOT
BRANCH   1  21
ATOM     19  C   UNL     1       7.922   5.517  13.775  0.00  0.00    +0.000 C 
ATOM     20  N   UNL     1       7.032   5.597  14.900  0.00  0.00    +0.000 N 
ATOM     21  C   UNL     1       5.799   5.006  14.911  0.00  0.00    +0.000 C 
ATOM     22  O   UNL     1       5.347   4.381  13.955  0.00  0.00    +0.000 OA
ATOM     23  H   UNL     1       7.282   6.158  15.718  0.00  0.00    +0.000 HD
ENDBRANCH   1  21
BRANCH  15  24
ATOM     24  C   UNL     1       4.292   3.535  19.604  0.00  0.00    +0.000 C 
BRANCH  24  25
ATOM     25  C   UNL     1       3.020   2.992  20.167  0.00  0.00    +0.000 A 
ATOM     26  C   UNL     1       1.880   2.468  19.593  0.00  0.00    +0.000 A 
ATOM     27  C   UNL     1       0.957   2.264  20.648  0.00  0.00    +0.000 A 
ATOM     28  C   UNL     1       1.605   2.640  21.801  0.00  0.00    +0.000 A 
ATOM     29  O   UNL     1       2.862   3.076  21.521  0.00  0.00    +0.000 OA
ENDBRANCH  24  25
ENDBRANCH  15  24
TORSDOF 3
ENDMDL
MODEL 6
REMARK VINA RESULT:      -7.8      4.333     10.009
REMARK  Name = 
REMARK  5 active torsions:
REMARK  status: ('A' for Active; 'I' for Inactive)
REMARK    1  A    between atoms: C_1  and  N_2
REMARK    2  A    between atoms: C_3  and  C_5
REMARK    3  A    between atoms: C_12  and  C_13
REMARK    4  A    between atoms: N_19  and  C_20
REMARK    5  A    between atoms: C_20  and  C_21
REMARK                            x       y       z     vdW  Elec       q    Type
REMARK                         _______ _______ _______ _____ _____    ______ ____
ROOT
ATOM      1  C   UNL     1      -1.656  12.314  22.035  0.00  0.00    +0.000 A 
ATOM      2  C   UNL     1      -0.880  11.229  22.186  0.00  0.00    +0.000 A 
ATOM      3  C   UNL     1      -0.161  10.616  21.083  0.00  0.00    +0.000 A 
ATOM      4  C   UNL     1       0.549   9.326  21.307  0.00  0.00    +0.000 A 
ATOM      5  O   UNL     1       0.516   8.787  22.415  0.00  0.00    +0.000 OA
ATOM      6  N   UNL     1       1.208   8.801  20.210  0.00  0.00    +0.000 N 
ATOM      7  C   UNL     1       1.859   7.578  20.331  0.00  0.00    +0.000 A 
ATOM      8  C   UNL     1       2.522   7.016  19.308  0.00  0.00    +0.000 A 
ATOM      9  C   UNL     1       3.210   5.691  19.411  0.00  0.00    +0.000 C 
ATOM     10  C   UNL     1       2.577   7.717  18.044  0.00  0.00    +0.000 A 
ATOM     11  C   UNL     1       1.964   8.895  17.886  0.00  0.00    +0.000 A 
ATOM     12  C   UNL     1       1.208   9.499  19.019  0.00  0.00    +0.000 A 
ATOM     13  N   UNL     1       0.598  10.626  18.828  0.00  0.00    +0.000 NA
ATOM     14  C   UNL     1      -0.125  11.188  19.859  0.00  0.00    +0.000 A 
ATOM     15  N   UNL     1      -0.858  12.385  19.650  0.00  0.00    +0.000 N 
ATOM     16  C   UNL     1      -1.720  12.884  20.639  0.00  0.00    +0.000 A 
ATOM     17  N   UNL     1      -2.600  13.824  20.423  0.00  0.00    +0.000 NA
ATOM     18  H   UNL     1      -2.613  14.085  19.431  0.00  0.00    +0.000 HD
ENDROOT
BRANCH   1  21
ATOM     19  C   UNL     1      -4.359  12.443  24.672  0.00  0.00    +0.000 C 
ATOM     20  N   UNL     1      -3.544  12.137  23.529  0.00  0.00    +0.000 N 
ATOM     21  C   UNL     1      -2.392  12.813  23.237  0.00  0.00    +0.000 C 
ATOM     22  O   UNL     1      -1.975  13.748  23.916  0.00  0.00    +0.000 OA
ATOM     23  H   UNL     1      -3.843  11.423  22.858  0.00  0.00    +0.000 HD
ENDBRANCH   1  21
BRANCH  15  24
ATOM     24  C   UNL     1      -0.594  13.169  18.431  0.00  0.00    +0.000 C 
BRANCH  24  25
ATOM     25  C   UNL     1       0.269  14.377  18.580  0.00  0.00    +0.000 A 
ATOM     26  C   UNL     1       1.630  14.556  18.723  0.00  0.00    +0.000 A 
ATOM     27  C   UNL     1       1.830  15.936  18.970  0.00  0.00    +0.000 A 
ATOM     28  C   UNL     1       0.585  16.517  18.925  0.00  0.00    +0.000 A 
ATOM     29  O   UNL     1      -0.371  15.581  18.680  0.00  0.00    +0.000 OA
ENDBRANCH  24  25
ENDBRANCH  15  24
TORSDOF 3
ENDMDL
MODEL 7
REMARK VINA RESULT:      -7.7      4.326     10.064
REMARK  Name = 
REMARK  5 active torsions:
REMARK  status: ('A' for Active; 'I' for Inactive)
REMARK    1  A    between atoms: C_1  and  N_2
REMARK    2  A    between atoms: C_3  and  C_5
REMARK    3  A    between atoms: C_12  and  C_13
REMARK    4  A    between atoms: N_19  and  C_20
REMARK    5  A    between atoms: C_20  and  C_21
REMARK                            x       y       z     vdW  Elec       q    Type
REMARK                         _______ _______ _______ _____ _____    ______ ____
ROOT
ATOM      1  C   UNL     1      -1.890  12.207  22.043  0.00  0.00    +0.000 A 
ATOM      2  C   UNL     1      -1.071  11.152  22.178  0.00  0.00    +0.000 A 
ATOM      3  C   UNL     1      -0.312  10.599  21.070  0.00  0.00    +0.000 A 
ATOM      4  C   UNL     1       0.449   9.334  21.271  0.00  0.00    +0.000 A 
ATOM      5  O   UNL     1       0.423   8.765  22.364  0.00  0.00    +0.000 OA
ATOM      6  N   UNL     1       1.146   8.866  20.172  0.00  0.00    +0.000 N 
ATOM      7  C   UNL     1       1.845   7.669  20.271  0.00  0.00    +0.000 A 
ATOM      8  C   UNL     1       2.546   7.163  19.243  0.00  0.00    +0.000 A 
ATOM      9  C   UNL     1       3.288   5.865  19.323  0.00  0.00    +0.000 C 
ATOM     10  C   UNL     1       2.590   7.899  17.999  0.00  0.00    +0.000 A 
ATOM     11  C   UNL     1       1.930   9.054  17.863  0.00  0.00    +0.000 A 
ATOM     12  C   UNL     1       1.133   9.596  18.999  0.00  0.00    +0.000 A 
ATOM     13  N   UNL     1       0.480  10.701  18.829  0.00  0.00    +0.000 NA
ATOM     14  C   UNL     1      -0.281  11.205  19.862  0.00  0.00    +0.000 A 
ATOM     15  N   UNL     1      -1.061  12.375  19.673  0.00  0.00    +0.000 N 
ATOM     16  C   UNL     1      -1.958  12.812  20.661  0.00  0.00    +0.000 A 
ATOM     17  N   UNL     1      -2.873  13.719  20.456  0.00  0.00    +0.000 NA
ATOM     18  H   UNL     1      -2.883  14.006  19.471  0.00  0.00    +0.000 HD
ENDROOT
BRANCH   1  21
ATOM     19  C   UNL     1      -3.117  14.538  24.751  0.00  0.00    +0.000 C 
ATOM     20  N   UNL     1      -2.432  13.930  23.644  0.00  0.00    +0.000 N 
ATOM     21  C   UNL     1      -2.664  12.643  23.246  0.00  0.00    +0.000 C 
ATOM     22  O   UNL     1      -3.458  11.899  23.815  0.00  0.00    +0.000 OA
ATOM     23  H   UNL     1      -1.695  14.441  23.149  0.00  0.00    +0.000 HD
ENDBRANCH   1  21
BRANCH  15  24
ATOM     24  C   UNL     1      -0.813  13.201  18.479  0.00  0.00    +0.000 C 
BRANCH  24  25
ATOM     25  C   UNL     1       0.078  14.387  18.653  0.00  0.00    +0.000 A 
ATOM     26  C   UNL     1      -0.163  15.740  18.781  0.00  0.00    +0.000 A 
ATOM     27  C   UNL     1       1.103  16.375  18.764  0.00  0.00    +0.000 A 
ATOM     28  C   UNL     1       2.035  15.369  18.667  0.00  0.00    +0.000 A 
ATOM     29  O   UNL     1       1.424  14.156  18.607  0.00  0.00    +0.000 OA
ENDBRANCH  24  25
ENDBRANCH  15  24
TORSDOF 3
ENDMDL
MODEL 8
REMARK VINA RESULT:      -7.5      1.883      4.828
REMARK  Name = 
REMARK  5 active torsions:
REMARK  status: ('A' for Active; 'I' for Inactive)
REMARK    1  A    between atoms: C_1  and  N_2
REMARK    2  A    between atoms: C_3  and  C_5
REMARK    3  A    between atoms: C_12  and  C_13
REMARK    4  A    between atoms: N_19  and  C_20
REMARK    5  A    between atoms: C_20  and  C_21
REMARK                            x       y       z     vdW  Elec       q    Type
REMARK                         _______ _______ _______ _____ _____    ______ ____
ROOT
ATOM      1  C   UNL     1       4.116   3.858  18.810  0.00  0.00    +0.000 A 
ATOM      2  C   UNL     1       3.116   4.577  19.346  0.00  0.00    +0.000 A 
ATOM      3  C   UNL     1       2.895   5.976  19.026  0.00  0.00    +0.000 A 
ATOM      4  C   UNL     1       1.864   6.739  19.782  0.00  0.00    +0.000 A 
ATOM      5  O   UNL     1       1.216   6.186  20.673  0.00  0.00    +0.000 OA
ATOM      6  N   UNL     1       1.710   8.067  19.424  0.00  0.00    +0.000 N 
ATOM      7  C   UNL     1       0.796   8.855  20.115  0.00  0.00    +0.000 A 
ATOM      8  C   UNL     1       0.595  10.148  19.814  0.00  0.00    +0.000 A 
ATOM      9  C   UNL     1      -0.369  11.018  20.559  0.00  0.00    +0.000 C 
ATOM     10  C   UNL     1       1.341  10.733  18.722  0.00  0.00    +0.000 A 
ATOM     11  C   UNL     1       2.231  10.010  18.034  0.00  0.00    +0.000 A 
ATOM     12  C   UNL     1       2.467   8.583  18.391  0.00  0.00    +0.000 A 
ATOM     13  N   UNL     1       3.356   7.916  17.727  0.00  0.00    +0.000 NA
ATOM     14  C   UNL     1       3.604   6.601  18.059  0.00  0.00    +0.000 A 
ATOM     15  N   UNL     1       4.624   5.874  17.392  0.00  0.00    +0.000 N 
ATOM     16  C   UNL     1       4.992   4.589  17.821  0.00  0.00    +0.000 A 
ATOM     17  N   UNL     1       6.072   3.975  17.421  0.00  0.00    +0.000 NA
ATOM     18  H   UNL     1       6.631   4.586  16.815  0.00  0.00    +0.000 HD
ENDROOT
BRANCH   1  21
ATOM     19  C   UNL     1       5.336   0.997  20.953  0.00  0.00    +0.000 C 
ATOM     20  N   UNL     1       5.099   2.277  20.345  0.00  0.00    +0.000 N 
ATOM     21  C   UNL     1       4.275   2.443  19.268  0.00  0.00    +0.000 C 
ATOM     22  O   UNL     1       3.690   1.511  18.721  0.00  0.00    +0.000 OA
ATOM     23  H   UNL     1       5.597   3.107  20.679  0.00  0.00    +0.000 HD
ENDBRANCH   1  21
BRANCH  15  24
ATOM     24  C   UNL     1       5.194   6.434  16.155  0.00  0.00    +0.000 C 
BRANCH  24  25
ATOM     25  C   UNL     1       5.606   5.461  15.100  0.00  0.00    +0.000 A 
ATOM     26  C   UNL     1       4.925   4.497  14.386  0.00  0.00    +0.000 A 
ATOM     27  C   UNL     1       5.898   3.793  13.635  0.00  0.00    +0.000 A 
ATOM     28  C   UNL     1       7.103   4.396  13.908  0.00  0.00    +0.000 A 
ATOM     29  O   UNL     1       6.936   5.416  14.791  0.00  0.00    +0.000 OA
ENDBRANCH  24  25
ENDBRANCH  15  24
TORSDOF 3
ENDMDL
MODEL 9
REMARK VINA RESULT:      -7.3      5.862      9.707
REMARK  Name = 
REMARK  5 active torsions:
REMARK  status: ('A' for Active; 'I' for Inactive)
REMARK    1  A    between atoms: C_1  and  N_2
REMARK    2  A    between atoms: C_3  and  C_5
REMARK    3  A    between atoms: C_12  and  C_13
REMARK    4  A    between atoms: N_19  and  C_20
REMARK    5  A    between atoms: C_20  and  C_21
REMARK                            x       y       z     vdW  Elec       q    Type
REMARK                         _______ _______ _______ _____ _____    ______ ____
ROOT
ATOM      1  C   UNL     1      -1.817  11.246  18.879  0.00  0.00    +0.000 A 
ATOM      2  C   UNL     1      -1.320  11.603  20.074  0.00  0.00    +0.000 A 
ATOM      3  C   UNL     1      -2.003  12.523  20.967  0.00  0.00    +0.000 A 
ATOM      4  C   UNL     1      -1.310  12.986  22.201  0.00  0.00    +0.000 A 
ATOM      5  O   UNL     1      -0.168  12.596  22.451  0.00  0.00    +0.000 OA
ATOM      6  N   UNL     1      -2.021  13.864  23.001  0.00  0.00    +0.000 N 
ATOM      7  C   UNL     1      -1.423  14.373  24.148  0.00  0.00    +0.000 A 
ATOM      8  C   UNL     1      -2.060  15.222  24.970  0.00  0.00    +0.000 A 
ATOM      9  C   UNL     1      -1.427  15.797  26.198  0.00  0.00    +0.000 C 
ATOM     10  C   UNL     1      -3.420  15.604  24.660  0.00  0.00    +0.000 A 
ATOM     11  C   UNL     1      -4.031  15.138  23.565  0.00  0.00    +0.000 A 
ATOM     12  C   UNL     1      -3.308  14.216  22.644  0.00  0.00    +0.000 A 
ATOM     13  N   UNL     1      -3.914  13.804  21.576  0.00  0.00    +0.000 NA
ATOM     14  C   UNL     1      -3.252  12.969  20.702  0.00  0.00    +0.000 A 
ATOM     15  N   UNL     1      -3.871  12.564  19.491  0.00  0.00    +0.000 N 
ATOM     16  C   UNL     1      -3.156  11.843  18.521  0.00  0.00    +0.000 A 
ATOM     17  N   UNL     1      -3.579  11.659  17.300  0.00  0.00    +0.000 NA
ATOM     18  H   UNL     1      -4.456  12.168  17.141  0.00  0.00    +0.000 HD
ENDROOT
BRANCH   1  21
ATOM     19  C   UNL     1       1.262   9.386  17.726  0.00  0.00    +0.000 C 
ATOM     20  N   UNL     1       0.325  10.243  18.397  0.00  0.00    +0.000 N 
ATOM     21  C   UNL     1      -0.987  10.340  18.027  0.00  0.00    +0.000 C 
ATOM     22  O   UNL     1      -1.463   9.719  17.080  0.00  0.00    +0.000 OA
ATOM     23  H   UNL     1       0.638  10.860  19.152  0.00  0.00    +0.000 HD
ENDBRANCH   1  21
BRANCH  15  24
ATOM     24  C   UNL     1      -5.317  12.793  19.329  0.00  0.00    +0.000 C 
BRANCH  24  25
ATOM     25  C   UNL     1      -6.222  11.653  19.660  0.00  0.00    +0.000 A 
ATOM     26  C   UNL     1      -7.064  11.392  20.723  0.00  0.00    +0.000 A 
ATOM     27  C   UNL     1      -7.543  10.072  20.539  0.00  0.00    +0.000 A 
ATOM     28  C   UNL     1      -6.996   9.627  19.359  0.00  0.00    +0.000 A 
ATOM     29  O   UNL     1      -6.198  10.582  18.812  0.00  0.00    +0.000 OA
ENDBRANCH  24  25
ENDBRANCH  15  24
TORSDOF 3
ENDMDL
