MODEL 1
REMARK VINA RESULT:      -7.7      0.000      0.000
REMARK  Name = 
REMARK  6 active torsions:
REMARK  status: ('A' for Active; 'I' for Inactive)
REMARK    1  A    between atoms: C_1  and  C_2
REMARK    2  A    between atoms: N_8  and  C_9
REMARK    3  A    between atoms: C_9  and  C_10
REMARK    4  A    between atoms: C_10  and  C_11
REMARK    5  A    between atoms: N_13  and  C_14
REMARK    6  A    between atoms: C_19  and  C_20
REMARK                            x       y       z     vdW  Elec       q    Type
REMARK                         _______ _______ _______ _____ _____    ______ ____
ROOT
ATOM      1  C   UNL     1       3.794   7.493  18.102  0.00  0.00    +0.000 C 
ENDROOT
BRANCH   1   9
ATOM      2  C   UNL     1       0.785   3.661  20.195  0.00  0.00    +0.000 C 
ATOM      3  C   UNL     1       1.817   3.714  19.106  0.00  0.00    +0.000 A 
ATOM      4  C   UNL     1       2.170   2.554  18.413  0.00  0.00    +0.000 A 
ATOM      5  C   UNL     1       3.167   2.603  17.442  0.00  0.00    +0.000 A 
ATOM      6  C   UNL     1       3.811   3.809  17.158  0.00  0.00    +0.000 A 
ATOM      7  C   UNL     1       3.468   4.994  17.832  0.00  0.00    +0.000 A 
ATOM      8  C   UNL     1       2.461   4.928  18.806  0.00  0.00    +0.000 A 
ATOM      9  N   UNL     1       4.184   6.195  17.551  0.00  0.00    +0.000 N 
ATOM     10  C   UNL     1       5.206   6.172  16.605  0.00  0.00    +0.000 C 
ATOM     11  O   UNL     1       6.010   7.089  16.441  0.00  0.00    +0.000 OA
ATOM     12  C   UNL     1       5.152   4.973  15.668  0.00  0.00    +0.000 C 
ATOM     13  O   UNL     1       4.802   3.722  16.218  0.00  0.00    +0.000 OA
ENDBRANCH   1   9
BRANCH   1  14
ATOM     14  C   UNL     1       2.605   8.187  17.429  0.00  0.00    +0.000 C 
BRANCH  14  15
ATOM     15  C   UNL     1       1.704   8.765  18.513  0.00  0.00    +0.000 C 
ATOM     16  O   UNL     1       1.723   8.345  19.669  0.00  0.00    +0.000 OA
ATOM     17  N   UNL     1       0.879   9.807  18.122  0.00  0.00    +0.000 N 
ATOM     18  H   UNL     1       1.059  10.260  17.233  0.00  0.00    +0.000 HD
BRANCH  17  19
ATOM     19  C   UNL     1       0.093  10.524  19.133  0.00  0.00    +0.000 C 
ATOM     20  C   UNL     1       0.926  11.664  19.746  0.00  0.00    +0.000 C 
ATOM     21  C   UNL     1       1.050  12.861  18.806  0.00  0.00    +0.000 C 
ATOM     22  C   UNL     1      -0.323  13.389  18.407  0.00  0.00    +0.000 C 
ATOM     23  C   UNL     1      -1.170  12.299  17.758  0.00  0.00    +0.000 C 
ATOM     24  C   UNL     1      -1.278  11.051  18.645  0.00  0.00    +0.000 C 
ATOM     25  C   UNL     1      -2.129   9.978  17.968  0.00  0.00    +0.000 C 
ENDBRANCH  17  19
ENDBRANCH  14  15
ENDBRANCH   1  14
TORSDOF 4
ENDMDL
MODEL 2
REMARK VINA RESULT:      -7.4      2.180      8.032
REMARK  Name = 
REMARK  6 active torsions:
REMARK  status: ('A' for Active; 'I' for Inactive)
REMARK    1  A    between atoms: C_1  and  C_2
REMARK    2  A    between atoms: N_8  and  C_9
REMARK    3  A    between atoms: C_9  and  C_10
REMARK    4  A    between atoms: C_10  and  C_11
REMARK    5  A    between atoms: N_13  and  C_14
REMARK    6  A    between atoms: C_19  and  C_20
REMARK                            x       y       z     vdW  Elec       q    Type
REMARK                         _______ _______ _______ _____ _____    ______ ____
ROOT
ATOM      1  C   UNL     1       1.345  10.364  18.959  0.00  0.00    +0.000 C 
ENDROOT
BRANCH   1   9
ATOM      2  C   UNL     1      -2.748   9.867  15.625  0.00  0.00    +0.000 C 
ATOM      3  C   UNL     1      -2.563  10.482  16.982  0.00  0.00    +0.000 A 
ATOM      4  C   UNL     1      -3.632  11.114  17.621  0.00  0.00    +0.000 A 
ATOM      5  C   UNL     1      -3.437  11.728  18.856  0.00  0.00    +0.000 A 
ATOM      6  C   UNL     1      -2.177  11.711  19.457  0.00  0.00    +0.000 A 
ATOM      7  C   UNL     1      -1.085  11.072  18.841  0.00  0.00    +0.000 A 
ATOM      8  C   UNL     1      -1.299  10.457  17.599  0.00  0.00    +0.000 A 
ATOM      9  N   UNL     1       0.198  11.121  19.461  0.00  0.00    +0.000 N 
ATOM     10  C   UNL     1       0.343  11.794  20.672  0.00  0.00    +0.000 C 
ATOM     11  O   UNL     1       1.431  12.067  21.179  0.00  0.00    +0.000 OA
ATOM     12  C   UNL     1      -0.969  12.028  21.409  0.00  0.00    +0.000 C 
ATOM     13  O   UNL     1      -2.099  12.385  20.645  0.00  0.00    +0.000 OA
ENDBRANCH   1   9
BRANCH   1  14
ATOM     14  C   UNL     1       1.487   8.927  19.472  0.00  0.00    +0.000 C 
BRANCH  14  15
ATOM     15  C   UNL     1       2.120   8.082  18.374  0.00  0.00    +0.000 C 
ATOM     16  O   UNL     1       2.273   8.507  17.230  0.00  0.00    +0.000 OA
ATOM     17  N   UNL     1       2.532   6.813  18.748  0.00  0.00    +0.000 N 
ATOM     18  H   UNL     1       2.589   6.594  19.736  0.00  0.00    +0.000 HD
BRANCH  17  19
ATOM     19  C   UNL     1       3.289   5.990  17.798  0.00  0.00    +0.000 C 
ATOM     20  C   UNL     1       4.801   6.150  18.040  0.00  0.00    +0.000 C 
ATOM     21  C   UNL     1       5.273   5.388  19.276  0.00  0.00    +0.000 C 
ATOM     22  C   UNL     1       4.926   3.907  19.173  0.00  0.00    +0.000 C 
ATOM     23  C   UNL     1       3.428   3.700  18.972  0.00  0.00    +0.000 C 
ATOM     24  C   UNL     1       2.896   4.493  17.769  0.00  0.00    +0.000 C 
ATOM     25  C   UNL     1       1.396   4.268  17.595  0.00  0.00    +0.000 C 
ENDBRANCH  17  19
ENDBRANCH  14  15
ENDBRANCH   1  14
TORSDOF 4
ENDMDL
MODEL 3
REMARK VINA RESULT:      -7.3      1.448      3.184
REMARK  Name = 
REMARK  6 active torsions:
REMARK  status: ('A' for Active; 'I' for Inactive)
REMARK    1  A    between atoms: C_1  and  C_2
REMARK    2  A    between atoms: N_8  and  C_9
REMARK    3  A    between atoms: C_9  and  C_10
REMARK    4  A    between atoms: C_10  and  C_11
REMARK    5  A    between atoms: N_13  and  C_14
REMARK    6  A    between atoms: C_19  and  C_20
REMARK                            x       y       z     vdW  Elec       q    Type
REMARK                         _______ _______ _______ _____ _____    ______ ____
ROOT
ATOM      1  C   UNL     1       2.800   6.693  18.891  0.00  0.00    +0.000 C 
ENDROOT
BRANCH   1   9
ATOM      2  C   UNL     1       7.771   7.933  17.524  0.00  0.00    +0.000 C 
ATOM      3  C   UNL     1       6.892   6.732  17.326  0.00  0.00    +0.000 A 
ATOM      4  C   UNL     1       7.365   5.620  16.625  0.00  0.00    +0.000 A 
ATOM      5  C   UNL     1       6.524   4.533  16.400  0.00  0.00    +0.000 A 
ATOM      6  C   UNL     1       5.212   4.551  16.876  0.00  0.00    +0.000 A 
ATOM      7  C   UNL     1       4.713   5.652  17.595  0.00  0.00    +0.000 A 
ATOM      8  C   UNL     1       5.573   6.737  17.814  0.00  0.00    +0.000 A 
ATOM      9  N   UNL     1       3.352   5.655  18.020  0.00  0.00    +0.000 N 
ATOM     10  C   UNL     1       2.543   4.560  17.722  0.00  0.00    +0.000 C 
ATOM     11  O   UNL     1       1.321   4.552  17.860  0.00  0.00    +0.000 OA
ATOM     12  C   UNL     1       3.319   3.301  17.357  0.00  0.00    +0.000 C 
ATOM     13  O   UNL     1       4.470   3.447  16.554  0.00  0.00    +0.000 OA
ENDBRANCH   1   9
BRANCH   1  14
ATOM     14  C   UNL     1       2.341   7.983  18.205  0.00  0.00    +0.000 C 
BRANCH  14  15
ATOM     15  C   UNL     1       1.431   8.744  19.161  0.00  0.00    +0.000 C 
ATOM     16  O   UNL     1       1.354   8.456  20.355  0.00  0.00    +0.000 OA
ATOM     17  N   UNL     1       0.713   9.791  18.609  0.00  0.00    +0.000 N 
ATOM     18  H   UNL     1       0.975  10.126  17.688  0.00  0.00    +0.000 HD
BRANCH  17  19
ATOM     19  C   UNL     1      -0.068  10.673  19.485  0.00  0.00    +0.000 C 
ATOM     20  C   UNL     1       0.820  11.805  20.031  0.00  0.00    +0.000 C 
ATOM     21  C   UNL     1       1.099  12.879  18.982  0.00  0.00    +0.000 C 
ATOM     22  C   UNL     1      -0.198  13.465  18.440  0.00  0.00    +0.000 C 
ATOM     23  C   UNL     1      -1.095  12.380  17.851  0.00  0.00    +0.000 C 
ATOM     24  C   UNL     1      -1.359  11.248  18.853  0.00  0.00    +0.000 C 
ATOM     25  C   UNL     1      -2.256  10.177  18.235  0.00  0.00    +0.000 C 
ENDBRANCH  17  19
ENDBRANCH  14  15
ENDBRANCH   1  14
TORSDOF 4
ENDMDL
MODEL 4
REMARK VINA RESULT:      -7.2      2.342      7.346
REMARK  Name = 
REMARK  6 active torsions:
REMARK  status: ('A' for Active; 'I' for Inactive)
REMARK    1  A    between atoms: C_1  and  C_2
REMARK    2  A    between atoms: N_8  and  C_9
REMARK    3  A    between atoms: C_9  and  C_10
REMARK    4  A    between atoms: C_10  and  C_11
REMARK    5  A    between atoms: N_13  and  C_14
REMARK    6  A    between atoms: C_19  and  C_20
REMARK                            x       y       z     vdW  Elec       q    Type
REMARK                         _______ _______ _______ _____ _____    ______ ____
ROOT
ATOM      1  C   UNL     1       2.697   6.789  20.173  0.00  0.00    +0.000 C 
ENDROOT
BRANCH   1   9
ATOM      2  C   UNL     1      -0.313   9.428  23.651  0.00  0.00    +0.000 C 
ATOM      3  C   UNL     1       0.053   9.629  22.209  0.00  0.00    +0.000 A 
ATOM      4  C   UNL     1      -0.459  10.715  21.496  0.00  0.00    +0.000 A 
ATOM      5  C   UNL     1      -0.157  10.863  20.145  0.00  0.00    +0.000 A 
ATOM      6  C   UNL     1       0.659   9.930  19.502  0.00  0.00    +0.000 A 
ATOM      7  C   UNL     1       1.199   8.833  20.198  0.00  0.00    +0.000 A 
ATOM      8  C   UNL     1       0.886   8.700  21.559  0.00  0.00    +0.000 A 
ATOM      9  N   UNL     1       1.985   7.874  19.496  0.00  0.00    +0.000 N 
ATOM     10  C   UNL     1       2.213   8.047  18.133  0.00  0.00    +0.000 C 
ATOM     11  O   UNL     1       2.697   7.183  17.402  0.00  0.00    +0.000 OA
ATOM     12  C   UNL     1       1.960   9.466  17.640  0.00  0.00    +0.000 C 
ATOM     13  O   UNL     1       0.847  10.157  18.166  0.00  0.00    +0.000 OA
ENDBRANCH   1   9
BRANCH   1  14
ATOM     14  C   UNL     1       2.208   5.367  19.879  0.00  0.00    +0.000 C 
BRANCH  14  15
ATOM     15  C   UNL     1       3.412   4.502  19.533  0.00  0.00    +0.000 C 
ATOM     16  O   UNL     1       3.557   3.371  19.995  0.00  0.00    +0.000 OA
ATOM     17  N   UNL     1       4.323   5.058  18.650  0.00  0.00    +0.000 N 
ATOM     18  H   UNL     1       4.051   5.886  18.131  0.00  0.00    +0.000 HD
BRANCH  17  19
ATOM     19  C   UNL     1       5.430   4.238  18.143  0.00  0.00    +0.000 C 
ATOM     20  C   UNL     1       5.074   3.657  16.763  0.00  0.00    +0.000 C 
ATOM     21  C   UNL     1       5.166   4.701  15.653  0.00  0.00    +0.000 C 
ATOM     22  C   UNL     1       6.556   5.324  15.600  0.00  0.00    +0.000 C 
ATOM     23  C   UNL     1       6.935   5.949  16.939  0.00  0.00    +0.000 C 
ATOM     24  C   UNL     1       6.805   4.949  18.097  0.00  0.00    +0.000 C 
ATOM     25  C   UNL     1       7.188   5.604  19.423  0.00  0.00    +0.000 C 
ENDBRANCH  17  19
ENDBRANCH  14  15
ENDBRANCH   1  14
TORSDOF 4
ENDMDL
MODEL 5
REMARK VINA RESULT:      -7.1      2.560      8.142
REMARK  Name = 
REMARK  6 active torsions:
REMARK  status: ('A' for Active; 'I' for Inactive)
REMARK    1  A    between atoms: C_1  and  C_2
REMARK    2  A    between atoms: N_8  and  C_9
REMARK    3  A    between atoms: C_9  and  C_10
REMARK    4  A    between atoms: C_10  and  C_11
REMARK    5  A    between atoms: N_13  and  C_14
REMARK    6  A    between atoms: C_19  and  C_20
REMARK                            x       y       z     vdW  Elec       q    Type
REMARK                         _______ _______ _______ _____ _____    ______ ____
ROOT
ATOM      1  C   UNL     1       1.012   9.519  19.386  0.00  0.00    +0.000 C 
ENDROOT
BRANCH   1   9
ATOM      2  C   UNL     1      -2.689   9.709  15.594  0.00  0.00    +0.000 C 
ATOM      3  C   UNL     1      -2.528  10.349  16.942  0.00  0.00    +0.000 A 
ATOM      4  C   UNL     1      -3.499  11.230  17.424  0.00  0.00    +0.000 A 
ATOM      5  C   UNL     1      -3.314  11.861  18.652  0.00  0.00    +0.000 A 
ATOM      6  C   UNL     1      -2.164  11.611  19.403  0.00  0.00    +0.000 A 
ATOM      7  C   UNL     1      -1.176  10.720  18.948  0.00  0.00    +0.000 A 
ATOM      8  C   UNL     1      -1.378  10.093  17.710  0.00  0.00    +0.000 A 
ATOM      9  N   UNL     1       0.009  10.531  19.718  0.00  0.00    +0.000 N 
ATOM     10  C   UNL     1       0.160  11.228  20.915  0.00  0.00    +0.000 C 
ATOM     11  O   UNL     1       1.217  11.293  21.542  0.00  0.00    +0.000 OA
ATOM     12  C   UNL     1      -1.144  11.779  21.478  0.00  0.00    +0.000 C 
ATOM     13  O   UNL     1      -2.076  12.323  20.569  0.00  0.00    +0.000 OA
ENDBRANCH   1   9
BRANCH   1  14
ATOM     14  C   UNL     1       1.265   8.440  20.445  0.00  0.00    +0.000 C 
BRANCH  14  15
ATOM     15  C   UNL     1       2.060   7.311  19.804  0.00  0.00    +0.000 C 
ATOM     16  O   UNL     1       2.921   7.522  18.951  0.00  0.00    +0.000 OA
ATOM     17  N   UNL     1       1.770   6.034  20.256  0.00  0.00    +0.000 N 
ATOM     18  H   UNL     1       1.224   5.933  21.104  0.00  0.00    +0.000 HD
BRANCH  17  19
ATOM     19  C   UNL     1       2.593   4.904  19.808  0.00  0.00    +0.000 C 
ATOM     20  C   UNL     1       3.128   4.120  21.019  0.00  0.00    +0.000 C 
ATOM     21  C   UNL     1       2.054   3.249  21.665  0.00  0.00    +0.000 C 
ATOM     22  C   UNL     1       1.454   2.279  20.654  0.00  0.00    +0.000 C 
ATOM     23  C   UNL     1       0.874   3.018  19.452  0.00  0.00    +0.000 C 
ATOM     24  C   UNL     1       1.905   3.951  18.801  0.00  0.00    +0.000 C 
ATOM     25  C   UNL     1       1.296   4.678  17.603  0.00  0.00    +0.000 C 
ENDBRANCH  17  19
ENDBRANCH  14  15
ENDBRANCH   1  14
TORSDOF 4
ENDMDL
MODEL 6
REMARK VINA RESULT:      -7.0      2.465      8.115
REMARK  Name = 
REMARK  6 active torsions:
REMARK  status: ('A' for Active; 'I' for Inactive)
REMARK    1  A    between atoms: C_1  and  C_2
REMARK    2  A    between atoms: N_8  and  C_9
REMARK    3  A    between atoms: C_9  and  C_10
REMARK    4  A    between atoms: C_10  and  C_11
REMARK    5  A    between atoms: N_13  and  C_14
REMARK    6  A    between atoms: C_19  and  C_20
REMARK                            x       y       z     vdW  Elec       q    Type
REMARK                         _______ _______ _______ _____ _____    ______ ____
ROOT
ATOM      1  C   UNL     1       0.141   8.280  21.163  0.00  0.00    +0.000 C 
ENDROOT
BRANCH   1   9
ATOM      2  C   UNL     1      -1.938  10.215  16.686  0.00  0.00    +0.000 C 
ATOM      3  C   UNL     1      -1.818  10.718  18.095  0.00  0.00    +0.000 A 
ATOM      4  C   UNL     1      -2.315  11.978  18.439  0.00  0.00    +0.000 A 
ATOM      5  C   UNL     1      -2.151  12.457  19.736  0.00  0.00    +0.000 A 
ATOM      6  C   UNL     1      -1.494  11.682  20.693  0.00  0.00    +0.000 A 
ATOM      7  C   UNL     1      -0.994  10.406  20.378  0.00  0.00    +0.000 A 
ATOM      8  C   UNL     1      -1.169   9.937  19.068  0.00  0.00    +0.000 A 
ATOM      9  N   UNL     1      -0.283   9.666  21.368  0.00  0.00    +0.000 N 
ATOM     10  C   UNL     1      -0.106  10.218  22.634  0.00  0.00    +0.000 C 
ATOM     11  O   UNL     1       0.658   9.759  23.483  0.00  0.00    +0.000 OA
ATOM     12  C   UNL     1      -1.063  11.361  22.948  0.00  0.00    +0.000 C 
ATOM     13  O   UNL     1      -1.354  12.278  21.917  0.00  0.00    +0.000 OA
ENDBRANCH   1   9
BRANCH   1  14
ATOM     14  C   UNL     1       1.651   8.038  21.069  0.00  0.00    +0.000 C 
BRANCH  14  15
ATOM     15  C   UNL     1       1.996   7.680  19.630  0.00  0.00    +0.000 C 
ATOM     16  O   UNL     1       1.819   8.469  18.702  0.00  0.00    +0.000 OA
ATOM     17  N   UNL     1       2.541   6.422  19.432  0.00  0.00    +0.000 N 
ATOM     18  H   UNL     1       2.871   5.905  20.240  0.00  0.00    +0.000 HD
BRANCH  17  19
ATOM     19  C   UNL     1       3.045   6.054  18.104  0.00  0.00    +0.000 C 
ATOM     20  C   UNL     1       4.527   6.444  17.968  0.00  0.00    +0.000 C 
ATOM     21  C   UNL     1       5.448   5.491  18.725  0.00  0.00    +0.000 C 
ATOM     22  C   UNL     1       5.255   4.053  18.257  0.00  0.00    +0.000 C 
ATOM     23  C   UNL     1       3.803   3.610  18.411  0.00  0.00    +0.000 C 
ATOM     24  C   UNL     1       2.832   4.571  17.711  0.00  0.00    +0.000 C 
ATOM     25  C   UNL     1       1.389   4.104  17.884  0.00  0.00    +0.000 C 
ENDBRANCH  17  19
ENDBRANCH  14  15
ENDBRANCH   1  14
TORSDOF 4
ENDMDL
MODEL 7
REMARK VINA RESULT:      -7.0      1.694      2.321
REMARK  Name = 
REMARK  6 active torsions:
REMARK  status: ('A' for Active; 'I' for Inactive)
REMARK    1  A    between atoms: C_1  and  C_2
REMARK    2  A    between atoms: N_8  and  C_9
REMARK    3  A    between atoms: C_9  and  C_10
REMARK    4  A    between atoms: C_10  and  C_11
REMARK    5  A    between atoms: N_13  and  C_14
REMARK    6  A    between atoms: C_19  and  C_20
REMARK                            x       y       z     vdW  Elec       q    Type
REMARK                         _______ _______ _______ _____ _____    ______ ____
ROOT
ATOM      1  C   UNL     1       2.427   6.591  18.214  0.00  0.00    +0.000 C 
ENDROOT
BRANCH   1   9
ATOM      2  C   UNL     1       1.246   2.718  21.637  0.00  0.00    +0.000 C 
ATOM      3  C   UNL     1       2.436   3.040  20.780  0.00  0.00    +0.000 A 
ATOM      4  C   UNL     1       3.566   2.219  20.804  0.00  0.00    +0.000 A 
ATOM      5  C   UNL     1       4.684   2.556  20.046  0.00  0.00    +0.000 A 
ATOM      6  C   UNL     1       4.678   3.710  19.260  0.00  0.00    +0.000 A 
ATOM      7  C   UNL     1       3.550   4.548  19.207  0.00  0.00    +0.000 A 
ATOM      8  C   UNL     1       2.431   4.194  19.975  0.00  0.00    +0.000 A 
ATOM      9  N   UNL     1       3.600   5.745  18.434  0.00  0.00    +0.000 N 
ATOM     10  C   UNL     1       4.765   6.056  17.736  0.00  0.00    +0.000 C 
ATOM     11  O   UNL     1       4.981   7.149  17.214  0.00  0.00    +0.000 OA
ATOM     12  C   UNL     1       5.696   4.869  17.530  0.00  0.00    +0.000 C 
ATOM     13  O   UNL     1       5.849   3.958  18.597  0.00  0.00    +0.000 OA
ENDBRANCH   1   9
BRANCH   1  14
ATOM     14  C   UNL     1       2.180   7.693  19.250  0.00  0.00    +0.000 C 
BRANCH  14  15
ATOM     15  C   UNL     1       1.811   8.975  18.516  0.00  0.00    +0.000 C 
ATOM     16  O   UNL     1       2.246   9.232  17.394  0.00  0.00    +0.000 OA
ATOM     17  N   UNL     1       0.940   9.823  19.179  0.00  0.00    +0.000 N 
ATOM     18  H   UNL     1       0.441   9.470  19.988  0.00  0.00    +0.000 HD
BRANCH  17  19
ATOM     19  C   UNL     1       0.411  11.003  18.484  0.00  0.00    +0.000 C 
ATOM     20  C   UNL     1      -0.952  10.681  17.847  0.00  0.00    +0.000 C 
ATOM     21  C   UNL     1      -2.075  10.625  18.880  0.00  0.00    +0.000 C 
ATOM     22  C   UNL     1      -2.172  11.933  19.656  0.00  0.00    +0.000 C 
ATOM     23  C   UNL     1      -0.850  12.272  20.338  0.00  0.00    +0.000 C 
ATOM     24  C   UNL     1       0.321  12.286  19.346  0.00  0.00    +0.000 C 
ATOM     25  C   UNL     1       1.629  12.626  20.057  0.00  0.00    +0.000 C 
ENDBRANCH  17  19
ENDBRANCH  14  15
ENDBRANCH   1  14
TORSDOF 4
ENDMDL
MODEL 8
REMARK VINA RESULT:      -7.0      1.676      2.254
REMARK  Name = 
REMARK  6 active torsions:
REMARK  status: ('A' for Active; 'I' for Inactive)
REMARK    1  A    between atoms: C_1  and  C_2
REMARK    2  A    between atoms: N_8  and  C_9
REMARK    3  A    between atoms: C_9  and  C_10
REMARK    4  A    between atoms: C_10  and  C_11
REMARK    5  A    between atoms: N_13  and  C_14
REMARK    6  A    between atoms: C_19  and  C_20
REMARK                            x       y       z     vdW  Elec       q    Type
REMARK                         _______ _______ _______ _____ _____    ______ ____
ROOT
ATOM      1  C   UNL     1       2.770   6.789  17.980  0.00  0.00    +0.000 C 
ENDROOT
BRANCH   1   9
ATOM      2  C   UNL     1       1.083   2.945  21.220  0.00  0.00    +0.000 C 
ATOM      3  C   UNL     1       2.362   3.215  20.482  0.00  0.00    +0.000 A 
ATOM      4  C   UNL     1       3.443   2.338  20.600  0.00  0.00    +0.000 A 
ATOM      5  C   UNL     1       4.642   2.625  19.954  0.00  0.00    +0.000 A 
ATOM      6  C   UNL     1       4.767   3.786  19.189  0.00  0.00    +0.000 A 
ATOM      7  C   UNL     1       3.692   4.681  19.043  0.00  0.00    +0.000 A 
ATOM      8  C   UNL     1       2.490   4.376  19.698  0.00  0.00    +0.000 A 
ATOM      9  N   UNL     1       3.874   5.882  18.296  0.00  0.00    +0.000 N 
ATOM     10  C   UNL     1       5.113   6.140  17.715  0.00  0.00    +0.000 C 
ATOM     11  O   UNL     1       5.431   7.226  17.232  0.00  0.00    +0.000 OA
ATOM     12  C   UNL     1       6.000   4.909  17.578  0.00  0.00    +0.000 C 
ATOM     13  O   UNL     1       6.006   3.982  18.642  0.00  0.00    +0.000 OA
ENDBRANCH   1   9
BRANCH   1  14
ATOM     14  C   UNL     1       2.333   7.742  19.098  0.00  0.00    +0.000 C 
BRANCH  14  15
ATOM     15  C   UNL     1       1.662   8.954  18.466  0.00  0.00    +0.000 C 
ATOM     16  O   UNL     1       1.588   9.096  17.245  0.00  0.00    +0.000 OA
ATOM     17  N   UNL     1       1.122   9.876  19.347  0.00  0.00    +0.000 N 
ATOM     18  H   UNL     1       1.011   9.609  20.319  0.00  0.00    +0.000 HD
BRANCH  17  19
ATOM     19  C   UNL     1       0.324  10.992  18.826  0.00  0.00    +0.000 C 
ATOM     20  C   UNL     1      -1.068  11.004  19.481  0.00  0.00    +0.000 C 
ATOM     21  C   UNL     1      -1.030  11.530  20.914  0.00  0.00    +0.000 C 
ATOM     22  C   UNL     1      -0.430  12.929  20.969  0.00  0.00    +0.000 C 
ATOM     23  C   UNL     1       0.971  12.956  20.365  0.00  0.00    +0.000 C 
ATOM     24  C   UNL     1       0.993  12.385  18.940  0.00  0.00    +0.000 C 
ATOM     25  C   UNL     1       2.406  12.422  18.364  0.00  0.00    +0.000 C 
ENDBRANCH  17  19
ENDBRANCH  14  15
ENDBRANCH   1  14
TORSDOF 4
ENDMDL
MODEL 9
REMARK VINA RESULT:      -6.9      4.031      6.836
REMARK  Name = 
REMARK  6 active torsions:
REMARK  status: ('A' for Active; 'I' for Inactive)
REMARK    1  A    between atoms: C_1  and  C_2
REMARK    2  A    between atoms: N_8  and  C_9
REMARK    3  A    between atoms: C_9  and  C_10
REMARK    4  A    between atoms: C_10  and  C_11
REMARK    5  A    between atoms: N_13  and  C_14
REMARK    6  A    between atoms: C_19  and  C_20
REMARK                            x       y       z     vdW  Elec       q    Type
REMARK                         _______ _______ _______ _____ _____    ______ ____
ROOT
ATOM      1  C   UNL     1      -0.677  10.933  18.200  0.00  0.00    +0.000 C 
ENDROOT
BRANCH   1   9
ATOM      2  C   UNL     1      -2.326  11.953  23.135  0.00  0.00    +0.000 C 
ATOM      3  C   UNL     1      -1.310  11.026  22.534  0.00  0.00    +0.000 A 
ATOM      4  C   UNL     1      -0.544  10.193  23.353  0.00  0.00    +0.000 A 
ATOM      5  C   UNL     1       0.433   9.376  22.791  0.00  0.00    +0.000 A 
ATOM      6  C   UNL     1       0.646   9.383  21.411  0.00  0.00    +0.000 A 
ATOM      7  C   UNL     1      -0.119  10.202  20.561  0.00  0.00    +0.000 A 
ATOM      8  C   UNL     1      -1.100  11.018  21.143  0.00  0.00    +0.000 A 
ATOM      9  N   UNL     1       0.163  10.221  19.164  0.00  0.00    +0.000 N 
ATOM     10  C   UNL     1       1.186   9.419  18.665  0.00  0.00    +0.000 C 
ATOM     11  O   UNL     1       1.640   9.514  17.525  0.00  0.00    +0.000 OA
ATOM     12  C   UNL     1       1.599   8.291  19.602  0.00  0.00    +0.000 C 
ATOM     13  O   UNL     1       1.662   8.573  20.984  0.00  0.00    +0.000 OA
ENDBRANCH   1   9
BRANCH   1  14
ATOM     14  C   UNL     1      -1.841  10.140  17.597  0.00  0.00    +0.000 C 
BRANCH  14  15
ATOM     15  C   UNL     1      -3.027  11.080  17.420  0.00  0.00    +0.000 C 
ATOM     16  O   UNL     1      -3.341  11.532  16.319  0.00  0.00    +0.000 OA
ATOM     17  N   UNL     1      -3.742  11.376  18.568  0.00  0.00    +0.000 N 
ATOM     18  H   UNL     1      -3.584  10.812  19.396  0.00  0.00    +0.000 HD
BRANCH  17  19
ATOM     19  C   UNL     1      -4.987  12.146  18.465  0.00  0.00    +0.000 C 
ATOM     20  C   UNL     1      -6.119  11.259  17.919  0.00  0.00    +0.000 C 
ATOM     21  C   UNL     1      -6.654  10.289  18.970  0.00  0.00    +0.000 C 
ATOM     22  C   UNL     1      -7.141  11.035  20.207  0.00  0.00    +0.000 C 
ATOM     23  C   UNL     1      -6.036  11.898  20.806  0.00  0.00    +0.000 C 
ATOM     24  C   UNL     1      -5.429  12.854  19.770  0.00  0.00    +0.000 C 
ATOM     25  C   UNL     1      -4.325  13.703  20.398  0.00  0.00    +0.000 C 
ENDBRANCH  17  19
ENDBRANCH  14  15
ENDBRANCH   1  14
TORSDOF 4
ENDMDL
