MODEL 1
REMARK VINA RESULT:      -8.8      0.000      0.000
REMARK  Name = 
REMARK  7 active torsions:
REMARK  status: ('A' for Active; 'I' for Inactive)
REMARK    1  A    between atoms: C_1  and  N_2
REMARK    2  A    between atoms: C_9  and  C_10
REMARK    3  A    between atoms: C_14  and  N_15
REMARK    4  A    between atoms: N_15  and  C_16
REMARK    5  A    between atoms: C_19  and  N_20
REMARK    6  A    between atoms: N_20  and  C_21
REMARK    7  A    between atoms: N_20  and  C_22
REMARK                            x       y       z     vdW  Elec       q    Type
REMARK                         _______ _______ _______ _____ _____    ______ ____
ROOT
ATOM      1  C   UNL     1       1.343   7.756  20.454  0.00  0.00    +0.000 A 
ATOM      2  C   UNL     1       2.141   7.811  19.307  0.00  0.00    +0.000 A 
ATOM      3  C   UNL     1       2.626   6.679  18.678  0.00  0.00    +0.000 A 
ATOM      4  C   UNL     1       2.427   5.408  19.218  0.00  0.00    +0.000 A 
ATOM      5  C   UNL     1       2.888   4.240  18.535  0.00  0.00    +0.000 A 
ATOM      6  C   UNL     1       2.784   3.032  19.213  0.00  0.00    +0.000 A 
ATOM      7  C   UNL     1       2.194   3.034  20.473  0.00  0.00    +0.000 A 
ATOM      8  N   UNL     1       1.656   4.121  21.084  0.00  0.00    +0.000 NA
ATOM      9  C   UNL     1       1.762   5.311  20.466  0.00  0.00    +0.000 A 
ATOM     10  C   UNL     1       1.204   6.482  21.041  0.00  0.00    +0.000 A 
ENDROOT
BRANCH   1  19
ATOM     11  C   UNL     1      -4.256  14.962  22.902  0.00  0.00    +0.000 C 
ATOM     12  N   UNL     1      -2.926  14.629  22.401  0.00  0.00    +0.000 NA
ATOM     13  C   UNL     1      -3.013  13.832  21.157  0.00  0.00    +0.000 C 
ATOM     14  C   UNL     1      -1.614  13.491  20.591  0.00  0.00    +0.000 C 
ATOM     15  N   UNL     1      -0.802  12.826  21.615  0.00  0.00    +0.000 N 
ATOM     16  C   UNL     1      -0.361  11.545  21.413  0.00  0.00    +0.000 A 
ATOM     17  N   UNL     1      -0.293  11.124  20.149  0.00  0.00    +0.000 NA
ATOM     18  C   UNL     1       0.216   9.899  19.919  0.00  0.00    +0.000 A 
ATOM     19  C   UNL     1       0.684   9.012  20.877  0.00  0.00    +0.000 A 
ATOM     20  C   UNL     1       0.511   9.511  22.149  0.00  0.00    +0.000 A 
ATOM     21  N   UNL     1       0.017  10.755  22.438  0.00  0.00    +0.000 NA
ATOM     22  C   UNL     1      -0.736  13.492  22.910  0.00  0.00    +0.000 C 
ATOM     23  C   UNL     1      -2.154  13.858  23.407  0.00  0.00    +0.000 C 
ENDBRANCH   1  19
BRANCH   5  24
ATOM     24  N   UNL     1       3.418   4.378  17.244  0.00  0.00    +0.000 N 
ATOM     25  H   UNL     1       3.100   5.270  16.871  0.00  0.00    +0.000 HD
BRANCH  24  26
ATOM     26  C   UNL     1       4.781   4.097  16.760  0.00  0.00    +0.000 C 
ATOM     27  C   UNL     1       5.355   5.131  15.794  0.00  0.00    +0.000 C 
ATOM     28  C   UNL     1       5.433   6.531  16.392  0.00  0.00    +0.000 C 
ATOM     29  C   UNL     1       6.148   6.643  17.755  0.00  0.00    +0.000 C 
ATOM     30  C   UNL     1       5.973   5.398  18.661  0.00  0.00    +0.000 C 
ATOM     31  C   UNL     1       5.739   4.044  17.967  0.00  0.00    +0.000 C 
BRANCH  29  32
ATOM     32  N   UNL     1       7.544   7.147  17.726  0.00  0.00    +0.000 NA
ATOM     33  C   UNL     1       7.699   8.585  17.563  0.00  0.00    +0.000 C 
ATOM     34  C   UNL     1       8.328   6.684  18.879  0.00  0.00    +0.000 C 
ENDBRANCH  29  32
ENDBRANCH  24  26
ENDBRANCH   5  24
TORSDOF 4
ENDMDL
MODEL 2
REMARK VINA RESULT:      -8.5      0.772      1.398
REMARK  Name = 
REMARK  7 active torsions:
REMARK  status: ('A' for Active; 'I' for Inactive)
REMARK    1  A    between atoms: C_1  and  N_2
REMARK    2  A    between atoms: C_9  and  C_10
REMARK    3  A    between atoms: C_14  and  N_15
REMARK    4  A    between atoms: N_15  and  C_16
REMARK    5  A    between atoms: C_19  and  N_20
REMARK    6  A    between atoms: N_20  and  C_21
REMARK    7  A    between atoms: N_20  and  C_22
REMARK                            x       y       z     vdW  Elec       q    Type
REMARK                         _______ _______ _______ _____ _____    ______ ____
ROOT
ATOM      1  C   UNL     1       1.408   8.020  20.255  0.00  0.00    +0.000 A 
ATOM      2  C   UNL     1       2.180   7.973  19.090  0.00  0.00    +0.000 A 
ATOM      3  C   UNL     1       2.622   6.787  18.533  0.00  0.00    +0.000 A 
ATOM      4  C   UNL     1       2.405   5.563  19.167  0.00  0.00    +0.000 A 
ATOM      5  C   UNL     1       2.820   4.338  18.558  0.00  0.00    +0.000 A 
ATOM      6  C   UNL     1       2.702   3.184  19.322  0.00  0.00    +0.000 A 
ATOM      7  C   UNL     1       2.141   3.290  20.592  0.00  0.00    +0.000 A 
ATOM      8  N   UNL     1       1.646   4.432  21.135  0.00  0.00    +0.000 NA
ATOM      9  C   UNL     1       1.766   5.572  20.432  0.00  0.00    +0.000 A 
ATOM     10  C   UNL     1       1.251   6.795  20.933  0.00  0.00    +0.000 A 
ENDROOT
BRANCH   1  19
ATOM     11  C   UNL     1      -1.188  16.565  23.340  0.00  0.00    +0.000 C 
ATOM     12  N   UNL     1      -1.702  15.295  22.834  0.00  0.00    +0.000 NA
ATOM     13  C   UNL     1      -1.235  14.165  23.667  0.00  0.00    +0.000 C 
ATOM     14  C   UNL     1      -1.789  12.811  23.167  0.00  0.00    +0.000 C 
ATOM     15  N   UNL     1      -1.463  12.622  21.750  0.00  0.00    +0.000 N 
ATOM     16  C   UNL     1      -0.667  11.576  21.365  0.00  0.00    +0.000 A 
ATOM     17  N   UNL     1      -0.596  10.535  22.197  0.00  0.00    +0.000 NA
ATOM     18  C   UNL     1       0.112   9.460  21.802  0.00  0.00    +0.000 A 
ATOM     19  C   UNL     1       0.790   9.320  20.601  0.00  0.00    +0.000 A 
ATOM     20  C   UNL     1       0.711  10.468  19.844  0.00  0.00    +0.000 A 
ATOM     21  N   UNL     1      -0.010  11.580  20.188  0.00  0.00    +0.000 NA
ATOM     22  C   UNL     1      -1.802  13.729  20.864  0.00  0.00    +0.000 C 
ATOM     23  C   UNL     1      -1.269  15.065  21.434  0.00  0.00    +0.000 C 
ENDBRANCH   1  19
BRANCH   5  24
ATOM     24  N   UNL     1       3.323   4.370  17.250  0.00  0.00    +0.000 N 
ATOM     25  H   UNL     1       2.992   5.227  16.811  0.00  0.00    +0.000 HD
BRANCH  24  26
ATOM     26  C   UNL     1       4.677   4.056  16.763  0.00  0.00    +0.000 C 
ATOM     27  C   UNL     1       5.273   5.072  15.791  0.00  0.00    +0.000 C 
ATOM     28  C   UNL     1       5.385   6.472  16.383  0.00  0.00    +0.000 C 
ATOM     29  C   UNL     1       6.107   6.573  17.743  0.00  0.00    +0.000 C 
ATOM     30  C   UNL     1       5.906   5.336  18.655  0.00  0.00    +0.000 C 
ATOM     31  C   UNL     1       5.638   3.986  17.967  0.00  0.00    +0.000 C 
BRANCH  29  32
ATOM     32  N   UNL     1       7.514   7.044  17.708  0.00  0.00    +0.000 NA
ATOM     33  C   UNL     1       7.701   8.480  17.545  0.00  0.00    +0.000 C 
ATOM     34  C   UNL     1       8.292   6.562  18.857  0.00  0.00    +0.000 C 
ENDBRANCH  29  32
ENDBRANCH  24  26
ENDBRANCH   5  24
TORSDOF 4
ENDMDL
MODEL 3
REMARK VINA RESULT:      -8.1      2.784     10.025
REMARK  Name = 
REMARK  7 active torsions:
REMARK  status: ('A' for Active; 'I' for Inactive)
REMARK    1  A    between atoms: C_1  and  N_2
REMARK    2  A    between atoms: C_9  and  C_10
REMARK    3  A    between atoms: C_14  and  N_15
REMARK    4  A    between atoms: N_15  and  C_16
REMARK    5  A    between atoms: C_19  and  N_20
REMARK    6  A    between atoms: N_20  and  C_21
REMARK    7  A    between atoms: N_20  and  C_22
REMARK                            x       y       z     vdW  Elec       q    Type
REMARK                         _______ _______ _______ _____ _____    ______ ____
ROOT
ATOM      1  C   UNL     1       0.316  10.096  20.069  0.00  0.00    +0.000 A 
ATOM      2  C   UNL     1       0.010  11.128  19.177  0.00  0.00    +0.000 A 
ATOM      3  C   UNL     1      -0.689  12.261  19.554  0.00  0.00    +0.000 A 
ATOM      4  C   UNL     1      -1.222  12.389  20.838  0.00  0.00    +0.000 A 
ATOM      5  C   UNL     1      -1.899  13.584  21.234  0.00  0.00    +0.000 A 
ATOM      6  C   UNL     1      -2.528  13.570  22.472  0.00  0.00    +0.000 A 
ATOM      7  C   UNL     1      -2.410  12.426  23.256  0.00  0.00    +0.000 A 
ATOM      8  N   UNL     1      -1.679  11.328  22.934  0.00  0.00    +0.000 NA
ATOM      9  C   UNL     1      -1.078  11.299  21.731  0.00  0.00    +0.000 A 
ATOM     10  C   UNL     1      -0.283  10.190  21.341  0.00  0.00    +0.000 A 
ENDROOT
BRANCH   1  19
ATOM     11  C   UNL     1       7.606   4.595  17.647  0.00  0.00    +0.000 C 
ATOM     12  N   UNL     1       6.204   4.879  17.354  0.00  0.00    +0.000 NA
ATOM     13  C   UNL     1       6.017   6.301  16.989  0.00  0.00    +0.000 C 
ATOM     14  C   UNL     1       4.543   6.621  16.647  0.00  0.00    +0.000 C 
ATOM     15  N   UNL     1       3.668   6.216  17.752  0.00  0.00    +0.000 N 
ATOM     16  C   UNL     1       2.925   7.157  18.415  0.00  0.00    +0.000 A 
ATOM     17  N   UNL     1       2.675   8.295  17.766  0.00  0.00    +0.000 NA
ATOM     18  C   UNL     1       1.878   9.200  18.364  0.00  0.00    +0.000 A 
ATOM     19  C   UNL     1       1.280   9.071  19.608  0.00  0.00    +0.000 A 
ATOM     20  C   UNL     1       1.650   7.895  20.224  0.00  0.00    +0.000 A 
ATOM     21  N   UNL     1       2.441   6.934  19.654  0.00  0.00    +0.000 NA
ATOM     22  C   UNL     1       3.847   4.856  18.244  0.00  0.00    +0.000 C 
ATOM     23  C   UNL     1       5.342   4.570  18.522  0.00  0.00    +0.000 C 
ENDBRANCH   1  19
BRANCH   5  24
ATOM     24  N   UNL     1      -1.897  14.682  20.362  0.00  0.00    +0.000 N 
ATOM     25  H   UNL     1      -2.795  14.700  19.883  0.00  0.00    +0.000 HD
BRANCH  24  26
ATOM     26  C   UNL     1      -1.435  16.061  20.598  0.00  0.00    +0.000 C 
ATOM     27  C   UNL     1      -0.092  16.186  21.311  0.00  0.00    +0.000 C 
ATOM     28  C   UNL     1       1.051  15.515  20.558  0.00  0.00    +0.000 C 
ATOM     29  C   UNL     1       1.211  15.920  19.077  0.00  0.00    +0.000 C 
ATOM     30  C   UNL     1      -0.125  16.251  18.368  0.00  0.00    +0.000 C 
ATOM     31  C   UNL     1      -1.280  16.775  19.240  0.00  0.00    +0.000 C 
BRANCH  29  32
ATOM     32  N   UNL     1       2.285  16.899  18.776  0.00  0.00    +0.000 NA
ATOM     33  C   UNL     1       3.195  17.203  19.872  0.00  0.00    +0.000 C 
ATOM     34  C   UNL     1       3.048  16.537  17.574  0.00  0.00    +0.000 C 
ENDBRANCH  29  32
ENDBRANCH  24  26
ENDBRANCH   5  24
TORSDOF 4
ENDMDL
MODEL 4
REMARK VINA RESULT:      -8.0      2.364     11.091
REMARK  Name = 
REMARK  7 active torsions:
REMARK  status: ('A' for Active; 'I' for Inactive)
REMARK    1  A    between atoms: C_1  and  N_2
REMARK    2  A    between atoms: C_9  and  C_10
REMARK    3  A    between atoms: C_14  and  N_15
REMARK    4  A    between atoms: N_15  and  C_16
REMARK    5  A    between atoms: C_19  and  N_20
REMARK    6  A    between atoms: N_20  and  C_21
REMARK    7  A    between atoms: N_20  and  C_22
REMARK                            x       y       z     vdW  Elec       q    Type
REMARK                         _______ _______ _______ _____ _____    ______ ____
ROOT
ATOM      1  C   UNL     1       0.269  10.876  20.531  0.00  0.00    +0.000 A 
ATOM      2  C   UNL     1      -1.081  11.065  20.220  0.00  0.00    +0.000 A 
ATOM      3  C   UNL     1      -1.716  12.287  20.355  0.00  0.00    +0.000 A 
ATOM      4  C   UNL     1      -1.061  13.386  20.912  0.00  0.00    +0.000 A 
ATOM      5  C   UNL     1      -1.707  14.657  21.000  0.00  0.00    +0.000 A 
ATOM      6  C   UNL     1      -1.043  15.654  21.703  0.00  0.00    +0.000 A 
ATOM      7  C   UNL     1       0.218  15.366  22.218  0.00  0.00    +0.000 A 
ATOM      8  N   UNL     1       0.886  14.196  22.046  0.00  0.00    +0.000 NA
ATOM      9  C   UNL     1       0.260  13.202  21.392  0.00  0.00    +0.000 A 
ATOM     10  C   UNL     1       0.909  11.961  21.160  0.00  0.00    +0.000 A 
ENDROOT
BRANCH   1  19
ATOM     11  C   UNL     1       2.673   2.204  17.648  0.00  0.00    +0.000 C 
ATOM     12  N   UNL     1       3.147   3.363  18.399  0.00  0.00    +0.000 NA
ATOM     13  C   UNL     1       2.216   3.696  19.501  0.00  0.00    +0.000 C 
ATOM     14  C   UNL     1       2.711   4.905  20.330  0.00  0.00    +0.000 C 
ATOM     15  N   UNL     1       2.960   6.053  19.452  0.00  0.00    +0.000 N 
ATOM     16  C   UNL     1       2.237   7.205  19.614  0.00  0.00    +0.000 A 
ATOM     17  N   UNL     1       1.678   7.404  20.809  0.00  0.00    +0.000 NA
ATOM     18  C   UNL     1       1.034   8.567  21.018  0.00  0.00    +0.000 A 
ATOM     19  C   UNL     1       0.885   9.599  20.104  0.00  0.00    +0.000 A 
ATOM     20  C   UNL     1       1.438   9.272  18.885  0.00  0.00    +0.000 A 
ATOM     21  N   UNL     1       2.120   8.113  18.624  0.00  0.00    +0.000 NA
ATOM     22  C   UNL     1       3.791   5.796  18.284  0.00  0.00    +0.000 C 
ATOM     23  C   UNL     1       3.286   4.549  17.519  0.00  0.00    +0.000 C 
ENDBRANCH   1  19
BRANCH   5  24
ATOM     24  N   UNL     1      -2.959  14.822  20.391  0.00  0.00    +0.000 N 
ATOM     25  H   UNL     1      -3.088  14.056  19.733  0.00  0.00    +0.000 HD
BRANCH  24  26
ATOM     26  C   UNL     1      -4.254  15.174  20.999  0.00  0.00    +0.000 C 
ATOM     27  C   UNL     1      -5.484  14.814  20.170  0.00  0.00    +0.000 C 
ATOM     28  C   UNL     1      -5.586  13.323  19.868  0.00  0.00    +0.000 C 
ATOM     29  C   UNL     1      -5.489  12.380  21.086  0.00  0.00    +0.000 C 
ATOM     30  C   UNL     1      -4.564  12.903  22.214  0.00  0.00    +0.000 C 
ATOM     31  C   UNL     1      -4.395  14.428  22.341  0.00  0.00    +0.000 C 
BRANCH  29  32
ATOM     32  N   UNL     1      -6.770  11.831  21.596  0.00  0.00    +0.000 NA
ATOM     33  C   UNL     1      -7.627  12.769  22.308  0.00  0.00    +0.000 C 
ATOM     34  C   UNL     1      -7.537  11.143  20.549  0.00  0.00    +0.000 C 
ENDBRANCH  29  32
ENDBRANCH  24  26
ENDBRANCH   5  24
TORSDOF 4
ENDMDL
MODEL 5
REMARK VINA RESULT:      -7.9      5.283     11.388
REMARK  Name = 
REMARK  7 active torsions:
REMARK  status: ('A' for Active; 'I' for Inactive)
REMARK    1  A    between atoms: C_1  and  N_2
REMARK    2  A    between atoms: C_9  and  C_10
REMARK    3  A    between atoms: C_14  and  N_15
REMARK    4  A    between atoms: N_15  and  C_16
REMARK    5  A    between atoms: C_19  and  N_20
REMARK    6  A    between atoms: N_20  and  C_21
REMARK    7  A    between atoms: N_20  and  C_22
REMARK                            x       y       z     vdW  Elec       q    Type
REMARK                         _______ _______ _______ _____ _____    ______ ____
ROOT
ATOM      1  C   UNL     1       9.330  10.302  18.737  0.00  0.00    +0.000 A 
ATOM      2  C   UNL     1       9.268  10.715  20.071  0.00  0.00    +0.000 A 
ATOM      3  C   UNL     1       9.804  11.912  20.509  0.00  0.00    +0.000 A 
ATOM      4  C   UNL     1      10.535  12.736  19.652  0.00  0.00    +0.000 A 
ATOM      5  C   UNL     1      11.042  13.995  20.100  0.00  0.00    +0.000 A 
ATOM      6  C   UNL     1      11.883  14.679  19.232  0.00  0.00    +0.000 A 
ATOM      7  C   UNL     1      12.127  14.126  17.979  0.00  0.00    +0.000 A 
ATOM      8  N   UNL     1      11.564  12.984  17.505  0.00  0.00    +0.000 NA
ATOM      9  C   UNL     1      10.764  12.284  18.328  0.00  0.00    +0.000 A 
ATOM     10  C   UNL     1      10.129  11.094  17.888  0.00  0.00    +0.000 A 
ENDROOT
BRANCH   1  19
ATOM     11  C   UNL     1       3.113   3.286  17.551  0.00  0.00    +0.000 C 
ATOM     12  N   UNL     1       4.492   3.687  17.287  0.00  0.00    +0.000 NA
ATOM     13  C   UNL     1       5.190   4.040  18.544  0.00  0.00    +0.000 C 
ATOM     14  C   UNL     1       6.663   4.441  18.294  0.00  0.00    +0.000 C 
ATOM     15  N   UNL     1       6.732   5.521  17.304  0.00  0.00    +0.000 N 
ATOM     16  C   UNL     1       7.253   6.738  17.656  0.00  0.00    +0.000 A 
ATOM     17  N   UNL     1       8.073   6.761  18.708  0.00  0.00    +0.000 NA
ATOM     18  C   UNL     1       8.664   7.930  19.021  0.00  0.00    +0.000 A 
ATOM     19  C   UNL     1       8.503   9.135  18.354  0.00  0.00    +0.000 A 
ATOM     20  C   UNL     1       7.591   9.023  17.328  0.00  0.00    +0.000 A 
ATOM     21  N   UNL     1       6.977   7.856  16.955  0.00  0.00    +0.000 NA
ATOM     22  C   UNL     1       5.992   5.302  16.068  0.00  0.00    +0.000 C 
ATOM     23  C   UNL     1       4.543   4.853  16.372  0.00  0.00    +0.000 C 
ENDBRANCH   1  19
BRANCH   5  24
ATOM     24  N   UNL     1      10.675  14.457  21.371  0.00  0.00    +0.000 N 
ATOM     25  H   UNL     1      11.497  14.409  21.969  0.00  0.00    +0.000 HD
BRANCH  24  26
ATOM     26  C   UNL     1       9.863  15.630  21.740  0.00  0.00    +0.000 C 
ATOM     27  C   UNL     1       8.722  15.962  20.782  0.00  0.00    +0.000 C 
ATOM     28  C   UNL     1       7.719  14.824  20.628  0.00  0.00    +0.000 C 
ATOM     29  C   UNL     1       7.142  14.253  21.941  0.00  0.00    +0.000 C 
ATOM     30  C   UNL     1       8.134  14.286  23.131  0.00  0.00    +0.000 C 
ATOM     31  C   UNL     1       9.219  15.378  23.119  0.00  0.00    +0.000 C 
BRANCH  29  32
ATOM     32  N   UNL     1       5.778  14.707  22.311  0.00  0.00    +0.000 NA
ATOM     33  C   UNL     1       5.703  15.944  23.076  0.00  0.00    +0.000 C 
ATOM     34  C   UNL     1       4.880  14.778  21.151  0.00  0.00    +0.000 C 
ENDBRANCH  29  32
ENDBRANCH  24  26
ENDBRANCH   5  24
TORSDOF 4
ENDMDL
MODEL 6
REMARK VINA RESULT:      -7.9      1.589      2.473
REMARK  Name = 
REMARK  7 active torsions:
REMARK  status: ('A' for Active; 'I' for Inactive)
REMARK    1  A    between atoms: C_1  and  N_2
REMARK    2  A    between atoms: C_9  and  C_10
REMARK    3  A    between atoms: C_14  and  N_15
REMARK    4  A    between atoms: N_15  and  C_16
REMARK    5  A    between atoms: C_19  and  N_20
REMARK    6  A    between atoms: N_20  and  C_21
REMARK    7  A    between atoms: N_20  and  C_22
REMARK                            x       y       z     vdW  Elec       q    Type
REMARK                         _______ _______ _______ _____ _____    ______ ____
ROOT
ATOM      1  C   UNL     1       1.063   8.113  20.784  0.00  0.00    +0.000 A 
ATOM      2  C   UNL     1       1.976   8.422  19.772  0.00  0.00    +0.000 A 
ATOM      3  C   UNL     1       2.695   7.455  19.092  0.00  0.00    +0.000 A 
ATOM      4  C   UNL     1       2.621   6.109  19.454  0.00  0.00    +0.000 A 
ATOM      5  C   UNL     1       3.328   5.111  18.714  0.00  0.00    +0.000 A 
ATOM      6  C   UNL     1       3.321   3.822  19.232  0.00  0.00    +0.000 A 
ATOM      7  C   UNL     1       2.589   3.582  20.391  0.00  0.00    +0.000 A 
ATOM      8  N   UNL     1       1.828   4.501  21.040  0.00  0.00    +0.000 NA
ATOM      9  C   UNL     1       1.831   5.764  20.579  0.00  0.00    +0.000 A 
ATOM     10  C   UNL     1       1.042   6.767  21.199  0.00  0.00    +0.000 A 
ENDROOT
BRANCH   1  19
ATOM     11  C   UNL     1      -5.791  14.058  23.424  0.00  0.00    +0.000 C 
ATOM     12  N   UNL     1      -4.412  13.996  22.947  0.00  0.00    +0.000 NA
ATOM     13  C   UNL     1      -4.329  13.266  21.662  0.00  0.00    +0.000 C 
ATOM     14  C   UNL     1      -2.881  13.212  21.122  0.00  0.00    +0.000 C 
ATOM     15  N   UNL     1      -1.983  12.647  22.135  0.00  0.00    +0.000 N 
ATOM     16  C   UNL     1      -1.315  11.479  21.881  0.00  0.00    +0.000 A 
ATOM     17  N   UNL     1      -1.147  11.146  20.600  0.00  0.00    +0.000 NA
ATOM     18  C   UNL     1      -0.421  10.047  20.325  0.00  0.00    +0.000 A 
ATOM     19  C   UNL     1       0.179   9.206  21.250  0.00  0.00    +0.000 A 
ATOM     20  C   UNL     1      -0.106   9.596  22.540  0.00  0.00    +0.000 A 
ATOM     21  N   UNL     1      -0.821  10.714  22.876  0.00  0.00    +0.000 NA
ATOM     22  C   UNL     1      -2.064  13.243  23.463  0.00  0.00    +0.000 C 
ATOM     23  C   UNL     1      -3.535  13.321  23.936  0.00  0.00    +0.000 C 
ENDBRANCH   1  19
BRANCH   5  24
ATOM     24  N   UNL     1       3.984   5.484  17.533  0.00  0.00    +0.000 N 
ATOM     25  H   UNL     1       3.463   6.254  17.118  0.00  0.00    +0.000 HD
BRANCH  24  26
ATOM     26  C   UNL     1       5.424   5.671  17.284  0.00  0.00    +0.000 C 
ATOM     27  C   UNL     1       6.230   4.385  17.120  0.00  0.00    +0.000 C 
ATOM     28  C   UNL     1       5.743   3.517  15.966  0.00  0.00    +0.000 C 
ATOM     29  C   UNL     1       5.612   4.223  14.600  0.00  0.00    +0.000 C 
ATOM     30  C   UNL     1       5.208   5.715  14.700  0.00  0.00    +0.000 C 
ATOM     31  C   UNL     1       5.606   6.472  15.980  0.00  0.00    +0.000 C 
BRANCH  29  32
ATOM     32  N   UNL     1       6.707   3.983  13.628  0.00  0.00    +0.000 NA
ATOM     33  C   UNL     1       6.305   3.452  12.333  0.00  0.00    +0.000 C 
ATOM     34  C   UNL     1       7.558   5.167  13.444  0.00  0.00    +0.000 C 
ENDBRANCH  29  32
ENDBRANCH  24  26
ENDBRANCH   5  24
TORSDOF 4
ENDMDL
MODEL 7
REMARK VINA RESULT:      -7.8      2.449     11.015
REMARK  Name = 
REMARK  7 active torsions:
REMARK  status: ('A' for Active; 'I' for Inactive)
REMARK    1  A    between atoms: C_1  and  N_2
REMARK    2  A    between atoms: C_9  and  C_10
REMARK    3  A    between atoms: C_14  and  N_15
REMARK    4  A    between atoms: N_15  and  C_16
REMARK    5  A    between atoms: C_19  and  N_20
REMARK    6  A    between atoms: N_20  and  C_21
REMARK    7  A    between atoms: N_20  and  C_22
REMARK                            x       y       z     vdW  Elec       q    Type
REMARK                         _______ _______ _______ _____ _____    ______ ____
ROOT
ATOM      1  C   UNL     1       0.895  10.935  19.482  0.00  0.00    +0.000 A 
ATOM      2  C   UNL     1      -0.359  11.041  20.092  0.00  0.00    +0.000 A 
ATOM      3  C   UNL     1      -1.051  12.236  20.174  0.00  0.00    +0.000 A 
ATOM      4  C   UNL     1      -0.483  13.434  19.739  0.00  0.00    +0.000 A 
ATOM      5  C   UNL     1      -1.225  14.655  19.781  0.00  0.00    +0.000 A 
ATOM      6  C   UNL     1      -0.536  15.821  19.473  0.00  0.00    +0.000 A 
ATOM      7  C   UNL     1       0.798  15.716  19.093  0.00  0.00    +0.000 A 
ATOM      8  N   UNL     1       1.481  14.550  18.946  0.00  0.00    +0.000 NA
ATOM      9  C   UNL     1       0.850  13.404  19.261  0.00  0.00    +0.000 A 
ATOM     10  C   UNL     1       1.499  12.152  19.110  0.00  0.00    +0.000 A 
ENDROOT
BRANCH   1  19
ATOM     11  C   UNL     1       2.606   1.800  17.776  0.00  0.00    +0.000 C 
ATOM     12  N   UNL     1       3.166   3.004  18.384  0.00  0.00    +0.000 NA
ATOM     13  C   UNL     1       2.255   3.549  19.415  0.00  0.00    +0.000 C 
ATOM     14  C   UNL     1       2.839   4.810  20.093  0.00  0.00    +0.000 C 
ATOM     15  N   UNL     1       3.190   5.813  19.082  0.00  0.00    +0.000 N 
ATOM     16  C   UNL     1       2.563   7.030  19.081  0.00  0.00    +0.000 A 
ATOM     17  N   UNL     1       2.011   7.425  20.229  0.00  0.00    +0.000 NA
ATOM     18  C   UNL     1       1.463   8.654  20.275  0.00  0.00    +0.000 A 
ATOM     19  C   UNL     1       1.409   9.568  19.234  0.00  0.00    +0.000 A 
ATOM     20  C   UNL     1       1.945   9.044  18.078  0.00  0.00    +0.000 A 
ATOM     21  N   UNL     1       2.532   7.811  17.982  0.00  0.00    +0.000 NA
ATOM     22  C   UNL     1       4.011   5.342  17.974  0.00  0.00    +0.000 C 
ATOM     23  C   UNL     1       3.412   4.052  17.363  0.00  0.00    +0.000 C 
ENDBRANCH   1  19
BRANCH   5  24
ATOM     24  N   UNL     1      -2.581  14.609  20.134  0.00  0.00    +0.000 N 
ATOM     25  H   UNL     1      -2.901  13.651  20.015  0.00  0.00    +0.000 HD
BRANCH  24  26
ATOM     26  C   UNL     1      -3.266  15.219  21.287  0.00  0.00    +0.000 C 
ATOM     27  C   UNL     1      -4.775  14.994  21.343  0.00  0.00    +0.000 C 
ATOM     28  C   UNL     1      -5.159  13.520  21.395  0.00  0.00    +0.000 C 
ATOM     29  C   UNL     1      -4.471  12.682  22.492  0.00  0.00    +0.000 C 
ATOM     30  C   UNL     1      -3.028  13.142  22.822  0.00  0.00    +0.000 C 
ATOM     31  C   UNL     1      -2.686  14.624  22.586  0.00  0.00    +0.000 C 
BRANCH  29  32
ATOM     32  N   UNL     1      -5.278  12.395  23.704  0.00  0.00    +0.000 NA
ATOM     33  C   UNL     1      -4.564  12.443  24.972  0.00  0.00    +0.000 C 
ATOM     34  C   UNL     1      -6.489  13.224  23.777  0.00  0.00    +0.000 C 
ENDBRANCH  29  32
ENDBRANCH  24  26
ENDBRANCH   5  24
TORSDOF 4
ENDMDL
MODEL 8
REMARK VINA RESULT:      -7.8      2.498     11.088
REMARK  Name = 
REMARK  7 active torsions:
REMARK  status: ('A' for Active; 'I' for Inactive)
REMARK    1  A    between atoms: C_1  and  N_2
REMARK    2  A    between atoms: C_9  and  C_10
REMARK    3  A    between atoms: C_14  and  N_15
REMARK    4  A    between atoms: N_15  and  C_16
REMARK    5  A    between atoms: C_19  and  N_20
REMARK    6  A    between atoms: N_20  and  C_21
REMARK    7  A    between atoms: N_20  and  C_22
REMARK                            x       y       z     vdW  Elec       q    Type
REMARK                         _______ _______ _______ _____ _____    ______ ____
ROOT
ATOM      1  C   UNL     1       0.491  11.473  20.108  0.00  0.00    +0.000 A 
ATOM      2  C   UNL     1      -0.226  11.701  21.286  0.00  0.00    +0.000 A 
ATOM      3  C   UNL     1      -0.903  12.881  21.533  0.00  0.00    +0.000 A 
ATOM      4  C   UNL     1      -0.822  13.962  20.653  0.00  0.00    +0.000 A 
ATOM      5  C   UNL     1      -1.566  15.159  20.890  0.00  0.00    +0.000 A 
ATOM      6  C   UNL     1      -1.310  16.235  20.051  0.00  0.00    +0.000 A 
ATOM      7  C   UNL     1      -0.400  16.058  19.013  0.00  0.00    +0.000 A 
ATOM      8  N   UNL     1       0.230  14.892  18.714  0.00  0.00    +0.000 NA
ATOM      9  C   UNL     1       0.024  13.837  19.523  0.00  0.00    +0.000 A 
ATOM     10  C   UNL     1       0.635  12.585  19.255  0.00  0.00    +0.000 A 
ENDROOT
BRANCH   1  19
ATOM     11  C   UNL     1       1.854   2.302  18.285  0.00  0.00    +0.000 C 
ATOM     12  N   UNL     1       2.434   3.463  18.953  0.00  0.00    +0.000 NA
ATOM     13  C   UNL     1       1.491   4.032  19.942  0.00  0.00    +0.000 C 
ATOM     14  C   UNL     1       2.095   5.248  20.684  0.00  0.00    +0.000 C 
ATOM     15  N   UNL     1       2.554   6.253  19.719  0.00  0.00    +0.000 N 
ATOM     16  C   UNL     1       1.988   7.500  19.711  0.00  0.00    +0.000 A 
ATOM     17  N   UNL     1       1.388   7.898  20.834  0.00  0.00    +0.000 NA
ATOM     18  C   UNL     1       0.899   9.151  20.877  0.00  0.00    +0.000 A 
ATOM     19  C   UNL     1       0.952  10.089  19.857  0.00  0.00    +0.000 A 
ATOM     20  C   UNL     1       1.530   9.563  18.723  0.00  0.00    +0.000 A 
ATOM     21  N   UNL     1       2.060   8.303  18.631  0.00  0.00    +0.000 NA
ATOM     22  C   UNL     1       3.415   5.764  18.649  0.00  0.00    +0.000 C 
ATOM     23  C   UNL     1       2.791   4.519  17.974  0.00  0.00    +0.000 C 
ENDBRANCH   1  19
BRANCH   5  24
ATOM     24  N   UNL     1      -2.489  15.182  21.945  0.00  0.00    +0.000 N 
ATOM     25  H   UNL     1      -2.056  15.672  22.726  0.00  0.00    +0.000 HD
BRANCH  24  26
ATOM     26  C   UNL     1      -3.932  15.475  21.916  0.00  0.00    +0.000 C 
ATOM     27  C   UNL     1      -4.673  14.985  20.675  0.00  0.00    +0.000 C 
ATOM     28  C   UNL     1      -4.576  13.477  20.477  0.00  0.00    +0.000 C 
ATOM     29  C   UNL     1      -4.973  12.611  21.691  0.00  0.00    +0.000 C 
ATOM     30  C   UNL     1      -4.642  13.258  23.060  0.00  0.00    +0.000 C 
ATOM     31  C   UNL     1      -4.605  14.795  23.126  0.00  0.00    +0.000 C 
BRANCH  29  32
ATOM     32  N   UNL     1      -6.326  12.002  21.651  0.00  0.00    +0.000 NA
ATOM     33  C   UNL     1      -7.410  12.824  22.169  0.00  0.00    +0.000 C 
ATOM     34  C   UNL     1      -6.670  11.498  20.314  0.00  0.00    +0.000 C 
ENDBRANCH  29  32
ENDBRANCH  24  26
ENDBRANCH   5  24
TORSDOF 4
ENDMDL
MODEL 9
REMARK VINA RESULT:      -7.7      2.148     11.293
REMARK  Name = 
REMARK  7 active torsions:
REMARK  status: ('A' for Active; 'I' for Inactive)
REMARK    1  A    between atoms: C_1  and  N_2
REMARK    2  A    between atoms: C_9  and  C_10
REMARK    3  A    between atoms: C_14  and  N_15
REMARK    4  A    between atoms: N_15  and  C_16
REMARK    5  A    between atoms: C_19  and  N_20
REMARK    6  A    between atoms: N_20  and  C_21
REMARK    7  A    between atoms: N_20  and  C_22
REMARK                            x       y       z     vdW  Elec       q    Type
REMARK                         _______ _______ _______ _____ _____    ______ ____
ROOT
ATOM      1  C   UNL     1       0.280  10.186  19.502  0.00  0.00    +0.000 A 
ATOM      2  C   UNL     1       0.552  11.008  20.600  0.00  0.00    +0.000 A 
ATOM      3  C   UNL     1      -0.391  11.857  21.150  0.00  0.00    +0.000 A 
ATOM      4  C   UNL     1      -1.650  12.017  20.569  0.00  0.00    +0.000 A 
ATOM      5  C   UNL     1      -2.635  12.858  21.174  0.00  0.00    +0.000 A 
ATOM      6  C   UNL     1      -3.800  13.080  20.453  0.00  0.00    +0.000 A 
ATOM      7  C   UNL     1      -3.952  12.430  19.231  0.00  0.00    +0.000 A 
ATOM      8  N   UNL     1      -3.069  11.545  18.700  0.00  0.00    +0.000 NA
ATOM      9  C   UNL     1      -1.918  11.327  19.361  0.00  0.00    +0.000 A 
ATOM     10  C   UNL     1      -0.962  10.401  18.871  0.00  0.00    +0.000 A 
ENDROOT
BRANCH   1  19
ATOM     11  C   UNL     1       7.773   4.667  17.867  0.00  0.00    +0.000 C 
ATOM     12  N   UNL     1       6.379   4.890  17.497  0.00  0.00    +0.000 NA
ATOM     13  C   UNL     1       6.177   6.269  16.998  0.00  0.00    +0.000 C 
ATOM     14  C   UNL     1       4.712   6.520  16.572  0.00  0.00    +0.000 C 
ATOM     15  N   UNL     1       3.801   6.195  17.675  0.00  0.00    +0.000 N 
ATOM     16  C   UNL     1       3.014   7.174  18.222  0.00  0.00    +0.000 A 
ATOM     17  N   UNL     1       2.766   8.243  17.463  0.00  0.00    +0.000 NA
ATOM     18  C   UNL     1       1.927   9.178  17.946  0.00  0.00    +0.000 A 
ATOM     19  C   UNL     1       1.282   9.148  19.173  0.00  0.00    +0.000 A 
ATOM     20  C   UNL     1       1.652   8.041  19.906  0.00  0.00    +0.000 A 
ATOM     21  N   UNL     1       2.485   7.051  19.456  0.00  0.00    +0.000 NA
ATOM     22  C   UNL     1       3.989   4.890  18.295  0.00  0.00    +0.000 C 
ATOM     23  C   UNL     1       5.477   4.666  18.654  0.00  0.00    +0.000 C 
ENDBRANCH   1  19
BRANCH   5  24
ATOM     24  N   UNL     1      -2.369  13.410  22.435  0.00  0.00    +0.000 N 
ATOM     25  H   UNL     1      -2.033  12.661  23.037  0.00  0.00    +0.000 HD
BRANCH  24  26
ATOM     26  C   UNL     1      -1.682  14.667  22.778  0.00  0.00    +0.000 C 
ATOM     27  C   UNL     1      -2.424  15.943  22.388  0.00  0.00    +0.000 C 
ATOM     28  C   UNL     1      -3.798  16.059  23.037  0.00  0.00    +0.000 C 
ATOM     29  C   UNL     1      -3.836  15.887  24.570  0.00  0.00    +0.000 C 
ATOM     30  C   UNL     1      -2.776  14.898  25.118  0.00  0.00    +0.000 C 
ATOM     31  C   UNL     1      -1.481  14.726  24.305  0.00  0.00    +0.000 C 
BRANCH  29  32
ATOM     32  N   UNL     1      -3.933  17.134  25.369  0.00  0.00    +0.000 NA
ATOM     33  C   UNL     1      -2.833  18.076  25.215  0.00  0.00    +0.000 C 
ATOM     34  C   UNL     1      -5.217  17.821  25.176  0.00  0.00    +0.000 C 
ENDBRANCH  29  32
ENDBRANCH  24  26
ENDBRANCH   5  24
TORSDOF 4
ENDMDL
