MODEL 1
REMARK VINA RESULT:      -7.7      0.000      0.000
REMARK  Name = 
REMARK  7 active torsions:
REMARK  status: ('A' for Active; 'I' for Inactive)
REMARK    1  A    between atoms: C_1  and  C_2
REMARK    2  A    between atoms: C_2  and  C_3
REMARK    3  A    between atoms: C_5  and  C_6
REMARK    4  A    between atoms: C_11  and  C_13
REMARK    5  A    between atoms: C_15  and  C_16
REMARK    6  A    between atoms: C_16  and  C_17
REMARK    7  A    between atoms: C_16  and  C_18
REMARK                            x       y       z     vdW  Elec       q    Type
REMARK                         _______ _______ _______ _____ _____    ______ ____
ROOT
ATOM      1  C   UNL     1       5.014   5.861  19.319  0.00  0.00    +0.000 C 
ATOM      2  C   UNL     1       4.016   6.820  18.626  0.00  0.00    +0.000 C 
ATOM      3  C   UNL     1       4.091   6.762  17.091  0.00  0.00    +0.000 C 
ATOM      4  C   UNL     1       5.529   6.896  16.593  0.00  0.00    +0.000 C 
ATOM      5  N   UNL     1       6.430   5.969  17.292  0.00  0.00    +0.000 N 
ATOM      6  C   UNL     1       7.118   4.896  16.715  0.00  0.00    +0.000 C 
ATOM      7  O   UNL     1       7.924   4.213  17.365  0.00  0.00    +0.000 OA
ATOM      8  C   UNL     1       6.426   6.105  18.747  0.00  0.00    +0.000 C 
ENDROOT
BRANCH   6   9
ATOM      9  C   UNL     1       6.909   4.590  15.280  0.00  0.00    +0.000 A 
ATOM     10  C   UNL     1       6.010   3.625  14.756  0.00  0.00    +0.000 A 
ATOM     11  C   UNL     1       6.190   3.638  13.387  0.00  0.00    +0.000 A 
ATOM     12  N   UNL     1       7.102   4.624  13.158  0.00  0.00    +0.000 N 
ATOM     13  N   UNL     1       7.522   5.238  14.265  0.00  0.00    +0.000 NA
ATOM     14  H   UNL     1       7.477   4.943  12.268  0.00  0.00    +0.000 HD
BRANCH  11  15
ATOM     15  C   UNL     1       5.569   2.838  12.292  0.00  0.00    +0.000 C 
ATOM     16  C   UNL     1       4.505   3.653  11.556  0.00  0.00    +0.000 C 
ATOM     17  C   UNL     1       6.646   2.364  11.318  0.00  0.00    +0.000 C 
ENDBRANCH  11  15
ENDBRANCH   6   9
BRANCH   1  20
ATOM     18  C   UNL     1       3.405   2.834  18.570  0.00  0.00    +0.000 A 
ATOM     19  N   UNL     1       3.316   4.084  18.934  0.00  0.00    +0.000 NA
ATOM     20  C   UNL     1       4.617   4.430  19.154  0.00  0.00    +0.000 A 
ATOM     21  N   UNL     1       5.485   3.411  19.081  0.00  0.00    +0.000 NA
ATOM     22  O   UNL     1       4.672   2.334  18.680  0.00  0.00    +0.000 OA
BRANCH  18  24
ATOM     23  C   UNL     1       1.000   2.256  18.619  0.00  0.00    +0.000 C 
ATOM     24  C   UNL     1       2.348   1.997  17.969  0.00  0.00    +0.000 C 
ENDBRANCH  18  24
ENDBRANCH   1  20
TORSDOF 4
ENDMDL
MODEL 2
REMARK VINA RESULT:      -7.6      0.742      1.048
REMARK  Name = 
REMARK  7 active torsions:
REMARK  status: ('A' for Active; 'I' for Inactive)
REMARK    1  A    between atoms: C_1  and  C_2
REMARK    2  A    between atoms: C_2  and  C_3
REMARK    3  A    between atoms: C_5  and  C_6
REMARK    4  A    between atoms: C_11  and  C_13
REMARK    5  A    between atoms: C_15  and  C_16
REMARK    6  A    between atoms: C_16  and  C_17
REMARK    7  A    between atoms: C_16  and  C_18
REMARK                            x       y       z     vdW  Elec       q    Type
REMARK                         _______ _______ _______ _____ _____    ______ ____
ROOT
ATOM      1  C   UNL     1       4.869   5.713  18.921  0.00  0.00    +0.000 C 
ATOM      2  C   UNL     1       4.011   6.807  18.240  0.00  0.00    +0.000 C 
ATOM      3  C   UNL     1       4.256   6.911  16.725  0.00  0.00    +0.000 C 
ATOM      4  C   UNL     1       5.746   6.998  16.402  0.00  0.00    +0.000 C 
ATOM      5  N   UNL     1       6.508   5.942  17.081  0.00  0.00    +0.000 N 
ATOM      6  C   UNL     1       7.196   4.892  16.461  0.00  0.00    +0.000 C 
ATOM      7  O   UNL     1       7.883   4.090  17.110  0.00  0.00    +0.000 OA
ATOM      8  C   UNL     1       6.347   5.920  18.534  0.00  0.00    +0.000 C 
ENDROOT
BRANCH   6   9
ATOM      9  C   UNL     1       7.133   4.759  14.986  0.00  0.00    +0.000 A 
ATOM     10  C   UNL     1       6.274   3.891  14.264  0.00  0.00    +0.000 A 
ATOM     11  C   UNL     1       6.599   4.053  12.932  0.00  0.00    +0.000 A 
ATOM     12  N   UNL     1       7.552   5.026  12.914  0.00  0.00    +0.000 N 
ATOM     13  N   UNL     1       7.865   5.496  14.122  0.00  0.00    +0.000 NA
ATOM     14  H   UNL     1       8.026   5.431  12.111  0.00  0.00    +0.000 HD
BRANCH  11  15
ATOM     15  C   UNL     1       6.079   3.404  11.693  0.00  0.00    +0.000 C 
ATOM     16  C   UNL     1       6.710   2.026  11.491  0.00  0.00    +0.000 C 
ATOM     17  C   UNL     1       4.558   3.289  11.764  0.00  0.00    +0.000 C 
ENDBRANCH  11  15
ENDBRANCH   6   9
BRANCH   1  20
ATOM     18  C   UNL     1       3.227   2.624  18.648  0.00  0.00    +0.000 A 
ATOM     19  N   UNL     1       3.646   3.601  19.404  0.00  0.00    +0.000 NA
ATOM     20  C   UNL     1       4.412   4.338  18.551  0.00  0.00    +0.000 A 
ATOM     21  N   UNL     1       4.599   3.782  17.346  0.00  0.00    +0.000 NA
ATOM     22  O   UNL     1       3.794   2.629  17.405  0.00  0.00    +0.000 OA
BRANCH  18  24
ATOM     23  C   UNL     1       0.791   2.290  18.927  0.00  0.00    +0.000 C 
ATOM     24  C   UNL     1       2.165   1.643  18.953  0.00  0.00    +0.000 C 
ENDBRANCH  18  24
ENDBRANCH   1  20
TORSDOF 4
ENDMDL
MODEL 3
REMARK VINA RESULT:      -7.0      2.137      2.821
REMARK  Name = 
REMARK  7 active torsions:
REMARK  status: ('A' for Active; 'I' for Inactive)
REMARK    1  A    between atoms: C_1  and  C_2
REMARK    2  A    between atoms: C_2  and  C_3
REMARK    3  A    between atoms: C_5  and  C_6
REMARK    4  A    between atoms: C_11  and  C_13
REMARK    5  A    between atoms: C_15  and  C_16
REMARK    6  A    between atoms: C_16  and  C_17
REMARK    7  A    between atoms: C_16  and  C_18
REMARK                            x       y       z     vdW  Elec       q    Type
REMARK                         _______ _______ _______ _____ _____    ______ ____
ROOT
ATOM      1  C   UNL     1       3.078   3.765  20.028  0.00  0.00    +0.000 C 
ATOM      2  C   UNL     1       1.816   3.987  19.160  0.00  0.00    +0.000 C 
ATOM      3  C   UNL     1       2.142   4.340  17.699  0.00  0.00    +0.000 C 
ATOM      4  C   UNL     1       3.166   5.470  17.609  0.00  0.00    +0.000 C 
ATOM      5  N   UNL     1       4.335   5.207  18.459  0.00  0.00    +0.000 N 
ATOM      6  C   UNL     1       5.644   4.989  18.015  0.00  0.00    +0.000 C 
ATOM      7  O   UNL     1       6.588   4.856  18.808  0.00  0.00    +0.000 OA
ATOM      8  C   UNL     1       4.019   4.976  19.867  0.00  0.00    +0.000 C 
ENDROOT
BRANCH   6   9
ATOM      9  C   UNL     1       5.917   4.955  16.559  0.00  0.00    +0.000 A 
ATOM     10  C   UNL     1       5.707   3.847  15.697  0.00  0.00    +0.000 A 
ATOM     11  C   UNL     1       6.153   4.242  14.451  0.00  0.00    +0.000 A 
ATOM     12  N   UNL     1       6.529   5.542  14.604  0.00  0.00    +0.000 N 
ATOM     13  N   UNL     1       6.364   6.010  15.841  0.00  0.00    +0.000 NA
ATOM     14  H   UNL     1       6.896   6.180  13.901  0.00  0.00    +0.000 HD
BRANCH  11  15
ATOM     15  C   UNL     1       6.228   3.524  13.146  0.00  0.00    +0.000 C 
ATOM     16  C   UNL     1       4.867   3.514  12.447  0.00  0.00    +0.000 C 
ATOM     17  C   UNL     1       7.281   4.176  12.253  0.00  0.00    +0.000 C 
ENDBRANCH  11  15
ENDBRANCH   6   9
BRANCH   1  20
ATOM     18  C   UNL     1       4.975   0.813  19.986  0.00  0.00    +0.000 A 
ATOM     19  N   UNL     1       4.818   2.032  20.426  0.00  0.00    +0.000 NA
ATOM     20  C   UNL     1       3.782   2.496  19.669  0.00  0.00    +0.000 A 
ATOM     21  N   UNL     1       3.393   1.669  18.689  0.00  0.00    +0.000 NA
ATOM     22  O   UNL     1       4.191   0.530  18.905  0.00  0.00    +0.000 OA
BRANCH  18  24
ATOM     23  C   UNL     1       6.106   0.038  22.046  0.00  0.00    +0.000 C 
ATOM     24  C   UNL     1       5.786  -0.262  20.592  0.00  0.00    +0.000 C 
ENDBRANCH  18  24
ENDBRANCH   1  20
TORSDOF 4
ENDMDL
MODEL 4
REMARK VINA RESULT:      -7.0      2.088      6.066
REMARK  Name = 
REMARK  7 active torsions:
REMARK  status: ('A' for Active; 'I' for Inactive)
REMARK    1  A    between atoms: C_1  and  C_2
REMARK    2  A    between atoms: C_2  and  C_3
REMARK    3  A    between atoms: C_5  and  C_6
REMARK    4  A    between atoms: C_11  and  C_13
REMARK    5  A    between atoms: C_15  and  C_16
REMARK    6  A    between atoms: C_16  and  C_17
REMARK    7  A    between atoms: C_16  and  C_18
REMARK                            x       y       z     vdW  Elec       q    Type
REMARK                         _______ _______ _______ _____ _____    ______ ____
ROOT
ATOM      1  C   UNL     1       7.242   5.696  16.620  0.00  0.00    +0.000 C 
ATOM      2  C   UNL     1       7.842   4.818  17.745  0.00  0.00    +0.000 C 
ATOM      3  C   UNL     1       6.819   4.450  18.833  0.00  0.00    +0.000 C 
ATOM      4  C   UNL     1       6.069   5.680  19.338  0.00  0.00    +0.000 C 
ATOM      5  N   UNL     1       5.531   6.477  18.227  0.00  0.00    +0.000 N 
ATOM      6  C   UNL     1       4.176   6.689  17.944  0.00  0.00    +0.000 C 
ATOM      7  O   UNL     1       3.811   7.445  17.032  0.00  0.00    +0.000 OA
ATOM      8  C   UNL     1       6.531   6.909  17.253  0.00  0.00    +0.000 C 
ENDROOT
BRANCH   6   9
ATOM      9  C   UNL     1       3.151   6.022  18.781  0.00  0.00    +0.000 A 
ATOM     10  C   UNL     1       2.726   4.673  18.662  0.00  0.00    +0.000 A 
ATOM     11  C   UNL     1       1.722   4.505  19.595  0.00  0.00    +0.000 A 
ATOM     12  N   UNL     1       1.645   5.695  20.253  0.00  0.00    +0.000 N 
ATOM     13  N   UNL     1       2.512   6.609  19.817  0.00  0.00    +0.000 NA
ATOM     14  H   UNL     1       1.031   5.952  21.022  0.00  0.00    +0.000 HD
BRANCH  11  15
ATOM     15  C   UNL     1       0.864   3.333  19.935  0.00  0.00    +0.000 C 
ATOM     16  C   UNL     1       0.873   2.301  18.806  0.00  0.00    +0.000 C 
ATOM     17  C   UNL     1       1.340   2.700  21.241  0.00  0.00    +0.000 C 
ENDBRANCH  11  15
ENDBRANCH   6   9
BRANCH   1  20
ATOM     18  C   UNL     1       5.559   4.106  13.982  0.00  0.00    +0.000 A 
ATOM     19  N   UNL     1       6.266   5.118  14.405  0.00  0.00    +0.000 NA
ATOM     20  C   UNL     1       6.299   4.923  15.754  0.00  0.00    +0.000 A 
ATOM     21  N   UNL     1       5.526   3.920  16.192  0.00  0.00    +0.000 NA
ATOM     22  O   UNL     1       5.031   3.362  14.998  0.00  0.00    +0.000 OA
BRANCH  18  24
ATOM     23  C   UNL     1       6.727   3.302  11.954  0.00  0.00    +0.000 C 
ATOM     24  C   UNL     1       5.391   3.649  12.588  0.00  0.00    +0.000 C 
ENDBRANCH  18  24
ENDBRANCH   1  20
TORSDOF 4
ENDMDL
MODEL 5
REMARK VINA RESULT:      -6.9      1.620      1.992
REMARK  Name = 
REMARK  7 active torsions:
REMARK  status: ('A' for Active; 'I' for Inactive)
REMARK    1  A    between atoms: C_1  and  C_2
REMARK    2  A    between atoms: C_2  and  C_3
REMARK    3  A    between atoms: C_5  and  C_6
REMARK    4  A    between atoms: C_11  and  C_13
REMARK    5  A    between atoms: C_15  and  C_16
REMARK    6  A    between atoms: C_16  and  C_17
REMARK    7  A    between atoms: C_16  and  C_18
REMARK                            x       y       z     vdW  Elec       q    Type
REMARK                         _______ _______ _______ _____ _____    ______ ____
ROOT
ATOM      1  C   UNL     1       3.011   6.386  19.193  0.00  0.00    +0.000 C 
ATOM      2  C   UNL     1       2.800   7.677  18.366  0.00  0.00    +0.000 C 
ATOM      3  C   UNL     1       3.617   7.700  17.063  0.00  0.00    +0.000 C 
ATOM      4  C   UNL     1       5.083   7.355  17.314  0.00  0.00    +0.000 C 
ATOM      5  N   UNL     1       5.220   6.127  18.109  0.00  0.00    +0.000 N 
ATOM      6  C   UNL     1       5.783   4.921  17.674  0.00  0.00    +0.000 C 
ATOM      7  O   UNL     1       5.933   3.958  18.440  0.00  0.00    +0.000 OA
ATOM      8  C   UNL     1       4.523   6.158  19.393  0.00  0.00    +0.000 C 
ENDROOT
BRANCH   6   9
ATOM      9  C   UNL     1       6.249   4.805  16.272  0.00  0.00    +0.000 A 
ATOM     10  C   UNL     1       5.649   4.015  15.257  0.00  0.00    +0.000 A 
ATOM     11  C   UNL     1       6.445   4.161  14.138  0.00  0.00    +0.000 A 
ATOM     12  N   UNL     1       7.407   5.055  14.500  0.00  0.00    +0.000 N 
ATOM     13  N   UNL     1       7.294   5.489  15.756  0.00  0.00    +0.000 NA
ATOM     14  H   UNL     1       8.167   5.427  13.937  0.00  0.00    +0.000 HD
BRANCH  11  15
ATOM     15  C   UNL     1       6.364   3.566  12.773  0.00  0.00    +0.000 C 
ATOM     16  C   UNL     1       4.918   3.529  12.277  0.00  0.00    +0.000 C 
ATOM     17  C   UNL     1       7.239   4.362  11.806  0.00  0.00    +0.000 C 
ENDBRANCH  11  15
ENDBRANCH   6   9
BRANCH   1  20
ATOM     18  C   UNL     1       1.631   3.254  18.417  0.00  0.00    +0.000 A 
ATOM     19  N   UNL     1       2.521   3.950  19.070  0.00  0.00    +0.000 NA
ATOM     20  C   UNL     1       2.378   5.199  18.541  0.00  0.00    +0.000 A 
ATOM     21  N   UNL     1       1.543   5.270  17.495  0.00  0.00    +0.000 NA
ATOM     22  O   UNL     1       1.031   3.961  17.414  0.00  0.00    +0.000 OA
BRANCH  18  24
ATOM     23  C   UNL     1       2.171   1.122  19.550  0.00  0.00    +0.000 C 
ATOM     24  C   UNL     1       1.153   1.891  18.726  0.00  0.00    +0.000 C 
ENDBRANCH  18  24
ENDBRANCH   1  20
TORSDOF 4
ENDMDL
MODEL 6
REMARK VINA RESULT:      -6.8      2.818      6.627
REMARK  Name = 
REMARK  7 active torsions:
REMARK  status: ('A' for Active; 'I' for Inactive)
REMARK    1  A    between atoms: C_1  and  C_2
REMARK    2  A    between atoms: C_2  and  C_3
REMARK    3  A    between atoms: C_5  and  C_6
REMARK    4  A    between atoms: C_11  and  C_13
REMARK    5  A    between atoms: C_15  and  C_16
REMARK    6  A    between atoms: C_16  and  C_17
REMARK    7  A    between atoms: C_16  and  C_18
REMARK                            x       y       z     vdW  Elec       q    Type
REMARK                         _______ _______ _______ _____ _____    ______ ____
ROOT
ATOM      1  C   UNL     1       7.078   4.564  16.814  0.00  0.00    +0.000 C 
ATOM      2  C   UNL     1       6.523   4.879  15.404  0.00  0.00    +0.000 C 
ATOM      3  C   UNL     1       5.226   5.704  15.435  0.00  0.00    +0.000 C 
ATOM      4  C   UNL     1       4.197   5.097  16.386  0.00  0.00    +0.000 C 
ATOM      5  N   UNL     1       4.782   4.812  17.703  0.00  0.00    +0.000 N 
ATOM      6  C   UNL     1       4.433   5.428  18.911  0.00  0.00    +0.000 C 
ATOM      7  O   UNL     1       4.922   5.067  19.992  0.00  0.00    +0.000 OA
ATOM      8  C   UNL     1       5.955   3.941  17.668  0.00  0.00    +0.000 C 
ENDROOT
BRANCH   6   9
ATOM      9  C   UNL     1       3.424   6.513  18.903  0.00  0.00    +0.000 A 
ATOM     10  C   UNL     1       3.240   7.473  17.875  0.00  0.00    +0.000 A 
ATOM     11  C   UNL     1       2.241   8.319  18.314  0.00  0.00    +0.000 A 
ATOM     12  N   UNL     1       1.838   7.802  19.509  0.00  0.00    +0.000 N 
ATOM     13  N   UNL     1       2.498   6.702  19.870  0.00  0.00    +0.000 NA
ATOM     14  H   UNL     1       1.108   8.142  20.129  0.00  0.00    +0.000 HD
BRANCH  11  15
ATOM     15  C   UNL     1       1.622   9.532  17.706  0.00  0.00    +0.000 C 
ATOM     16  C   UNL     1       0.179   9.707  18.181  0.00  0.00    +0.000 C 
ATOM     17  C   UNL     1       2.451  10.768  18.051  0.00  0.00    +0.000 C 
ENDBRANCH  11  15
ENDBRANCH   6   9
BRANCH   1  20
ATOM     18  C   UNL     1       7.942   7.825  17.783  0.00  0.00    +0.000 A 
ATOM     19  N   UNL     1       7.673   6.980  16.825  0.00  0.00    +0.000 NA
ATOM     20  C   UNL     1       7.633   5.784  17.478  0.00  0.00    +0.000 A 
ATOM     21  N   UNL     1       8.005   5.837  18.765  0.00  0.00    +0.000 NA
ATOM     22  O   UNL     1       8.207   7.214  18.976  0.00  0.00    +0.000 OA
BRANCH  18  24
ATOM     23  C   UNL     1       8.890   9.939  18.650  0.00  0.00    +0.000 C 
ATOM     24  C   UNL     1       7.868   9.299  17.727  0.00  0.00    +0.000 C 
ENDBRANCH  18  24
ENDBRANCH   1  20
TORSDOF 4
ENDMDL
MODEL 7
REMARK VINA RESULT:      -6.8      3.384      7.293
REMARK  Name = 
REMARK  7 active torsions:
REMARK  status: ('A' for Active; 'I' for Inactive)
REMARK    1  A    between atoms: C_1  and  C_2
REMARK    2  A    between atoms: C_2  and  C_3
REMARK    3  A    between atoms: C_5  and  C_6
REMARK    4  A    between atoms: C_11  and  C_13
REMARK    5  A    between atoms: C_15  and  C_16
REMARK    6  A    between atoms: C_16  and  C_17
REMARK    7  A    between atoms: C_16  and  C_18
REMARK                            x       y       z     vdW  Elec       q    Type
REMARK                         _______ _______ _______ _____ _____    ______ ____
ROOT
ATOM      1  C   UNL     1       3.349   2.385  18.537  0.00  0.00    +0.000 C 
ATOM      2  C   UNL     1       2.616   2.664  17.202  0.00  0.00    +0.000 C 
ATOM      3  C   UNL     1       1.958   4.053  17.154  0.00  0.00    +0.000 C 
ATOM      4  C   UNL     1       1.108   4.315  18.395  0.00  0.00    +0.000 C 
ATOM      5  N   UNL     1       1.852   4.025  19.629  0.00  0.00    +0.000 N 
ATOM      6  C   UNL     1       2.228   4.957  20.603  0.00  0.00    +0.000 C 
ATOM      7  O   UNL     1       2.784   4.611  21.655  0.00  0.00    +0.000 OA
ATOM      8  C   UNL     1       2.385   2.667  19.708  0.00  0.00    +0.000 C 
ENDROOT
BRANCH   6   9
ATOM      9  C   UNL     1       1.920   6.391  20.389  0.00  0.00    +0.000 A 
ATOM     10  C   UNL     1       1.152   7.216  21.251  0.00  0.00    +0.000 A 
ATOM     11  C   UNL     1       1.072   8.447  20.631  0.00  0.00    +0.000 A 
ATOM     12  N   UNL     1       1.828   8.327  19.504  0.00  0.00    +0.000 N 
ATOM     13  N   UNL     1       2.380   7.123  19.350  0.00  0.00    +0.000 NA
ATOM     14  H   UNL     1       2.023   9.032  18.797  0.00  0.00    +0.000 HD
BRANCH  11  15
ATOM     15  C   UNL     1       0.383   9.713  21.014  0.00  0.00    +0.000 C 
ATOM     16  C   UNL     1      -0.527  10.204  19.888  0.00  0.00    +0.000 C 
ATOM     17  C   UNL     1      -0.421   9.501  22.296  0.00  0.00    +0.000 C 
ENDBRANCH  11  15
ENDBRANCH   6   9
BRANCH   1  20
ATOM     18  C   UNL     1       5.946   4.721  18.202  0.00  0.00    +0.000 A 
ATOM     19  N   UNL     1       5.041   3.970  17.635  0.00  0.00    +0.000 NA
ATOM     20  C   UNL     1       4.594   3.201  18.669  0.00  0.00    +0.000 A 
ATOM     21  N   UNL     1       5.283   3.345  19.810  0.00  0.00    +0.000 NA
ATOM     22  O   UNL     1       6.191   4.375  19.500  0.00  0.00    +0.000 OA
BRANCH  18  24
ATOM     23  C   UNL     1       7.743   6.391  18.520  0.00  0.00    +0.000 C 
ATOM     24  C   UNL     1       6.601   5.918  17.637  0.00  0.00    +0.000 C 
ENDBRANCH  18  24
ENDBRANCH   1  20
TORSDOF 4
ENDMDL
MODEL 8
REMARK VINA RESULT:      -6.8      2.436      3.636
REMARK  Name = 
REMARK  7 active torsions:
REMARK  status: ('A' for Active; 'I' for Inactive)
REMARK    1  A    between atoms: C_1  and  C_2
REMARK    2  A    between atoms: C_2  and  C_3
REMARK    3  A    between atoms: C_5  and  C_6
REMARK    4  A    between atoms: C_11  and  C_13
REMARK    5  A    between atoms: C_15  and  C_16
REMARK    6  A    between atoms: C_16  and  C_17
REMARK    7  A    between atoms: C_16  and  C_18
REMARK                            x       y       z     vdW  Elec       q    Type
REMARK                         _______ _______ _______ _____ _____    ______ ____
ROOT
ATOM      1  C   UNL     1       2.321   3.310  20.449  0.00  0.00    +0.000 C 
ATOM      2  C   UNL     1       1.224   2.970  19.412  0.00  0.00    +0.000 C 
ATOM      3  C   UNL     1       1.608   3.366  17.976  0.00  0.00    +0.000 C 
ATOM      4  C   UNL     1       2.106   4.808  17.904  0.00  0.00    +0.000 C 
ATOM      5  N   UNL     1       3.137   5.073  18.916  0.00  0.00    +0.000 N 
ATOM      6  C   UNL     1       4.479   5.384  18.665  0.00  0.00    +0.000 C 
ATOM      7  O   UNL     1       5.263   5.674  19.579  0.00  0.00    +0.000 OA
ATOM      8  C   UNL     1       2.723   4.791  20.289  0.00  0.00    +0.000 C 
ENDROOT
BRANCH   6   9
ATOM      9  C   UNL     1       4.965   5.404  17.265  0.00  0.00    +0.000 A 
ATOM     10  C   UNL     1       5.433   4.285  16.529  0.00  0.00    +0.000 A 
ATOM     11  C   UNL     1       5.838   4.775  15.303  0.00  0.00    +0.000 A 
ATOM     12  N   UNL     1       5.538   6.104  15.335  0.00  0.00    +0.000 N 
ATOM     13  N   UNL     1       4.980   6.503  16.479  0.00  0.00    +0.000 NA
ATOM     14  H   UNL     1       5.676   6.800  14.606  0.00  0.00    +0.000 HD
BRANCH  11  15
ATOM     15  C   UNL     1       6.444   4.110  14.114  0.00  0.00    +0.000 C 
ATOM     16  C   UNL     1       5.369   3.715  13.099  0.00  0.00    +0.000 C 
ATOM     17  C   UNL     1       7.473   5.035  13.467  0.00  0.00    +0.000 C 
ENDBRANCH  11  15
ENDBRANCH   6   9
BRANCH   1  20
ATOM     18  C   UNL     1       5.050   1.162  20.953  0.00  0.00    +0.000 A 
ATOM     19  N   UNL     1       4.323   2.159  21.376  0.00  0.00    +0.000 NA
ATOM     20  C   UNL     1       3.514   2.420  20.309  0.00  0.00    +0.000 A 
ATOM     21  N   UNL     1       3.809   1.725  19.202  0.00  0.00    +0.000 NA
ATOM     22  O   UNL     1       4.840   0.870  19.635  0.00  0.00    +0.000 OA
BRANCH  18  24
ATOM     23  C   UNL     1       6.251  -1.000  21.021  0.00  0.00    +0.000 C 
ATOM     24  C   UNL     1       5.937   0.293  21.753  0.00  0.00    +0.000 C 
ENDBRANCH  18  24
ENDBRANCH   1  20
TORSDOF 4
ENDMDL
MODEL 9
REMARK VINA RESULT:      -6.7      2.651      6.709
REMARK  Name = 
REMARK  7 active torsions:
REMARK  status: ('A' for Active; 'I' for Inactive)
REMARK    1  A    between atoms: C_1  and  C_2
REMARK    2  A    between atoms: C_2  and  C_3
REMARK    3  A    between atoms: C_5  and  C_6
REMARK    4  A    between atoms: C_11  and  C_13
REMARK    5  A    between atoms: C_15  and  C_16
REMARK    6  A    between atoms: C_16  and  C_17
REMARK    7  A    between atoms: C_16  and  C_18
REMARK                            x       y       z     vdW  Elec       q    Type
REMARK                         _______ _______ _______ _____ _____    ______ ____
ROOT
ATOM      1  C   UNL     1       7.523   5.565  16.167  0.00  0.00    +0.000 C 
ATOM      2  C   UNL     1       6.465   5.384  15.052  0.00  0.00    +0.000 C 
ATOM      3  C   UNL     1       5.047   5.147  15.598  0.00  0.00    +0.000 C 
ATOM      4  C   UNL     1       5.029   4.046  16.655  0.00  0.00    +0.000 C 
ATOM      5  N   UNL     1       6.058   4.266  17.681  0.00  0.00    +0.000 N 
ATOM      6  C   UNL     1       5.828   4.541  19.034  0.00  0.00    +0.000 C 
ATOM      7  O   UNL     1       6.759   4.632  19.848  0.00  0.00    +0.000 OA
ATOM      8  C   UNL     1       7.417   4.386  17.157  0.00  0.00    +0.000 C 
ENDROOT
BRANCH   6   9
ATOM      9  C   UNL     1       4.434   4.687  19.515  0.00  0.00    +0.000 A 
ATOM     10  C   UNL     1       3.561   3.628  19.876  0.00  0.00    +0.000 A 
ATOM     11  C   UNL     1       2.356   4.219  20.200  0.00  0.00    +0.000 A 
ATOM     12  N   UNL     1       2.577   5.559  20.091  0.00  0.00    +0.000 N 
ATOM     13  N   UNL     1       3.819   5.873  19.722  0.00  0.00    +0.000 NA
ATOM     14  H   UNL     1       1.928   6.322  20.267  0.00  0.00    +0.000 HD
BRANCH  11  15
ATOM     15  C   UNL     1       1.046   3.645  20.625  0.00  0.00    +0.000 C 
ATOM     16  C   UNL     1       0.369   2.912  19.466  0.00  0.00    +0.000 C 
ATOM     17  C   UNL     1       1.251   2.700  21.807  0.00  0.00    +0.000 C 
ENDBRANCH  11  15
ENDBRANCH   6   9
BRANCH   1  20
ATOM     18  C   UNL     1       7.955   8.513  18.022  0.00  0.00    +0.000 A 
ATOM     19  N   UNL     1       8.243   7.252  17.848  0.00  0.00    +0.000 NA
ATOM     20  C   UNL     1       7.363   6.869  16.880  0.00  0.00    +0.000 A 
ATOM     21  N   UNL     1       6.453   7.798  16.554  0.00  0.00    +0.000 NA
ATOM     22  O   UNL     1       6.854   8.911  17.318  0.00  0.00    +0.000 OA
BRANCH  18  24
ATOM     23  C   UNL     1       8.967  10.769  17.939  0.00  0.00    +0.000 C 
ATOM     24  C   UNL     1       8.737   9.518  18.769  0.00  0.00    +0.000 C 
ENDBRANCH  18  24
ENDBRANCH   1  20
TORSDOF 4
ENDMDL
