MODEL 1
REMARK VINA RESULT:      -8.0      0.000      0.000
REMARK  Name = 
REMARK  6 active torsions:
REMARK  status: ('A' for Active; 'I' for Inactive)
REMARK    1  A    between atoms: C_2  and  C_3
REMARK    2  A    between atoms: C_8  and  O_9
REMARK    3  A    between atoms: O_9  and  C_10
REMARK    4  A    between atoms: N_14  and  C_15
REMARK    5  A    between atoms: C_29  and  O_30
REMARK    6  A    between atoms: O_30  and  C_31
REMARK                            x       y       z     vdW  Elec       q    Type
REMARK                         _______ _______ _______ _____ _____    ______ ____
ROOT
ATOM      1  C   UNL     1       2.345   6.934  18.921  0.00  0.00    +0.000 A 
ATOM      2  C   UNL     1       2.083   8.315  18.958  0.00  0.00    +0.000 A 
ATOM      3  C   UNL     1       1.467   8.955  20.058  0.00  0.00    +0.000 A 
ATOM      4  C   UNL     1       1.189  10.331  20.154  0.00  0.00    +0.000 A 
ATOM      5  N   UNL     1       1.400  11.183  19.033  0.00  0.00    +0.000 N 
ATOM      6  N   UNL     1       0.657  10.864  21.264  0.00  0.00    +0.000 NA
ATOM      7  C   UNL     1       0.357  10.033  22.265  0.00  0.00    +0.000 A 
ATOM      8  N   UNL     1       0.536   8.713  22.261  0.00  0.00    +0.000 NA
ATOM      9  C   UNL     1       1.093   8.188  21.168  0.00  0.00    +0.000 A 
ATOM     10  C   UNL     1       1.323   6.823  21.122  0.00  0.00    +0.000 A 
ATOM     11  C   UNL     1       1.944   6.180  20.033  0.00  0.00    +0.000 A 
ATOM     12  H   UNL     1       2.321  11.045  18.626  0.00  0.00    +0.000 HD
ENDROOT
BRANCH   5  13
ATOM     13  C   UNL     1       0.997  12.540  18.923  0.00  0.00    +0.000 A 
ATOM     14  C   UNL     1      -0.351  12.923  18.977  0.00  0.00    +0.000 A 
ATOM     15  C   UNL     1      -0.720  14.269  18.940  0.00  0.00    +0.000 A 
ATOM     16  C   UNL     1       0.257  15.242  18.782  0.00  0.00    +0.000 A 
ATOM     17  F   UNL     1      -0.121  16.527  18.771  0.00  0.00    +0.000 F 
ATOM     18  C   UNL     1       1.596  14.888  18.632  0.00  0.00    +0.000 A 
ATOM     19 CL   UNL     1       2.790  16.102  18.384  0.00  0.00    +0.000 Cl
ATOM     20  C   UNL     1       1.956  13.541  18.694  0.00  0.00    +0.000 A 
ATOM     21  F   UNL     1       3.244  13.178  18.560  0.00  0.00    +0.000 F 
ENDBRANCH   5  13
BRANCH  11  22
ATOM     22  O   UNL     1       2.120   4.849  20.290  0.00  0.00    +0.000 OA
ATOM     23  C   UNL     1       1.044   3.953  20.079  0.00  0.00    +0.000 C 
ENDBRANCH  11  22
BRANCH   1  24
ATOM     24  O   UNL     1       2.969   6.319  17.857  0.00  0.00    +0.000 OA
BRANCH  24  30
ATOM     25  C   UNL     1       6.563   4.822  14.598  0.00  0.00    +0.000 C 
ATOM     26  O   UNL     1       7.484   5.586  14.310  0.00  0.00    +0.000 OA
ATOM     27  N   UNL     1       5.633   5.122  15.588  0.00  0.00    +0.000 N 
ATOM     28  C   UNL     1       5.665   6.478  16.134  0.00  0.00    +0.000 C 
ATOM     29  C   UNL     1       5.409   6.508  17.629  0.00  0.00    +0.000 C 
ATOM     30  C   UNL     1       4.226   5.652  18.091  0.00  0.00    +0.000 C 
ATOM     31  C   UNL     1       4.231   4.275  17.421  0.00  0.00    +0.000 C 
ATOM     32  C   UNL     1       4.418   4.376  15.910  0.00  0.00    +0.000 C 
BRANCH  25  34
ATOM     33  C   UNL     1       6.223   3.550  12.534  0.00  0.00    +0.000 C 
ATOM     34  C   UNL     1       6.432   3.535  13.859  0.00  0.00    +0.000 C 
ENDBRANCH  25  34
ENDBRANCH  24  30
ENDBRANCH   1  24
TORSDOF 5
ENDMDL
MODEL 2
REMARK VINA RESULT:      -7.5      4.501      6.987
REMARK  Name = 
REMARK  6 active torsions:
REMARK  status: ('A' for Active; 'I' for Inactive)
REMARK    1  A    between atoms: C_2  and  C_3
REMARK    2  A    between atoms: C_8  and  O_9
REMARK    3  A    between atoms: O_9  and  C_10
REMARK    4  A    between atoms: N_14  and  C_15
REMARK    5  A    between atoms: C_29  and  O_30
REMARK    6  A    between atoms: O_30  and  C_31
REMARK                            x       y       z     vdW  Elec       q    Type
REMARK                         _______ _______ _______ _____ _____    ______ ____
ROOT
ATOM      1  C   UNL     1       1.178  12.154  19.211  0.00  0.00    +0.000 A 
ATOM      2  C   UNL     1      -0.068  12.291  19.849  0.00  0.00    +0.000 A 
ATOM      3  C   UNL     1      -0.662  13.545  20.121  0.00  0.00    +0.000 A 
ATOM      4  C   UNL     1      -1.907  13.742  20.747  0.00  0.00    +0.000 A 
ATOM      5  N   UNL     1      -2.616  12.635  21.293  0.00  0.00    +0.000 N 
ATOM      6  N   UNL     1      -2.424  14.969  20.910  0.00  0.00    +0.000 NA
ATOM      7  C   UNL     1      -1.693  16.007  20.497  0.00  0.00    +0.000 A 
ATOM      8  N   UNL     1      -0.487  15.935  19.935  0.00  0.00    +0.000 NA
ATOM      9  C   UNL     1       0.013  14.713  19.746  0.00  0.00    +0.000 A 
ATOM     10  C   UNL     1       1.253  14.582  19.145  0.00  0.00    +0.000 A 
ATOM     11  C   UNL     1       1.847  13.335  18.863  0.00  0.00    +0.000 A 
ATOM     12  H   UNL     1      -2.682  11.869  20.629  0.00  0.00    +0.000 HD
ENDROOT
BRANCH   5  13
ATOM     13  C   UNL     1      -3.780  12.701  22.103  0.00  0.00    +0.000 A 
ATOM     14  C   UNL     1      -3.712  12.696  23.504  0.00  0.00    +0.000 A 
ATOM     15  C   UNL     1      -4.863  12.835  24.283  0.00  0.00    +0.000 A 
ATOM     16  C   UNL     1      -6.103  12.915  23.663  0.00  0.00    +0.000 A 
ATOM     17  F   UNL     1      -7.189  13.069  24.430  0.00  0.00    +0.000 F 
ATOM     18  C   UNL     1      -6.211  12.829  22.276  0.00  0.00    +0.000 A 
ATOM     19 CL   UNL     1      -7.759  12.876  21.524  0.00  0.00    +0.000 Cl
ATOM     20  C   UNL     1      -5.052  12.714  21.508  0.00  0.00    +0.000 A 
ATOM     21  F   UNL     1      -5.134  12.637  20.167  0.00  0.00    +0.000 F 
ENDBRANCH   5  13
BRANCH  11  22
ATOM     22  O   UNL     1       3.028  13.501  18.193  0.00  0.00    +0.000 OA
ATOM     23  C   UNL     1       3.854  14.608  18.504  0.00  0.00    +0.000 C 
ENDBRANCH  11  22
BRANCH   1  24
ATOM     24  O   UNL     1       1.741  10.929  18.924  0.00  0.00    +0.000 OA
BRANCH  24  30
ATOM     25  C   UNL     1       2.625   5.955  19.423  0.00  0.00    +0.000 C 
ATOM     26  O   UNL     1       2.435   5.406  20.509  0.00  0.00    +0.000 OA
ATOM     27  N   UNL     1       2.267   7.278  19.190  0.00  0.00    +0.000 N 
ATOM     28  C   UNL     1       1.845   8.063  20.349  0.00  0.00    +0.000 C 
ATOM     29  C   UNL     1       0.695   9.000  20.029  0.00  0.00    +0.000 C 
ATOM     30  C   UNL     1       0.865   9.799  18.734  0.00  0.00    +0.000 C 
ATOM     31  C   UNL     1       1.373   8.917  17.590  0.00  0.00    +0.000 C 
ATOM     32  C   UNL     1       2.578   8.079  18.007  0.00  0.00    +0.000 C 
BRANCH  25  34
ATOM     33  C   UNL     1       2.568   4.223  17.694  0.00  0.00    +0.000 C 
ATOM     34  C   UNL     1       3.266   5.181  18.323  0.00  0.00    +0.000 C 
ENDBRANCH  25  34
ENDBRANCH  24  30
ENDBRANCH   1  24
TORSDOF 5
ENDMDL
MODEL 3
REMARK VINA RESULT:      -7.5      5.364      9.656
REMARK  Name = 
REMARK  6 active torsions:
REMARK  status: ('A' for Active; 'I' for Inactive)
REMARK    1  A    between atoms: C_2  and  C_3
REMARK    2  A    between atoms: C_8  and  O_9
REMARK    3  A    between atoms: O_9  and  C_10
REMARK    4  A    between atoms: N_14  and  C_15
REMARK    5  A    between atoms: C_29  and  O_30
REMARK    6  A    between atoms: O_30  and  C_31
REMARK                            x       y       z     vdW  Elec       q    Type
REMARK                         _______ _______ _______ _____ _____    ______ ____
ROOT
ATOM      1  C   UNL     1      -0.943  11.120  18.373  0.00  0.00    +0.000 A 
ATOM      2  C   UNL     1      -0.160   9.970  18.574  0.00  0.00    +0.000 A 
ATOM      3  C   UNL     1       0.457   9.662  19.809  0.00  0.00    +0.000 A 
ATOM      4  C   UNL     1       1.243   8.524  20.071  0.00  0.00    +0.000 A 
ATOM      5  N   UNL     1       1.591   7.638  19.013  0.00  0.00    +0.000 N 
ATOM      6  N   UNL     1       1.739   8.280  21.293  0.00  0.00    +0.000 NA
ATOM      7  C   UNL     1       1.500   9.182  22.247  0.00  0.00    +0.000 A 
ATOM      8  N   UNL     1       0.810  10.311  22.097  0.00  0.00    +0.000 NA
ATOM      9  C   UNL     1       0.291  10.539  20.888  0.00  0.00    +0.000 A 
ATOM     10  C   UNL     1      -0.455  11.687  20.684  0.00  0.00    +0.000 A 
ATOM     11  C   UNL     1      -1.080  11.995  19.459  0.00  0.00    +0.000 A 
ATOM     12  H   UNL     1       0.780   7.376  18.461  0.00  0.00    +0.000 HD
ENDROOT
BRANCH   5  13
ATOM     13  C   UNL     1       2.517   6.563  19.090  0.00  0.00    +0.000 A 
ATOM     14  C   UNL     1       3.719   6.564  18.368  0.00  0.00    +0.000 A 
ATOM     15  C   UNL     1       4.647   5.532  18.513  0.00  0.00    +0.000 A 
ATOM     16  C   UNL     1       4.350   4.454  19.336  0.00  0.00    +0.000 A 
ATOM     17  F   UNL     1       5.266   3.487  19.475  0.00  0.00    +0.000 F 
ATOM     18  C   UNL     1       3.124   4.380  19.994  0.00  0.00    +0.000 A 
ATOM     19 CL   UNL     1       2.746   3.013  20.970  0.00  0.00    +0.000 Cl
ATOM     20  C   UNL     1       2.213   5.428  19.860  0.00  0.00    +0.000 A 
ATOM     21  F   UNL     1       1.027   5.380  20.493  0.00  0.00    +0.000 F 
ENDBRANCH   5  13
BRANCH  11  22
ATOM     22  O   UNL     1      -1.817  13.142  19.565  0.00  0.00    +0.000 OA
ATOM     23  C   UNL     1      -2.668  13.320  20.682  0.00  0.00    +0.000 C 
ENDBRANCH  11  22
BRANCH   1  24
ATOM     24  O   UNL     1      -1.564  11.402  17.174  0.00  0.00    +0.000 OA
BRANCH  24  30
ATOM     25  C   UNL     1      -6.510  11.139  18.288  0.00  0.00    +0.000 C 
ATOM     26  O   UNL     1      -7.323  11.769  17.611  0.00  0.00    +0.000 OA
ATOM     27  N   UNL     1      -5.164  11.060  17.944  0.00  0.00    +0.000 N 
ATOM     28  C   UNL     1      -4.707  11.928  16.860  0.00  0.00    +0.000 C 
ATOM     29  C   UNL     1      -3.694  11.248  15.959  0.00  0.00    +0.000 C 
ATOM     30  C   UNL     1      -2.583  10.499  16.700  0.00  0.00    +0.000 C 
ATOM     31  C   UNL     1      -3.140   9.668  17.860  0.00  0.00    +0.000 C 
ATOM     32  C   UNL     1      -4.085  10.479  18.741  0.00  0.00    +0.000 C 
BRANCH  25  34
ATOM     33  C   UNL     1      -7.433  11.162  20.555  0.00  0.00    +0.000 C 
ATOM     34  C   UNL     1      -6.977  10.442  19.518  0.00  0.00    +0.000 C 
ENDBRANCH  25  34
ENDBRANCH  24  30
ENDBRANCH   1  24
TORSDOF 5
ENDMDL
MODEL 4
REMARK VINA RESULT:      -7.4      4.376      9.062
REMARK  Name = 
REMARK  6 active torsions:
REMARK  status: ('A' for Active; 'I' for Inactive)
REMARK    1  A    between atoms: C_2  and  C_3
REMARK    2  A    between atoms: C_8  and  O_9
REMARK    3  A    between atoms: O_9  and  C_10
REMARK    4  A    between atoms: N_14  and  C_15
REMARK    5  A    between atoms: C_29  and  O_30
REMARK    6  A    between atoms: O_30  and  C_31
REMARK                            x       y       z     vdW  Elec       q    Type
REMARK                         _______ _______ _______ _____ _____    ______ ____
ROOT
ATOM      1  C   UNL     1       0.985   9.929  19.671  0.00  0.00    +0.000 A 
ATOM      2  C   UNL     1       1.832   9.044  18.981  0.00  0.00    +0.000 A 
ATOM      3  C   UNL     1       2.065   7.713  19.400  0.00  0.00    +0.000 A 
ATOM      4  C   UNL     1       2.893   6.782  18.747  0.00  0.00    +0.000 A 
ATOM      5  N   UNL     1       3.692   7.188  17.641  0.00  0.00    +0.000 N 
ATOM      6  N   UNL     1       3.007   5.518  19.181  0.00  0.00    +0.000 NA
ATOM      7  C   UNL     1       2.340   5.184  20.288  0.00  0.00    +0.000 A 
ATOM      8  N   UNL     1       1.567   5.996  21.007  0.00  0.00    +0.000 NA
ATOM      9  C   UNL     1       1.431   7.245  20.558  0.00  0.00    +0.000 A 
ATOM     10  C   UNL     1       0.620   8.124  21.255  0.00  0.00    +0.000 A 
ATOM     11  C   UNL     1       0.377   9.448  20.838  0.00  0.00    +0.000 A 
ATOM     12  H   UNL     1       3.149   7.706  16.956  0.00  0.00    +0.000 HD
ENDROOT
BRANCH   5  13
ATOM     13  C   UNL     1       4.700   6.415  17.006  0.00  0.00    +0.000 A 
ATOM     14  C   UNL     1       4.645   6.100  15.640  0.00  0.00    +0.000 A 
ATOM     15  C   UNL     1       5.681   5.400  15.020  0.00  0.00    +0.000 A 
ATOM     16  C   UNL     1       6.755   4.952  15.778  0.00  0.00    +0.000 A 
ATOM     17  F   UNL     1       7.746   4.301  15.156  0.00  0.00    +0.000 F 
ATOM     18  C   UNL     1       6.792   5.169  17.154  0.00  0.00    +0.000 A 
ATOM     19 CL   UNL     1       8.103   4.562  18.090  0.00  0.00    +0.000 Cl
ATOM     20  C   UNL     1       5.763   5.889  17.759  0.00  0.00    +0.000 A 
ATOM     21  F   UNL     1       5.783   6.117  19.085  0.00  0.00    +0.000 F 
ENDBRANCH   5  13
BRANCH  11  22
ATOM     22  O   UNL     1      -0.524  10.060  21.665  0.00  0.00    +0.000 OA
ATOM     23  C   UNL     1      -0.450   9.835  23.061  0.00  0.00    +0.000 C 
ENDBRANCH  11  22
BRANCH   1  24
ATOM     24  O   UNL     1       0.742  11.217  19.244  0.00  0.00    +0.000 OA
BRANCH  24  30
ATOM     25  C   UNL     1       1.067  16.234  18.539  0.00  0.00    +0.000 C 
ATOM     26  O   UNL     1       0.041  16.915  18.507  0.00  0.00    +0.000 OA
ATOM     27  N   UNL     1       1.049  14.883  18.869  0.00  0.00    +0.000 N 
ATOM     28  C   UNL     1      -0.263  14.246  18.974  0.00  0.00    +0.000 C 
ATOM     29  C   UNL     1      -0.334  13.247  20.114  0.00  0.00    +0.000 C 
ATOM     30  C   UNL     1       0.858  12.291  20.199  0.00  0.00    +0.000 C 
ATOM     31  C   UNL     1       2.187  13.028  20.012  0.00  0.00    +0.000 C 
ATOM     32  C   UNL     1       2.166  13.943  18.791  0.00  0.00    +0.000 C 
BRANCH  25  34
ATOM     33  C   UNL     1       2.658  17.169  16.931  0.00  0.00    +0.000 C 
ATOM     34  C   UNL     1       2.371  16.874  18.208  0.00  0.00    +0.000 C 
ENDBRANCH  25  34
ENDBRANCH  24  30
ENDBRANCH   1  24
TORSDOF 5
ENDMDL
MODEL 5
REMARK VINA RESULT:      -7.3      4.387      9.238
REMARK  Name = 
REMARK  6 active torsions:
REMARK  status: ('A' for Active; 'I' for Inactive)
REMARK    1  A    between atoms: C_2  and  C_3
REMARK    2  A    between atoms: C_8  and  O_9
REMARK    3  A    between atoms: O_9  and  C_10
REMARK    4  A    between atoms: N_14  and  C_15
REMARK    5  A    between atoms: C_29  and  O_30
REMARK    6  A    between atoms: O_30  and  C_31
REMARK                            x       y       z     vdW  Elec       q    Type
REMARK                         _______ _______ _______ _____ _____    ______ ____
ROOT
ATOM      1  C   UNL     1       1.007   9.868  19.696  0.00  0.00    +0.000 A 
ATOM      2  C   UNL     1       1.856   8.997  18.991  0.00  0.00    +0.000 A 
ATOM      3  C   UNL     1       2.097   7.662  19.390  0.00  0.00    +0.000 A 
ATOM      4  C   UNL     1       2.928   6.745  18.720  0.00  0.00    +0.000 A 
ATOM      5  N   UNL     1       3.722   7.172  17.618  0.00  0.00    +0.000 N 
ATOM      6  N   UNL     1       3.051   5.476  19.136  0.00  0.00    +0.000 NA
ATOM      7  C   UNL     1       2.390   5.122  20.241  0.00  0.00    +0.000 A 
ATOM      8  N   UNL     1       1.615   5.919  20.974  0.00  0.00    +0.000 NA
ATOM      9  C   UNL     1       1.470   7.174  20.543  0.00  0.00    +0.000 A 
ATOM     10  C   UNL     1       0.657   8.038  21.256  0.00  0.00    +0.000 A 
ATOM     11  C   UNL     1       0.405   9.367  20.859  0.00  0.00    +0.000 A 
ATOM     12  H   UNL     1       3.173   7.696  16.943  0.00  0.00    +0.000 HD
ENDROOT
BRANCH   5  13
ATOM     13  C   UNL     1       4.731   6.414  16.968  0.00  0.00    +0.000 A 
ATOM     14  C   UNL     1       4.684   6.136  15.594  0.00  0.00    +0.000 A 
ATOM     15  C   UNL     1       5.723   5.450  14.961  0.00  0.00    +0.000 A 
ATOM     16  C   UNL     1       6.790   4.978  15.714  0.00  0.00    +0.000 A 
ATOM     17  F   UNL     1       7.784   4.343  15.081  0.00  0.00    +0.000 F 
ATOM     18  C   UNL     1       6.820   5.158  17.096  0.00  0.00    +0.000 A 
ATOM     19 CL   UNL     1       8.123   4.522  18.023  0.00  0.00    +0.000 Cl
ATOM     20  C   UNL     1       5.788   5.864  17.714  0.00  0.00    +0.000 A 
ATOM     21  F   UNL     1       5.801   6.055  19.045  0.00  0.00    +0.000 F 
ENDBRANCH   5  13
BRANCH  11  22
ATOM     22  O   UNL     1      -0.497   9.962  21.697  0.00  0.00    +0.000 OA
ATOM     23  C   UNL     1      -0.365   9.785  23.096  0.00  0.00    +0.000 C 
ENDBRANCH  11  22
BRANCH   1  24
ATOM     24  O   UNL     1       0.754  11.160  19.288  0.00  0.00    +0.000 OA
BRANCH  24  30
ATOM     25  C   UNL     1       0.498  16.213  19.707  0.00  0.00    +0.000 C 
ATOM     26  O   UNL     1       0.415  16.731  20.822  0.00  0.00    +0.000 OA
ATOM     27  N   UNL     1       0.714  14.850  19.539  0.00  0.00    +0.000 N 
ATOM     28  C   UNL     1       0.629  14.015  20.736  0.00  0.00    +0.000 C 
ATOM     29  C   UNL     1       1.671  12.911  20.749  0.00  0.00    +0.000 C 
ATOM     30  C   UNL     1       1.801  12.142  19.432  0.00  0.00    +0.000 C 
ATOM     31  C   UNL     1       1.814  13.087  18.226  0.00  0.00    +0.000 C 
ATOM     32  C   UNL     1       0.676  14.101  18.283  0.00  0.00    +0.000 C 
BRANCH  25  34
ATOM     33  C   UNL     1      -0.859  17.490  18.120  0.00  0.00    +0.000 C 
ATOM     34  C   UNL     1       0.358  17.071  18.498  0.00  0.00    +0.000 C 
ENDBRANCH  25  34
ENDBRANCH  24  30
ENDBRANCH   1  24
TORSDOF 5
ENDMDL
MODEL 6
REMARK VINA RESULT:      -7.2      5.080      9.456
REMARK  Name = 
REMARK  6 active torsions:
REMARK  status: ('A' for Active; 'I' for Inactive)
REMARK    1  A    between atoms: C_2  and  C_3
REMARK    2  A    between atoms: C_8  and  O_9
REMARK    3  A    between atoms: O_9  and  C_10
REMARK    4  A    between atoms: N_14  and  C_15
REMARK    5  A    between atoms: C_29  and  O_30
REMARK    6  A    between atoms: O_30  and  C_31
REMARK                            x       y       z     vdW  Elec       q    Type
REMARK                         _______ _______ _______ _____ _____    ______ ____
ROOT
ATOM      1  C   UNL     1      -0.981  11.204  18.399  0.00  0.00    +0.000 A 
ATOM      2  C   UNL     1      -0.192  10.057  18.598  0.00  0.00    +0.000 A 
ATOM      3  C   UNL     1       0.396   9.731  19.842  0.00  0.00    +0.000 A 
ATOM      4  C   UNL     1       1.186   8.596  20.102  0.00  0.00    +0.000 A 
ATOM      5  N   UNL     1       1.571   7.734  19.037  0.00  0.00    +0.000 N 
ATOM      6  N   UNL     1       1.654   8.333  21.332  0.00  0.00    +0.000 NA
ATOM      7  C   UNL     1       1.381   9.213  22.297  0.00  0.00    +0.000 A 
ATOM      8  N   UNL     1       0.683  10.339  22.151  0.00  0.00    +0.000 NA
ATOM      9  C   UNL     1       0.193  10.585  20.934  0.00  0.00    +0.000 A 
ATOM     10  C   UNL     1      -0.559  11.730  20.733  0.00  0.00    +0.000 A 
ATOM     11  C   UNL     1      -1.155  12.056  19.499  0.00  0.00    +0.000 A 
ATOM     12  H   UNL     1       0.777   7.476  18.459  0.00  0.00    +0.000 HD
ENDROOT
BRANCH   5  13
ATOM     13  C   UNL     1       2.505   6.668  19.117  0.00  0.00    +0.000 A 
ATOM     14  C   UNL     1       2.311   5.572  19.971  0.00  0.00    +0.000 A 
ATOM     15  C   UNL     1       3.205   4.500  19.982  0.00  0.00    +0.000 A 
ATOM     16  C   UNL     1       4.339   4.546  19.182  0.00  0.00    +0.000 A 
ATOM     17  F   UNL     1       5.170   3.495  19.194  0.00  0.00    +0.000 F 
ATOM     18  C   UNL     1       4.607   5.662  18.392  0.00  0.00    +0.000 A 
ATOM     19 CL   UNL     1       6.043   5.728  17.446  0.00  0.00    +0.000 Cl
ATOM     20  C   UNL     1       3.695   6.718  18.372  0.00  0.00    +0.000 A 
ATOM     21  F   UNL     1       3.931   7.801  17.611  0.00  0.00    +0.000 F 
ENDBRANCH   5  13
BRANCH  11  22
ATOM     22  O   UNL     1      -1.906  13.193  19.608  0.00  0.00    +0.000 OA
ATOM     23  C   UNL     1      -2.836  13.312  20.669  0.00  0.00    +0.000 C 
ENDBRANCH  11  22
BRANCH   1  24
ATOM     24  O   UNL     1      -1.574  11.503  17.191  0.00  0.00    +0.000 OA
BRANCH  24  30
ATOM     25  C   UNL     1      -6.510  11.087  18.305  0.00  0.00    +0.000 C 
ATOM     26  O   UNL     1      -7.338  11.732  17.662  0.00  0.00    +0.000 OA
ATOM     27  N   UNL     1      -5.164  11.052  17.954  0.00  0.00    +0.000 N 
ATOM     28  C   UNL     1      -4.729  11.981  16.912  0.00  0.00    +0.000 C 
ATOM     29  C   UNL     1      -3.705  11.365  15.976  0.00  0.00    +0.000 C 
ATOM     30  C   UNL     1      -2.577  10.604  16.677  0.00  0.00    +0.000 C 
ATOM     31  C   UNL     1      -3.113   9.707  17.797  0.00  0.00    +0.000 C 
ATOM     32  C   UNL     1      -4.071  10.455  18.719  0.00  0.00    +0.000 C 
BRANCH  25  34
ATOM     33  C   UNL     1      -7.410  10.983  20.579  0.00  0.00    +0.000 C 
ATOM     34  C   UNL     1      -6.958  10.322  19.502  0.00  0.00    +0.000 C 
ENDBRANCH  25  34
ENDBRANCH  24  30
ENDBRANCH   1  24
TORSDOF 5
ENDMDL
MODEL 7
REMARK VINA RESULT:      -7.2      4.433      9.002
REMARK  Name = 
REMARK  6 active torsions:
REMARK  status: ('A' for Active; 'I' for Inactive)
REMARK    1  A    between atoms: C_2  and  C_3
REMARK    2  A    between atoms: C_8  and  O_9
REMARK    3  A    between atoms: O_9  and  C_10
REMARK    4  A    between atoms: N_14  and  C_15
REMARK    5  A    between atoms: C_29  and  O_30
REMARK    6  A    between atoms: O_30  and  C_31
REMARK                            x       y       z     vdW  Elec       q    Type
REMARK                         _______ _______ _______ _____ _____    ______ ____
ROOT
ATOM      1  C   UNL     1       1.280  10.053  20.252  0.00  0.00    +0.000 A 
ATOM      2  C   UNL     1       2.062   9.210  19.443  0.00  0.00    +0.000 A 
ATOM      3  C   UNL     1       2.072   7.802  19.579  0.00  0.00    +0.000 A 
ATOM      4  C   UNL     1       2.826   6.909  18.795  0.00  0.00    +0.000 A 
ATOM      5  N   UNL     1       3.775   7.407  17.858  0.00  0.00    +0.000 N 
ATOM      6  N   UNL     1       2.727   5.581  18.953  0.00  0.00    +0.000 NA
ATOM      7  C   UNL     1       1.919   5.132  19.916  0.00  0.00    +0.000 A 
ATOM      8  N   UNL     1       1.197   5.888  20.742  0.00  0.00    +0.000 NA
ATOM      9  C   UNL     1       1.273   7.209  20.565  0.00  0.00    +0.000 A 
ATOM     10  C   UNL     1       0.525   8.039  21.381  0.00  0.00    +0.000 A 
ATOM     11  C   UNL     1       0.503   9.442  21.245  0.00  0.00    +0.000 A 
ATOM     12  H   UNL     1       3.375   8.130  17.268  0.00  0.00    +0.000 HD
ENDROOT
BRANCH   5  13
ATOM     13  C   UNL     1       4.726   6.637  17.138  0.00  0.00    +0.000 A 
ATOM     14  C   UNL     1       4.653   6.478  15.746  0.00  0.00    +0.000 A 
ATOM     15  C   UNL     1       5.638   5.776  15.049  0.00  0.00    +0.000 A 
ATOM     16  C   UNL     1       6.673   5.170  15.749  0.00  0.00    +0.000 A 
ATOM     17  F   UNL     1       7.616   4.521  15.055  0.00  0.00    +0.000 F 
ATOM     18  C   UNL     1       6.721   5.231  17.140  0.00  0.00    +0.000 A 
ATOM     19 CL   UNL     1       7.980   4.431  17.999  0.00  0.00    +0.000 Cl
ATOM     20  C   UNL     1       5.744   5.955  17.825  0.00  0.00    +0.000 A 
ATOM     21  F   UNL     1       5.776   6.033  19.167  0.00  0.00    +0.000 F 
ENDBRANCH   5  13
BRANCH  11  22
ATOM     22  O   UNL     1      -0.383  10.002  22.125  0.00  0.00    +0.000 OA
ATOM     23  C   UNL     1      -0.405   9.553  23.467  0.00  0.00    +0.000 C 
ENDBRANCH  11  22
BRANCH   1  24
ATOM     24  O   UNL     1       1.253  11.423  20.098  0.00  0.00    +0.000 OA
BRANCH  24  30
ATOM     25  C   UNL     1       1.376  16.219  18.436  0.00  0.00    +0.000 C 
ATOM     26  O   UNL     1       2.434  16.697  18.028  0.00  0.00    +0.000 OA
ATOM     27  N   UNL     1       1.251  14.874  18.768  0.00  0.00    +0.000 N 
ATOM     28  C   UNL     1       2.483  14.088  18.815  0.00  0.00    +0.000 C 
ATOM     29  C   UNL     1       2.298  12.685  18.266  0.00  0.00    +0.000 C 
ATOM     30  C   UNL     1       1.049  11.961  18.775  0.00  0.00    +0.000 C 
ATOM     31  C   UNL     1      -0.180  12.875  18.756  0.00  0.00    +0.000 C 
ATOM     32  C   UNL     1       0.104  14.227  19.404  0.00  0.00    +0.000 C 
BRANCH  25  34
ATOM     33  C   UNL     1      -0.462  17.531  17.493  0.00  0.00    +0.000 C 
ATOM     34  C   UNL     1       0.190  17.107  18.586  0.00  0.00    +0.000 C 
ENDBRANCH  25  34
ENDBRANCH  24  30
ENDBRANCH   1  24
TORSDOF 5
ENDMDL
MODEL 8
REMARK VINA RESULT:      -7.0      1.967      2.747
REMARK  Name = 
REMARK  6 active torsions:
REMARK  status: ('A' for Active; 'I' for Inactive)
REMARK    1  A    between atoms: C_2  and  C_3
REMARK    2  A    between atoms: C_8  and  O_9
REMARK    3  A    between atoms: O_9  and  C_10
REMARK    4  A    between atoms: N_14  and  C_15
REMARK    5  A    between atoms: C_29  and  O_30
REMARK    6  A    between atoms: O_30  and  C_31
REMARK                            x       y       z     vdW  Elec       q    Type
REMARK                         _______ _______ _______ _____ _____    ______ ____
ROOT
ATOM      1  C   UNL     1       4.569   5.887  17.928  0.00  0.00    +0.000 A 
ATOM      2  C   UNL     1       3.723   6.998  18.093  0.00  0.00    +0.000 A 
ATOM      3  C   UNL     1       2.769   7.093  19.133  0.00  0.00    +0.000 A 
ATOM      4  C   UNL     1       1.903   8.180  19.353  0.00  0.00    +0.000 A 
ATOM      5  N   UNL     1       1.841   9.246  18.412  0.00  0.00    +0.000 N 
ATOM      6  N   UNL     1       1.071   8.213  20.404  0.00  0.00    +0.000 NA
ATOM      7  C   UNL     1       1.057   7.152  21.214  0.00  0.00    +0.000 A 
ATOM      8  N   UNL     1       1.800   6.055  21.073  0.00  0.00    +0.000 NA
ATOM      9  C   UNL     1       2.649   6.036  20.044  0.00  0.00    +0.000 A 
ATOM     10  C   UNL     1       3.461   4.928  19.865  0.00  0.00    +0.000 A 
ATOM     11  C   UNL     1       4.419   4.831  18.837  0.00  0.00    +0.000 A 
ATOM     12  H   UNL     1       2.767   9.587  18.170  0.00  0.00    +0.000 HD
ENDROOT
BRANCH   5  13
ATOM     13  C   UNL     1       0.897  10.306  18.407  0.00  0.00    +0.000 A 
ATOM     14  C   UNL     1      -0.472  10.082  18.199  0.00  0.00    +0.000 A 
ATOM     15  C   UNL     1      -1.393  11.129  18.269  0.00  0.00    +0.000 A 
ATOM     16  C   UNL     1      -0.942  12.424  18.484  0.00  0.00    +0.000 A 
ATOM     17  F   UNL     1      -1.846  13.408  18.569  0.00  0.00    +0.000 F 
ATOM     18  C   UNL     1       0.421  12.692  18.602  0.00  0.00    +0.000 A 
ATOM     19 CL   UNL     1       0.970  14.309  18.816  0.00  0.00    +0.000 Cl
ATOM     20  C   UNL     1       1.330  11.635  18.553  0.00  0.00    +0.000 A 
ATOM     21  F   UNL     1       2.649  11.870  18.672  0.00  0.00    +0.000 F 
ENDBRANCH   5  13
BRANCH  11  22
ATOM     22  O   UNL     1       5.134   3.670  18.947  0.00  0.00    +0.000 OA
ATOM     23  C   UNL     1       4.596   2.591  19.689  0.00  0.00    +0.000 C 
ENDBRANCH  11  22
BRANCH   1  24
ATOM     24  O   UNL     1       5.515   5.811  16.928  0.00  0.00    +0.000 OA
BRANCH  24  30
ATOM     25  C   UNL     1       6.213   3.541  12.440  0.00  0.00    +0.000 C 
ATOM     26  O   UNL     1       7.273   3.700  11.833  0.00  0.00    +0.000 OA
ATOM     27  N   UNL     1       6.021   4.020  13.732  0.00  0.00    +0.000 N 
ATOM     28  C   UNL     1       7.054   4.904  14.269  0.00  0.00    +0.000 C 
ATOM     29  C   UNL     1       7.328   4.652  15.740  0.00  0.00    +0.000 C 
ATOM     30  C   UNL     1       6.074   4.520  16.608  0.00  0.00    +0.000 C 
ATOM     31  C   UNL     1       5.018   3.633  15.942  0.00  0.00    +0.000 C 
ATOM     32  C   UNL     1       4.771   4.030  14.490  0.00  0.00    +0.000 C 
BRANCH  25  34
ATOM     33  C   UNL     1       4.157   3.516  11.113  0.00  0.00    +0.000 C 
ATOM     34  C   UNL     1       5.096   2.819  11.770  0.00  0.00    +0.000 C 
ENDBRANCH  25  34
ENDBRANCH  24  30
ENDBRANCH   1  24
TORSDOF 5
ENDMDL
MODEL 9
REMARK VINA RESULT:      -6.9      2.346      3.050
REMARK  Name = 
REMARK  6 active torsions:
REMARK  status: ('A' for Active; 'I' for Inactive)
REMARK    1  A    between atoms: C_2  and  C_3
REMARK    2  A    between atoms: C_8  and  O_9
REMARK    3  A    between atoms: O_9  and  C_10
REMARK    4  A    between atoms: N_14  and  C_15
REMARK    5  A    between atoms: C_29  and  O_30
REMARK    6  A    between atoms: O_30  and  C_31
REMARK                            x       y       z     vdW  Elec       q    Type
REMARK                         _______ _______ _______ _____ _____    ______ ____
ROOT
ATOM      1  C   UNL     1       4.326   5.963  17.780  0.00  0.00    +0.000 A 
ATOM      2  C   UNL     1       3.584   7.131  18.026  0.00  0.00    +0.000 A 
ATOM      3  C   UNL     1       2.667   7.252  19.096  0.00  0.00    +0.000 A 
ATOM      4  C   UNL     1       1.905   8.396  19.397  0.00  0.00    +0.000 A 
ATOM      5  N   UNL     1       1.915   9.513  18.514  0.00  0.00    +0.000 N 
ATOM      6  N   UNL     1       1.104   8.444  20.471  0.00  0.00    +0.000 NA
ATOM      7  C   UNL     1       1.017   7.346  21.225  0.00  0.00    +0.000 A 
ATOM      8  N   UNL     1       1.657   6.198  21.007  0.00  0.00    +0.000 NA
ATOM      9  C   UNL     1       2.478   6.162  19.954  0.00  0.00    +0.000 A 
ATOM     10  C   UNL     1       3.185   5.000  19.696  0.00  0.00    +0.000 A 
ATOM     11  C   UNL     1       4.106   4.876  18.637  0.00  0.00    +0.000 A 
ATOM     12  H   UNL     1       2.861   9.785  18.264  0.00  0.00    +0.000 HD
ENDROOT
BRANCH   5  13
ATOM     13  C   UNL     1       1.067  10.649  18.590  0.00  0.00    +0.000 A 
ATOM     14  C   UNL     1       1.483  11.849  19.185  0.00  0.00    +0.000 A 
ATOM     15  C   UNL     1       0.660  12.977  19.186  0.00  0.00    +0.000 A 
ATOM     16  C   UNL     1      -0.617  12.893  18.647  0.00  0.00    +0.000 A 
ATOM     17  F   UNL     1      -1.379  13.994  18.640  0.00  0.00    +0.000 F 
ATOM     18  C   UNL     1      -1.093  11.689  18.132  0.00  0.00    +0.000 A 
ATOM     19 CL   UNL     1      -2.697  11.585  17.515  0.00  0.00    +0.000 Cl
ATOM     20  C   UNL     1      -0.254  10.575  18.116  0.00  0.00    +0.000 A 
ATOM     21  F   UNL     1      -0.691   9.405  17.616  0.00  0.00    +0.000 F 
ENDBRANCH   5  13
BRANCH  11  22
ATOM     22  O   UNL     1       4.720   3.654  18.667  0.00  0.00    +0.000 OA
ATOM     23  C   UNL     1       4.039   2.549  19.233  0.00  0.00    +0.000 C 
ENDBRANCH  11  22
BRANCH   1  24
ATOM     24  O   UNL     1       5.238   5.859  16.751  0.00  0.00    +0.000 OA
BRANCH  24  30
ATOM     25  C   UNL     1       6.289   3.473  12.395  0.00  0.00    +0.000 C 
ATOM     26  O   UNL     1       7.378   3.651  11.848  0.00  0.00    +0.000 OA
ATOM     27  N   UNL     1       6.002   3.986  13.656  0.00  0.00    +0.000 N 
ATOM     28  C   UNL     1       6.969   4.924  14.223  0.00  0.00    +0.000 C 
ATOM     29  C   UNL     1       7.159   4.730  15.716  0.00  0.00    +0.000 C 
ATOM     30  C   UNL     1       5.859   4.580  16.510  0.00  0.00    +0.000 C 
ATOM     31  C   UNL     1       4.878   3.634  15.813  0.00  0.00    +0.000 C 
ATOM     32  C   UNL     1       4.708   3.975  14.335  0.00  0.00    +0.000 C 
BRANCH  25  34
ATOM     33  C   UNL     1       4.191   3.326  11.143  0.00  0.00    +0.000 C 
ATOM     34  C   UNL     1       5.241   2.690  11.684  0.00  0.00    +0.000 C 
ENDBRANCH  25  34
ENDBRANCH  24  30
ENDBRANCH   1  24
TORSDOF 5
ENDMDL
