MODEL 1
REMARK VINA RESULT:      -7.9      0.000      0.000
REMARK  Name = 
REMARK  5 active torsions:
REMARK  status: ('A' for Active; 'I' for Inactive)
REMARK    1  A    between atoms: C_10  and  C_11
REMARK    2  A    between atoms: C_11  and  N_12
REMARK    3  A    between atoms: N_12  and  C_13
REMARK    4  A    between atoms: C_13  and  C_14
REMARK    5  A    between atoms: C_23  and  O_24
REMARK                            x       y       z     vdW  Elec       q    Type
REMARK                         _______ _______ _______ _____ _____    ______ ____
ROOT
ATOM      1  C   UNL     1       0.947   4.595  16.918  0.00  0.00    +0.000 C 
ATOM      2  C   UNL     1       1.704   4.762  18.018  0.00  0.00    +0.000 C 
ATOM      3  C   UNL     1       2.283   6.128  18.326  0.00  0.00    +0.000 C 
ATOM      4  C   UNL     1       3.652   6.343  17.665  0.00  0.00    +0.000 C 
ATOM      5  C   UNL     1       4.466   5.046  17.570  0.00  0.00    +0.000 C 
ATOM      6  C   UNL     1       4.580   4.377  18.935  0.00  0.00    +0.000 C 
ATOM      7  O   UNL     1       5.923   3.884  19.007  0.00  0.00    +0.000 OA
ATOM      8  C   UNL     1       6.706   4.450  18.056  0.00  0.00    +0.000 C 
ATOM      9  O   UNL     1       7.920   4.303  18.006  0.00  0.00    +0.000 OA
ATOM     10  C   UNL     1       5.890   5.221  17.064  0.00  0.00    +0.000 C 
ATOM     11  C   UNL     1       3.568   3.216  19.074  0.00  0.00    +0.000 C 
ATOM     12  C   UNL     1       3.610   2.539  20.433  0.00  0.00    +0.000 C 
ATOM     13  C   UNL     1       4.602   1.746  20.866  0.00  0.00    +0.000 C 
ATOM     14  C   UNL     1       2.346   2.788  21.205  0.00  0.00    +0.000 C 
ATOM     15  C   UNL     1       1.547   3.768  20.358  0.00  0.00    +0.000 C 
ATOM     16  C   UNL     1       2.064   3.592  18.925  0.00  0.00    +0.000 C 
ENDROOT
BRANCH  14  17
ATOM     17  O   UNL     1       2.634   3.370  22.465  0.00  0.00    +0.000 OA
ATOM     18  H   UNL     1       2.544   4.333  22.370  0.00  0.00    +0.000 HD
ENDBRANCH  14  17
BRANCH  10  19
ATOM     19  C   UNL     1       6.108   4.585  15.681  0.00  0.00    +0.000 C 
BRANCH  19  20
ATOM     20  N   UNL     1       7.230   5.214  14.975  0.00  0.00    +0.000 NA
ATOM     21  H   UNL     1       8.113   4.808  15.302  0.00  0.00    +0.000 HD
BRANCH  20  22
ATOM     22  C   UNL     1       7.141   4.994  13.522  0.00  0.00    +0.000 C 
BRANCH  22  23
ATOM     23  C   UNL     1       6.250   3.789  13.180  0.00  0.00    +0.000 C 
ATOM     24  C   UNL     1       5.058   4.112  12.302  0.00  0.00    +0.000 C 
ATOM     25  C   UNL     1       4.784   2.782  11.642  0.00  0.00    +0.000 C 
ATOM     26  C   UNL     1       6.158   2.190  11.560  0.00  0.00    +0.000 C 
ATOM     27  O   UNL     1       6.487   1.259  10.841  0.00  0.00    +0.000 OA
ATOM     28  O   UNL     1       6.996   2.808  12.443  0.00  0.00    +0.000 OA
ENDBRANCH  22  23
ENDBRANCH  20  22
ENDBRANCH  19  20
ENDBRANCH  10  19
TORSDOF 5
ENDMDL
MODEL 2
REMARK VINA RESULT:      -7.9      1.495      1.808
REMARK  Name = 
REMARK  5 active torsions:
REMARK  status: ('A' for Active; 'I' for Inactive)
REMARK    1  A    between atoms: C_10  and  C_11
REMARK    2  A    between atoms: C_11  and  N_12
REMARK    3  A    between atoms: N_12  and  C_13
REMARK    4  A    between atoms: C_13  and  C_14
REMARK    5  A    between atoms: C_23  and  O_24
REMARK                            x       y       z     vdW  Elec       q    Type
REMARK                         _______ _______ _______ _____ _____    ______ ____
ROOT
ATOM      1  C   UNL     1       1.224   4.820  16.986  0.00  0.00    +0.000 C 
ATOM      2  C   UNL     1       1.777   4.856  18.212  0.00  0.00    +0.000 C 
ATOM      3  C   UNL     1       2.033   6.193  18.878  0.00  0.00    +0.000 C 
ATOM      4  C   UNL     1       3.412   6.766  18.521  0.00  0.00    +0.000 C 
ATOM      5  C   UNL     1       4.467   5.671  18.318  0.00  0.00    +0.000 C 
ATOM      6  C   UNL     1       4.520   4.741  19.524  0.00  0.00    +0.000 C 
ATOM      7  O   UNL     1       5.911   4.465  19.732  0.00  0.00    +0.000 OA
ATOM      8  C   UNL     1       6.691   5.347  19.062  0.00  0.00    +0.000 C 
ATOM      9  O   UNL     1       7.906   5.412  19.197  0.00  0.00    +0.000 OA
ATOM     10  C   UNL     1       5.886   6.181  18.113  0.00  0.00    +0.000 C 
ATOM     11  C   UNL     1       3.743   3.431  19.254  0.00  0.00    +0.000 C 
ATOM     12  C   UNL     1       3.729   2.483  20.441  0.00  0.00    +0.000 C 
ATOM     13  C   UNL     1       4.787   1.782  20.877  0.00  0.00    +0.000 C 
ATOM     14  C   UNL     1       2.347   2.347  21.014  0.00  0.00    +0.000 C 
ATOM     15  C   UNL     1       1.497   3.351  20.249  0.00  0.00    +0.000 C 
ATOM     16  C   UNL     1       2.229   3.585  18.921  0.00  0.00    +0.000 C 
ENDROOT
BRANCH  14  17
ATOM     17  O   UNL     1       2.343   2.670  22.393  0.00  0.00    +0.000 OA
ATOM     18  H   UNL     1       1.461   3.018  22.610  0.00  0.00    +0.000 HD
ENDBRANCH  14  17
BRANCH  10  19
ATOM     19  C   UNL     1       6.410   5.914  16.693  0.00  0.00    +0.000 C 
BRANCH  19  20
ATOM     20  N   UNL     1       6.569   4.476  16.443  0.00  0.00    +0.000 NA
ATOM     21  H   UNL     1       6.165   3.946  17.222  0.00  0.00    +0.000 HD
BRANCH  20  22
ATOM     22  C   UNL     1       5.879   4.066  15.209  0.00  0.00    +0.000 C 
BRANCH  22  23
ATOM     23  C   UNL     1       6.845   3.978  14.017  0.00  0.00    +0.000 C 
ATOM     24  C   UNL     1       6.191   3.623  12.697  0.00  0.00    +0.000 C 
ATOM     25  C   UNL     1       7.157   4.214  11.699  0.00  0.00    +0.000 C 
ATOM     26  C   UNL     1       7.689   5.398  12.447  0.00  0.00    +0.000 C 
ATOM     27  O   UNL     1       8.272   6.348  11.950  0.00  0.00    +0.000 OA
ATOM     28  O   UNL     1       7.473   5.249  13.788  0.00  0.00    +0.000 OA
ENDBRANCH  22  23
ENDBRANCH  20  22
ENDBRANCH  19  20
ENDBRANCH  10  19
TORSDOF 5
ENDMDL
MODEL 3
REMARK VINA RESULT:      -7.8      1.073      1.341
REMARK  Name = 
REMARK  5 active torsions:
REMARK  status: ('A' for Active; 'I' for Inactive)
REMARK    1  A    between atoms: C_10  and  C_11
REMARK    2  A    between atoms: C_11  and  N_12
REMARK    3  A    between atoms: N_12  and  C_13
REMARK    4  A    between atoms: C_13  and  C_14
REMARK    5  A    between atoms: C_23  and  O_24
REMARK                            x       y       z     vdW  Elec       q    Type
REMARK                         _______ _______ _______ _____ _____    ______ ____
ROOT
ATOM      1  C   UNL     1       1.244   4.952  17.015  0.00  0.00    +0.000 C 
ATOM      2  C   UNL     1       1.850   4.948  18.217  0.00  0.00    +0.000 C 
ATOM      3  C   UNL     1       2.179   6.264  18.892  0.00  0.00    +0.000 C 
ATOM      4  C   UNL     1       3.560   6.798  18.485  0.00  0.00    +0.000 C 
ATOM      5  C   UNL     1       4.568   5.672  18.219  0.00  0.00    +0.000 C 
ATOM      6  C   UNL     1       4.641   4.719  19.407  0.00  0.00    +0.000 C 
ATOM      7  O   UNL     1       6.030   4.395  19.549  0.00  0.00    +0.000 OA
ATOM      8  C   UNL     1       6.810   5.262  18.861  0.00  0.00    +0.000 C 
ATOM      9  O   UNL     1       8.031   5.284  18.944  0.00  0.00    +0.000 OA
ATOM     10  C   UNL     1       5.993   6.138  17.960  0.00  0.00    +0.000 C 
ATOM     11  C   UNL     1       3.810   3.441  19.150  0.00  0.00    +0.000 C 
ATOM     12  C   UNL     1       3.815   2.474  20.321  0.00  0.00    +0.000 C 
ATOM     13  C   UNL     1       4.866   1.731  20.699  0.00  0.00    +0.000 C 
ATOM     14  C   UNL     1       2.455   2.374  20.951  0.00  0.00    +0.000 C 
ATOM     15  C   UNL     1       1.607   3.418  20.239  0.00  0.00    +0.000 C 
ATOM     16  C   UNL     1       2.289   3.651  18.885  0.00  0.00    +0.000 C 
ENDROOT
BRANCH  14  17
ATOM     17  O   UNL     1       2.520   2.673  22.334  0.00  0.00    +0.000 OA
ATOM     18  H   UNL     1       1.797   2.192  22.772  0.00  0.00    +0.000 HD
ENDBRANCH  14  17
BRANCH  10  19
ATOM     19  C   UNL     1       6.446   5.879  16.515  0.00  0.00    +0.000 C 
BRANCH  19  20
ATOM     20  N   UNL     1       6.888   4.491  16.334  0.00  0.00    +0.000 NA
ATOM     21  H   UNL     1       6.987   4.040  17.250  0.00  0.00    +0.000 HD
BRANCH  20  22
ATOM     22  C   UNL     1       5.914   3.715  15.550  0.00  0.00    +0.000 C 
BRANCH  22  23
ATOM     23  C   UNL     1       5.849   4.188  14.089  0.00  0.00    +0.000 C 
ATOM     24  C   UNL     1       7.132   3.999  13.304  0.00  0.00    +0.000 C 
ATOM     25  C   UNL     1       6.624   3.925  11.885  0.00  0.00    +0.000 C 
ATOM     26  C   UNL     1       5.277   3.297  12.072  0.00  0.00    +0.000 C 
ATOM     27  O   UNL     1       4.614   2.767  11.194  0.00  0.00    +0.000 OA
ATOM     28  O   UNL     1       4.860   3.441  13.364  0.00  0.00    +0.000 OA
ENDBRANCH  22  23
ENDBRANCH  20  22
ENDBRANCH  19  20
ENDBRANCH  10  19
TORSDOF 5
ENDMDL
MODEL 4
REMARK VINA RESULT:      -7.3      5.293      7.845
REMARK  Name = 
REMARK  5 active torsions:
REMARK  status: ('A' for Active; 'I' for Inactive)
REMARK    1  A    between atoms: C_10  and  C_11
REMARK    2  A    between atoms: C_11  and  N_12
REMARK    3  A    between atoms: N_12  and  C_13
REMARK    4  A    between atoms: C_13  and  C_14
REMARK    5  A    between atoms: C_23  and  O_24
REMARK                            x       y       z     vdW  Elec       q    Type
REMARK                         _______ _______ _______ _____ _____    ______ ____
ROOT
ATOM      1  C   UNL     1       0.726   3.676  19.624  0.00  0.00    +0.000 C 
ATOM      2  C   UNL     1       1.923   4.289  19.615  0.00  0.00    +0.000 C 
ATOM      3  C   UNL     1       2.320   5.172  20.780  0.00  0.00    +0.000 C 
ATOM      4  C   UNL     1       1.863   6.626  20.592  0.00  0.00    +0.000 C 
ATOM      5  C   UNL     1       1.877   7.058  19.120  0.00  0.00    +0.000 C 
ATOM      6  C   UNL     1       3.239   6.793  18.491  0.00  0.00    +0.000 C 
ATOM      7  O   UNL     1       3.499   7.926  17.653  0.00  0.00    +0.000 OA
ATOM      8  C   UNL     1       2.674   8.958  17.953  0.00  0.00    +0.000 C 
ATOM      9  O   UNL     1       2.796  10.080  17.480  0.00  0.00    +0.000 OA
ATOM     10  C   UNL     1       1.580   8.532  18.884  0.00  0.00    +0.000 C 
ATOM     11  C   UNL     1       3.224   5.493  17.654  0.00  0.00    +0.000 C 
ATOM     12  C   UNL     1       4.571   5.158  17.037  0.00  0.00    +0.000 C 
ATOM     13  C   UNL     1       5.136   5.824  16.018  0.00  0.00    +0.000 C 
ATOM     14  C   UNL     1       5.156   3.916  17.645  0.00  0.00    +0.000 C 
ATOM     15  C   UNL     1       4.211   3.542  18.778  0.00  0.00    +0.000 C 
ATOM     16  C   UNL     1       2.865   4.185  18.420  0.00  0.00    +0.000 C 
ENDROOT
BRANCH  14  17
ATOM     17  O   UNL     1       6.448   4.174  18.167  0.00  0.00    +0.000 OA
ATOM     18  H   UNL     1       6.361   4.886  18.824  0.00  0.00    +0.000 HD
ENDBRANCH  14  17
BRANCH  10  19
ATOM     19  C   UNL     1       0.239   8.757  18.168  0.00  0.00    +0.000 C 
BRANCH  19  20
ATOM     20  N   UNL     1       0.048  10.171  17.824  0.00  0.00    +0.000 NA
ATOM     21  H   UNL     1      -0.048  10.267  16.808  0.00  0.00    +0.000 HD
BRANCH  20  22
ATOM     22  C   UNL     1      -1.169  10.716  18.448  0.00  0.00    +0.000 C 
BRANCH  22  23
ATOM     23  C   UNL     1      -2.432  10.353  17.650  0.00  0.00    +0.000 C 
ATOM     24  C   UNL     1      -3.550  11.372  17.735  0.00  0.00    +0.000 C 
ATOM     25  C   UNL     1      -4.308  11.114  16.456  0.00  0.00    +0.000 C 
ATOM     26  C   UNL     1      -3.215  10.668  15.534  0.00  0.00    +0.000 C 
ATOM     27  O   UNL     1      -3.285  10.632  14.316  0.00  0.00    +0.000 OA
ATOM     28  O   UNL     1      -2.128  10.255  16.250  0.00  0.00    +0.000 OA
ENDBRANCH  22  23
ENDBRANCH  20  22
ENDBRANCH  19  20
ENDBRANCH  10  19
TORSDOF 5
ENDMDL
MODEL 5
REMARK VINA RESULT:      -7.1      5.375      8.129
REMARK  Name = 
REMARK  5 active torsions:
REMARK  status: ('A' for Active; 'I' for Inactive)
REMARK    1  A    between atoms: C_10  and  C_11
REMARK    2  A    between atoms: C_11  and  N_12
REMARK    3  A    between atoms: N_12  and  C_13
REMARK    4  A    between atoms: C_13  and  C_14
REMARK    5  A    between atoms: C_23  and  O_24
REMARK                            x       y       z     vdW  Elec       q    Type
REMARK                         _______ _______ _______ _____ _____    ______ ____
ROOT
ATOM      1  C   UNL     1       0.858   3.575  19.538  0.00  0.00    +0.000 C 
ATOM      2  C   UNL     1       2.051   4.197  19.533  0.00  0.00    +0.000 C 
ATOM      3  C   UNL     1       2.439   5.080  20.701  0.00  0.00    +0.000 C 
ATOM      4  C   UNL     1       1.972   6.531  20.515  0.00  0.00    +0.000 C 
ATOM      5  C   UNL     1       1.985   6.966  19.044  0.00  0.00    +0.000 C 
ATOM      6  C   UNL     1       3.351   6.712  18.417  0.00  0.00    +0.000 C 
ATOM      7  O   UNL     1       3.604   7.849  17.582  0.00  0.00    +0.000 OA
ATOM      8  C   UNL     1       2.771   8.874  17.882  0.00  0.00    +0.000 C 
ATOM      9  O   UNL     1       2.886   9.998  17.412  0.00  0.00    +0.000 OA
ATOM     10  C   UNL     1       1.678   8.438  18.811  0.00  0.00    +0.000 C 
ATOM     11  C   UNL     1       3.347   5.414  17.577  0.00  0.00    +0.000 C 
ATOM     12  C   UNL     1       4.698   5.090  16.962  0.00  0.00    +0.000 C 
ATOM     13  C   UNL     1       5.260   5.763  15.946  0.00  0.00    +0.000 C 
ATOM     14  C   UNL     1       5.291   3.851  17.569  0.00  0.00    +0.000 C 
ATOM     15  C   UNL     1       4.346   3.469  18.699  0.00  0.00    +0.000 C 
ATOM     16  C   UNL     1       2.996   4.102  18.340  0.00  0.00    +0.000 C 
ENDROOT
BRANCH  14  17
ATOM     17  O   UNL     1       6.580   4.118  18.094  0.00  0.00    +0.000 OA
ATOM     18  H   UNL     1       6.661   3.632  18.932  0.00  0.00    +0.000 HD
ENDBRANCH  14  17
BRANCH  10  19
ATOM     19  C   UNL     1       0.337   8.655  18.092  0.00  0.00    +0.000 C 
BRANCH  19  20
ATOM     20  N   UNL     1       0.072  10.082  17.874  0.00  0.00    +0.000 NA
ATOM     21  H   UNL     1       0.155  10.298  16.876  0.00  0.00    +0.000 HD
BRANCH  20  22
ATOM     22  C   UNL     1      -1.287  10.448  18.306  0.00  0.00    +0.000 C 
BRANCH  22  23
ATOM     23  C   UNL     1      -2.114  11.036  17.151  0.00  0.00    +0.000 C 
ATOM     24  C   UNL     1      -2.568  10.024  16.119  0.00  0.00    +0.000 C 
ATOM     25  C   UNL     1      -3.793  10.692  15.542  0.00  0.00    +0.000 C 
ATOM     26  C   UNL     1      -4.312  11.457  16.721  0.00  0.00    +0.000 C 
ATOM     27  O   UNL     1      -5.439  11.912  16.830  0.00  0.00    +0.000 OA
ATOM     28  O   UNL     1      -3.326  11.621  17.652  0.00  0.00    +0.000 OA
ENDBRANCH  22  23
ENDBRANCH  20  22
ENDBRANCH  19  20
ENDBRANCH  10  19
TORSDOF 5
ENDMDL
MODEL 6
REMARK VINA RESULT:      -6.9      4.604      8.526
REMARK  Name = 
REMARK  5 active torsions:
REMARK  status: ('A' for Active; 'I' for Inactive)
REMARK    1  A    between atoms: C_10  and  C_11
REMARK    2  A    between atoms: C_11  and  N_12
REMARK    3  A    between atoms: N_12  and  C_13
REMARK    4  A    between atoms: C_13  and  C_14
REMARK    5  A    between atoms: C_23  and  O_24
REMARK                            x       y       z     vdW  Elec       q    Type
REMARK                         _______ _______ _______ _____ _____    ______ ____
ROOT
ATOM      1  C   UNL     1       0.855   3.610  19.272  0.00  0.00    +0.000 C 
ATOM      2  C   UNL     1       2.043   4.240  19.302  0.00  0.00    +0.000 C 
ATOM      3  C   UNL     1       2.422   5.064  20.516  0.00  0.00    +0.000 C 
ATOM      4  C   UNL     1       1.945   6.519  20.405  0.00  0.00    +0.000 C 
ATOM      5  C   UNL     1       1.958   7.031  18.959  0.00  0.00    +0.000 C 
ATOM      6  C   UNL     1       3.326   6.820  18.322  0.00  0.00    +0.000 C 
ATOM      7  O   UNL     1       3.572   8.000  17.548  0.00  0.00    +0.000 OA
ATOM      8  C   UNL     1       2.731   9.002  17.900  0.00  0.00    +0.000 C 
ATOM      9  O   UNL     1       2.839  10.150  17.489  0.00  0.00    +0.000 OA
ATOM     10  C   UNL     1       1.640   8.511  18.802  0.00  0.00    +0.000 C 
ATOM     11  C   UNL     1       3.334   5.567  17.416  0.00  0.00    +0.000 C 
ATOM     12  C   UNL     1       4.688   5.286  16.788  0.00  0.00    +0.000 C 
ATOM     13  C   UNL     1       5.247   6.014  15.810  0.00  0.00    +0.000 C 
ATOM     14  C   UNL     1       5.289   4.021  17.331  0.00  0.00    +0.000 C 
ATOM     15  C   UNL     1       4.344   3.573  18.437  0.00  0.00    +0.000 C 
ATOM     16  C   UNL     1       2.990   4.214  18.108  0.00  0.00    +0.000 C 
ENDROOT
BRANCH  14  17
ATOM     17  O   UNL     1       6.574   4.269  17.872  0.00  0.00    +0.000 OA
ATOM     18  H   UNL     1       6.965   3.410  18.104  0.00  0.00    +0.000 HD
ENDBRANCH  14  17
BRANCH  10  19
ATOM     19  C   UNL     1       0.299   8.755  18.093  0.00  0.00    +0.000 C 
BRANCH  19  20
ATOM     20  N   UNL     1      -0.040  10.183  18.068  0.00  0.00    +0.000 NA
ATOM     21  H   UNL     1      -0.377  10.440  17.135  0.00  0.00    +0.000 HD
BRANCH  20  22
ATOM     22  C   UNL     1      -1.102  10.500  19.037  0.00  0.00    +0.000 C 
BRANCH  22  23
ATOM     23  C   UNL     1      -0.539  11.160  20.306  0.00  0.00    +0.000 C 
ATOM     24  C   UNL     1      -1.517  12.052  21.044  0.00  0.00    +0.000 C 
ATOM     25  C   UNL     1      -0.973  12.020  22.451  0.00  0.00    +0.000 C 
ATOM     26  C   UNL     1      -0.377  10.647  22.520  0.00  0.00    +0.000 C 
ATOM     27  O   UNL     1      -0.083  10.053  23.546  0.00  0.00    +0.000 OA
ATOM     28  O   UNL     1      -0.158  10.159  21.263  0.00  0.00    +0.000 OA
ENDBRANCH  22  23
ENDBRANCH  20  22
ENDBRANCH  19  20
ENDBRANCH  10  19
TORSDOF 5
ENDMDL
MODEL 7
REMARK VINA RESULT:      -6.8     10.168     13.712
REMARK  Name = 
REMARK  5 active torsions:
REMARK  status: ('A' for Active; 'I' for Inactive)
REMARK    1  A    between atoms: C_10  and  C_11
REMARK    2  A    between atoms: C_11  and  N_12
REMARK    3  A    between atoms: N_12  and  C_13
REMARK    4  A    between atoms: C_13  and  C_14
REMARK    5  A    between atoms: C_23  and  O_24
REMARK                            x       y       z     vdW  Elec       q    Type
REMARK                         _______ _______ _______ _____ _____    ______ ____
ROOT
ATOM      1  C   UNL     1       9.357  10.844  17.866  0.00  0.00    +0.000 C 
ATOM      2  C   UNL     1      10.152  11.850  18.276  0.00  0.00    +0.000 C 
ATOM      3  C   UNL     1      11.245  11.573  19.288  0.00  0.00    +0.000 C 
ATOM      4  C   UNL     1      10.751  11.718  20.734  0.00  0.00    +0.000 C 
ATOM      5  C   UNL     1       9.675  12.802  20.880  0.00  0.00    +0.000 C 
ATOM      6  C   UNL     1      10.157  14.125  20.297  0.00  0.00    +0.000 C 
ATOM      7  O   UNL     1       9.690  15.132  21.202  0.00  0.00    +0.000 OA
ATOM      8  C   UNL     1       9.312  14.592  22.386  0.00  0.00    +0.000 C 
ATOM      9  O   UNL     1       9.017  15.259  23.369  0.00  0.00    +0.000 OA
ATOM     10  C   UNL     1       9.255  13.097  22.312  0.00  0.00    +0.000 C 
ATOM     11  C   UNL     1       9.577  14.357  18.883  0.00  0.00    +0.000 C 
ATOM     12  C   UNL     1      10.059  15.645  18.237  0.00  0.00    +0.000 C 
ATOM     13  C   UNL     1       9.684  16.878  18.609  0.00  0.00    +0.000 C 
ATOM     14  C   UNL     1      10.941  15.364  17.054  0.00  0.00    +0.000 C 
ATOM     15  C   UNL     1      11.130  13.854  17.046  0.00  0.00    +0.000 C 
ATOM     16  C   UNL     1       9.929  13.284  17.810  0.00  0.00    +0.000 C 
ENDROOT
BRANCH  14  17
ATOM     17  O   UNL     1      12.198  16.002  17.204  0.00  0.00    +0.000 OA
ATOM     18  H   UNL     1      12.880  15.310  17.198  0.00  0.00    +0.000 HD
ENDBRANCH  14  17
BRANCH  10  19
ATOM     19  C   UNL     1       7.808  12.667  22.604  0.00  0.00    +0.000 C 
BRANCH  19  20
ATOM     20  N   UNL     1       7.735  11.812  23.795  0.00  0.00    +0.000 NA
ATOM     21  H   UNL     1       8.635  11.829  24.285  0.00  0.00    +0.000 HD
BRANCH  20  22
ATOM     22  C   UNL     1       6.700  12.282  24.730  0.00  0.00    +0.000 C 
BRANCH  22  23
ATOM     23  C   UNL     1       6.317  11.198  25.750  0.00  0.00    +0.000 C 
ATOM     24  C   UNL     1       6.754  11.482  27.172  0.00  0.00    +0.000 C 
ATOM     25  C   UNL     1       5.761  10.677  27.974  0.00  0.00    +0.000 C 
ATOM     26  C   UNL     1       4.543  10.733  27.103  0.00  0.00    +0.000 C 
ATOM     27  O   UNL     1       3.403  10.482  27.461  0.00  0.00    +0.000 OA
ATOM     28  O   UNL     1       4.889  11.062  25.823  0.00  0.00    +0.000 OA
ENDBRANCH  22  23
ENDBRANCH  20  22
ENDBRANCH  19  20
ENDBRANCH  10  19
TORSDOF 5
ENDMDL
MODEL 8
REMARK VINA RESULT:      -6.7      4.744      8.619
REMARK  Name = 
REMARK  5 active torsions:
REMARK  status: ('A' for Active; 'I' for Inactive)
REMARK    1  A    between atoms: C_10  and  C_11
REMARK    2  A    between atoms: C_11  and  N_12
REMARK    3  A    between atoms: N_12  and  C_13
REMARK    4  A    between atoms: C_13  and  C_14
REMARK    5  A    between atoms: C_23  and  O_24
REMARK                            x       y       z     vdW  Elec       q    Type
REMARK                         _______ _______ _______ _____ _____    ______ ____
ROOT
ATOM      1  C   UNL     1       0.654   3.864  19.968  0.00  0.00    +0.000 C 
ATOM      2  C   UNL     1       1.880   4.406  19.856  0.00  0.00    +0.000 C 
ATOM      3  C   UNL     1       2.395   5.322  20.948  0.00  0.00    +0.000 C 
ATOM      4  C   UNL     1       2.007   6.788  20.709  0.00  0.00    +0.000 C 
ATOM      5  C   UNL     1       1.954   7.144  19.218  0.00  0.00    +0.000 C 
ATOM      6  C   UNL     1       3.259   6.770  18.525  0.00  0.00    +0.000 C 
ATOM      7  O   UNL     1       3.528   7.842  17.614  0.00  0.00    +0.000 OA
ATOM      8  C   UNL     1       2.780   8.934  17.906  0.00  0.00    +0.000 C 
ATOM      9  O   UNL     1       2.934  10.022  17.367  0.00  0.00    +0.000 OA
ATOM     10  C   UNL     1       1.724   8.619  18.921  0.00  0.00    +0.000 C 
ATOM     11  C   UNL     1       3.123   5.432  17.762  0.00  0.00    +0.000 C 
ATOM     12  C   UNL     1       4.409   4.990  17.086  0.00  0.00    +0.000 C 
ATOM     13  C   UNL     1       4.946   5.570  16.002  0.00  0.00    +0.000 C 
ATOM     14  C   UNL     1       4.962   3.749  17.725  0.00  0.00    +0.000 C 
ATOM     15  C   UNL     1       4.069   3.487  18.929  0.00  0.00    +0.000 C 
ATOM     16  C   UNL     1       2.740   4.187  18.617  0.00  0.00    +0.000 C 
ENDROOT
BRANCH  14  17
ATOM     17  O   UNL     1       6.295   3.958  18.156  0.00  0.00    +0.000 OA
ATOM     18  H   UNL     1       6.298   3.922  19.128  0.00  0.00    +0.000 HD
ENDBRANCH  14  17
BRANCH  10  19
ATOM     19  C   UNL     1       0.356   8.884  18.273  0.00  0.00    +0.000 C 
BRANCH  19  20
ATOM     20  N   UNL     1       0.008  10.309  18.324  0.00  0.00    +0.000 NA
ATOM     21  H   UNL     1      -1.006  10.419  18.218  0.00  0.00    +0.000 HD
BRANCH  20  22
ATOM     22  C   UNL     1       0.396  10.911  19.610  0.00  0.00    +0.000 C 
BRANCH  22  23
ATOM     23  C   UNL     1      -0.470  10.392  20.769  0.00  0.00    +0.000 C 
ATOM     24  C   UNL     1       0.310   9.864  21.956  0.00  0.00    +0.000 C 
ATOM     25  C   UNL     1      -0.678  10.039  23.084  0.00  0.00    +0.000 C 
ATOM     26  C   UNL     1      -1.437  11.253  22.644  0.00  0.00    +0.000 C 
ATOM     27  O   UNL     1      -2.136  11.951  23.361  0.00  0.00    +0.000 OA
ATOM     28  O   UNL     1      -1.280  11.451  21.301  0.00  0.00    +0.000 OA
ENDBRANCH  22  23
ENDBRANCH  20  22
ENDBRANCH  19  20
ENDBRANCH  10  19
TORSDOF 5
ENDMDL
MODEL 9
REMARK VINA RESULT:      -6.7      1.889      3.046
REMARK  Name = 
REMARK  5 active torsions:
REMARK  status: ('A' for Active; 'I' for Inactive)
REMARK    1  A    between atoms: C_10  and  C_11
REMARK    2  A    between atoms: C_11  and  N_12
REMARK    3  A    between atoms: N_12  and  C_13
REMARK    4  A    between atoms: C_13  and  C_14
REMARK    5  A    between atoms: C_23  and  O_24
REMARK                            x       y       z     vdW  Elec       q    Type
REMARK                         _______ _______ _______ _____ _____    ______ ____
ROOT
ATOM      1  C   UNL     1       5.159   1.491  19.929  0.00  0.00    +0.000 C 
ATOM      2  C   UNL     1       4.073   2.114  19.439  0.00  0.00    +0.000 C 
ATOM      3  C   UNL     1       3.722   1.964  17.973  0.00  0.00    +0.000 C 
ATOM      4  C   UNL     1       4.407   3.025  17.099  0.00  0.00    +0.000 C 
ATOM      5  C   UNL     1       4.575   4.364  17.828  0.00  0.00    +0.000 C 
ATOM      6  C   UNL     1       3.242   4.846  18.388  0.00  0.00    +0.000 C 
ATOM      7  O   UNL     1       3.223   6.261  18.161  0.00  0.00    +0.000 OA
ATOM      8  C   UNL     1       4.168   6.627  17.262  0.00  0.00    +0.000 C 
ATOM      9  O   UNL     1       4.254   7.755  16.793  0.00  0.00    +0.000 OA
ATOM     10  C   UNL     1       5.108   5.498  16.965  0.00  0.00    +0.000 C 
ATOM     11  C   UNL     1       3.127   4.539  19.899  0.00  0.00    +0.000 C 
ATOM     12  C   UNL     1       1.798   4.962  20.501  0.00  0.00    +0.000 C 
ATOM     13  C   UNL     1       1.422   6.232  20.717  0.00  0.00    +0.000 C 
ATOM     14  C   UNL     1       0.986   3.771  20.922  0.00  0.00    +0.000 C 
ATOM     15  C   UNL     1       1.772   2.560  20.439  0.00  0.00    +0.000 C 
ATOM     16  C   UNL     1       3.224   3.038  20.305  0.00  0.00    +0.000 C 
ENDROOT
BRANCH  14  17
ATOM     17  O   UNL     1      -0.289   3.790  20.305  0.00  0.00    +0.000 OA
ATOM     18  H   UNL     1      -0.925   3.411  20.935  0.00  0.00    +0.000 HD
ENDBRANCH  14  17
BRANCH  10  19
ATOM     19  C   UNL     1       6.520   5.942  17.379  0.00  0.00    +0.000 C 
BRANCH  19  20
ATOM     20  N   UNL     1       7.425   5.990  16.225  0.00  0.00    +0.000 NA
ATOM     21  H   UNL     1       8.378   6.189  16.544  0.00  0.00    +0.000 HD
BRANCH  20  22
ATOM     22  C   UNL     1       7.447   4.706  15.506  0.00  0.00    +0.000 C 
BRANCH  22  23
ATOM     23  C   UNL     1       6.844   4.829  14.097  0.00  0.00    +0.000 C 
ATOM     24  C   UNL     1       7.860   5.003  12.986  0.00  0.00    +0.000 C 
ATOM     25  C   UNL     1       7.111   4.469  11.789  0.00  0.00    +0.000 C 
ATOM     26  C   UNL     1       6.243   3.419  12.411  0.00  0.00    +0.000 C 
ATOM     27  O   UNL     1       5.680   2.517  11.811  0.00  0.00    +0.000 OA
ATOM     28  O   UNL     1       6.124   3.634  13.755  0.00  0.00    +0.000 OA
ENDBRANCH  22  23
ENDBRANCH  20  22
ENDBRANCH  19  20
ENDBRANCH  10  19
TORSDOF 5
ENDMDL
