MODEL 1
REMARK VINA RESULT:      -7.8      0.000      0.000
REMARK  Name = 
REMARK  11 active torsions:
REMARK  status: ('A' for Active; 'I' for Inactive)
REMARK    1  A    between atoms: N_1  and  C_2
REMARK    2  A    between atoms: C_2  and  C_3
REMARK    3  A    between atoms: C_6  and  C_7
REMARK    4  A    between atoms: C_7  and  C_8
REMARK    5  A    between atoms: C_8  and  C_9
REMARK    6  A    between atoms: C_9  and  N_10
REMARK    7  A    between atoms: N_10  and  C_11
REMARK    8  A    between atoms: C_11  and  C_12
REMARK    9  A    between atoms: C_12  and  N_13
REMARK   10  A    between atoms: N_13  and  S_14
REMARK   11  A    between atoms: S_14  and  C_17
REMARK                            x       y       z     vdW  Elec       q    Type
REMARK                         _______ _______ _______ _____ _____    ______ ____
ROOT
ATOM      1  C   UNL     1       6.511   7.712  17.043  0.00  0.00    +0.000 C 
ENDROOT
BRANCH   1   2
ATOM      2  N   UNL     1       7.215   7.032  18.146  0.00  0.00    +0.000 NA
ATOM      3  H   UNL     1       6.595   6.970  18.956  0.00  0.00    +0.000 HD
BRANCH   2   4
ATOM      4  C   UNL     1       8.457   7.707  18.530  0.00  0.00    +0.000 C 
BRANCH   4   5
ATOM      5  C   UNL     1       8.363   9.211  18.276  0.00  0.00    +0.000 C 
BRANCH   5   6
ATOM      6  C   UNL     1       9.179   9.978  19.323  0.00  0.00    +0.000 C 
BRANCH   6  10
ATOM      7  C   UNL     1      11.187  13.437  17.663  0.00  0.00    +0.000 A 
ATOM      8  C   UNL     1      11.855  12.570  18.540  0.00  0.00    +0.000 A 
ATOM      9  C   UNL     1      11.212  11.449  19.069  0.00  0.00    +0.000 A 
ATOM     10  C   UNL     1       9.884  11.168  18.728  0.00  0.00    +0.000 A 
ATOM     11  C   UNL     1       9.215  12.024  17.845  0.00  0.00    +0.000 A 
ATOM     12  C   UNL     1       9.861  13.147  17.317  0.00  0.00    +0.000 A 
BRANCH   7  13
ATOM     13  C   UNL     1      11.871  14.674  17.143  0.00  0.00    +0.000 C 
BRANCH  13  14
ATOM     14  N   UNL     1      11.015  15.431  16.236  0.00  0.00    +0.000 NA
ATOM     15  H   UNL     1      10.685  16.270  16.712  0.00  0.00    +0.000 HD
ATOM     16  H   UNL     1      10.188  14.875  16.027  0.00  0.00    +0.000 HD
ENDBRANCH  13  14
ENDBRANCH   7  13
ENDBRANCH   6  10
ENDBRANCH   5   6
ENDBRANCH   4   5
ENDBRANCH   2   4
ENDBRANCH   1   2
BRANCH   1  17
ATOM     17  C   UNL     1       5.391   6.848  16.435  0.00  0.00    +0.000 C 
BRANCH  17  18
ATOM     18  N   UNL     1       5.904   5.839  15.479  0.00  0.00    +0.000 NA
ATOM     19  H   UNL     1       6.824   6.089  15.099  0.00  0.00    +0.000 HD
BRANCH  18  20
ATOM     20  S   UNL     1       6.057   4.281  16.141  0.00  0.00    +0.000 S 
ATOM     21  O   UNL     1       5.908   3.338  15.053  0.00  0.00    +0.000 OA
ATOM     22  O   UNL     1       7.251   4.288  16.959  0.00  0.00    +0.000 OA
BRANCH  20  23
ATOM     23  C   UNL     1       4.735   3.964  17.285  0.00  0.00    +0.000 A 
ATOM     24  C   UNL     1       3.419   3.638  17.043  0.00  0.00    +0.000 A 
ATOM     25  C   UNL     1       2.649   3.451  18.231  0.00  0.00    +0.000 A 
ATOM     26  C   UNL     1       1.296   3.073  18.383  0.00  0.00    +0.000 A 
ATOM     27  C   UNL     1       0.719   3.003  19.651  0.00  0.00    +0.000 A 
ATOM     28  C   UNL     1       1.466   3.326  20.774  0.00  0.00    +0.000 A 
ATOM     29  C   UNL     1       2.814   3.688  20.657  0.00  0.00    +0.000 A 
ATOM     30  C   UNL     1       3.404   3.727  19.375  0.00  0.00    +0.000 A 
ATOM     31  S   UNL     1       5.048   4.085  18.956  0.00  0.00    +0.000 S 
ENDBRANCH  20  23
ENDBRANCH  18  20
ENDBRANCH  17  18
ENDBRANCH   1  17
TORSDOF 11
ENDMDL
MODEL 2
REMARK VINA RESULT:      -7.5      1.604      1.914
REMARK  Name = 
REMARK  11 active torsions:
REMARK  status: ('A' for Active; 'I' for Inactive)
REMARK    1  A    between atoms: N_1  and  C_2
REMARK    2  A    between atoms: C_2  and  C_3
REMARK    3  A    between atoms: C_6  and  C_7
REMARK    4  A    between atoms: C_7  and  C_8
REMARK    5  A    between atoms: C_8  and  C_9
REMARK    6  A    between atoms: C_9  and  N_10
REMARK    7  A    between atoms: N_10  and  C_11
REMARK    8  A    between atoms: C_11  and  C_12
REMARK    9  A    between atoms: C_12  and  N_13
REMARK   10  A    between atoms: N_13  and  S_14
REMARK   11  A    between atoms: S_14  and  C_17
REMARK                            x       y       z     vdW  Elec       q    Type
REMARK                         _______ _______ _______ _____ _____    ______ ____
ROOT
ATOM      1  C   UNL     1       7.768   6.717  18.413  0.00  0.00    +0.000 C 
ENDROOT
BRANCH   1   2
ATOM      2  N   UNL     1       7.435   7.974  17.719  0.00  0.00    +0.000 NA
ATOM      3  H   UNL     1       7.116   7.764  16.771  0.00  0.00    +0.000 HD
BRANCH   2   4
ATOM      4  C   UNL     1       8.563   8.908  17.660  0.00  0.00    +0.000 C 
BRANCH   4   5
ATOM      5  C   UNL     1       8.324  10.113  18.570  0.00  0.00    +0.000 C 
BRANCH   5   6
ATOM      6  C   UNL     1       9.625  10.512  19.275  0.00  0.00    +0.000 C 
BRANCH   6  10
ATOM      7  C   UNL     1      11.169  14.243  17.710  0.00  0.00    +0.000 A 
ATOM      8  C   UNL     1      10.489  14.204  18.938  0.00  0.00    +0.000 A 
ATOM      9  C   UNL     1       9.999  12.999  19.447  0.00  0.00    +0.000 A 
ATOM     10  C   UNL     1      10.182  11.805  18.741  0.00  0.00    +0.000 A 
ATOM     11  C   UNL     1      10.867  11.836  17.522  0.00  0.00    +0.000 A 
ATOM     12  C   UNL     1      11.356  13.043  17.011  0.00  0.00    +0.000 A 
BRANCH   7  13
ATOM     13  C   UNL     1      11.643  15.554  17.141  0.00  0.00    +0.000 C 
BRANCH  13  14
ATOM     14  N   UNL     1      10.778  16.027  16.065  0.00  0.00    +0.000 NA
ATOM     15  H   UNL     1      11.012  16.996  15.852  0.00  0.00    +0.000 HD
ATOM     16  H   UNL     1       9.816  16.029  16.398  0.00  0.00    +0.000 HD
ENDBRANCH  13  14
ENDBRANCH   7  13
ENDBRANCH   6  10
ENDBRANCH   5   6
ENDBRANCH   4   5
ENDBRANCH   2   4
ENDBRANCH   1   2
BRANCH   1  17
ATOM     17  C   UNL     1       7.337   5.471  17.619  0.00  0.00    +0.000 C 
BRANCH  17  18
ATOM     18  N   UNL     1       7.190   5.741  16.169  0.00  0.00    +0.000 NA
ATOM     19  H   UNL     1       7.767   5.117  15.593  0.00  0.00    +0.000 HD
BRANCH  18  20
ATOM     20  S   UNL     1       5.594   5.594  15.601  0.00  0.00    +0.000 S 
ATOM     21  O   UNL     1       5.228   6.870  15.024  0.00  0.00    +0.000 OA
ATOM     22  O   UNL     1       5.539   4.381  14.815  0.00  0.00    +0.000 OA
BRANCH  20  23
ATOM     23  C   UNL     1       4.482   5.299  16.955  0.00  0.00    +0.000 A 
ATOM     24  C   UNL     1       3.942   6.184  17.862  0.00  0.00    +0.000 A 
ATOM     25  C   UNL     1       3.075   5.569  18.814  0.00  0.00    +0.000 A 
ATOM     26  C   UNL     1       2.316   6.149  19.855  0.00  0.00    +0.000 A 
ATOM     27  C   UNL     1       1.568   5.348  20.717  0.00  0.00    +0.000 A 
ATOM     28  C   UNL     1       1.582   3.969  20.572  0.00  0.00    +0.000 A 
ATOM     29  C   UNL     1       2.311   3.365  19.540  0.00  0.00    +0.000 A 
ATOM     30  C   UNL     1       3.042   4.181  18.649  0.00  0.00    +0.000 A 
ATOM     31  S   UNL     1       3.974   3.703  17.267  0.00  0.00    +0.000 S 
ENDBRANCH  20  23
ENDBRANCH  18  20
ENDBRANCH  17  18
ENDBRANCH   1  17
TORSDOF 11
ENDMDL
MODEL 3
REMARK VINA RESULT:      -7.4      1.548      1.865
REMARK  Name = 
REMARK  11 active torsions:
REMARK  status: ('A' for Active; 'I' for Inactive)
REMARK    1  A    between atoms: N_1  and  C_2
REMARK    2  A    between atoms: C_2  and  C_3
REMARK    3  A    between atoms: C_6  and  C_7
REMARK    4  A    between atoms: C_7  and  C_8
REMARK    5  A    between atoms: C_8  and  C_9
REMARK    6  A    between atoms: C_9  and  N_10
REMARK    7  A    between atoms: N_10  and  C_11
REMARK    8  A    between atoms: C_11  and  C_12
REMARK    9  A    between atoms: C_12  and  N_13
REMARK   10  A    between atoms: N_13  and  S_14
REMARK   11  A    between atoms: S_14  and  C_17
REMARK                            x       y       z     vdW  Elec       q    Type
REMARK                         _______ _______ _______ _____ _____    ______ ____
ROOT
ATOM      1  C   UNL     1       7.255   7.886  17.624  0.00  0.00    +0.000 C 
ENDROOT
BRANCH   1   2
ATOM      2  N   UNL     1       8.455   8.333  18.353  0.00  0.00    +0.000 NA
ATOM      3  H   UNL     1       8.399   8.018  19.324  0.00  0.00    +0.000 HD
BRANCH   2   4
ATOM      4  C   UNL     1       8.631   9.788  18.321  0.00  0.00    +0.000 C 
BRANCH   4   5
ATOM      5  C   UNL     1       9.220  10.297  19.635  0.00  0.00    +0.000 C 
BRANCH   5   6
ATOM      6  C   UNL     1      10.638  10.834  19.409  0.00  0.00    +0.000 C 
BRANCH   6  10
ATOM      7  C   UNL     1      10.558  14.852  17.797  0.00  0.00    +0.000 A 
ATOM      8  C   UNL     1       9.953  14.559  19.029  0.00  0.00    +0.000 A 
ATOM      9  C   UNL     1       9.986  13.265  19.554  0.00  0.00    +0.000 A 
ATOM     10  C   UNL     1      10.630  12.235  18.859  0.00  0.00    +0.000 A 
ATOM     11  C   UNL     1      11.244  12.524  17.635  0.00  0.00    +0.000 A 
ATOM     12  C   UNL     1      11.208  13.820  17.109  0.00  0.00    +0.000 A 
BRANCH   7  13
ATOM     13  C   UNL     1      10.467  16.236  17.212  0.00  0.00    +0.000 C 
BRANCH  13  14
ATOM     14  N   UNL     1      10.515  16.218  15.753  0.00  0.00    +0.000 NA
ATOM     15  H   UNL     1      11.481  16.094  15.454  0.00  0.00    +0.000 HD
ATOM     16  H   UNL     1      10.220  17.128  15.406  0.00  0.00    +0.000 HD
ENDBRANCH  13  14
ENDBRANCH   7  13
ENDBRANCH   6  10
ENDBRANCH   5   6
ENDBRANCH   4   5
ENDBRANCH   2   4
ENDBRANCH   1   2
BRANCH   1  17
ATOM     17  C   UNL     1       7.109   6.353  17.609  0.00  0.00    +0.000 C 
BRANCH  17  18
ATOM     18  N   UNL     1       7.133   5.790  16.239  0.00  0.00    +0.000 NA
ATOM     19  H   UNL     1       7.609   4.883  16.195  0.00  0.00    +0.000 HD
BRANCH  18  20
ATOM     20  S   UNL     1       5.590   5.566  15.561  0.00  0.00    +0.000 S 
ATOM     21  O   UNL     1       5.080   6.877  15.218  0.00  0.00    +0.000 OA
ATOM     22  O   UNL     1       5.720   4.534  14.556  0.00  0.00    +0.000 OA
BRANCH  20  23
ATOM     23  C   UNL     1       4.481   4.878  16.767  0.00  0.00    +0.000 A 
ATOM     24  C   UNL     1       4.171   3.563  17.032  0.00  0.00    +0.000 A 
ATOM     25  C   UNL     1       3.229   3.400  18.092  0.00  0.00    +0.000 A 
ATOM     26  C   UNL     1       2.711   2.219  18.669  0.00  0.00    +0.000 A 
ATOM     27  C   UNL     1       1.744   2.286  19.672  0.00  0.00    +0.000 A 
ATOM     28  C   UNL     1       1.267   3.518  20.096  0.00  0.00    +0.000 A 
ATOM     29  C   UNL     1       1.774   4.707  19.556  0.00  0.00    +0.000 A 
ATOM     30  C   UNL     1       2.776   4.636  18.563  0.00  0.00    +0.000 A 
ATOM     31  S   UNL     1       3.606   5.938  17.775  0.00  0.00    +0.000 S 
ENDBRANCH  20  23
ENDBRANCH  18  20
ENDBRANCH  17  18
ENDBRANCH   1  17
TORSDOF 11
ENDMDL
MODEL 4
REMARK VINA RESULT:      -7.2      2.338      2.595
REMARK  Name = 
REMARK  11 active torsions:
REMARK  status: ('A' for Active; 'I' for Inactive)
REMARK    1  A    between atoms: N_1  and  C_2
REMARK    2  A    between atoms: C_2  and  C_3
REMARK    3  A    between atoms: C_6  and  C_7
REMARK    4  A    between atoms: C_7  and  C_8
REMARK    5  A    between atoms: C_8  and  C_9
REMARK    6  A    between atoms: C_9  and  N_10
REMARK    7  A    between atoms: N_10  and  C_11
REMARK    8  A    between atoms: C_11  and  C_12
REMARK    9  A    between atoms: C_12  and  N_13
REMARK   10  A    between atoms: N_13  and  S_14
REMARK   11  A    between atoms: S_14  and  C_17
REMARK                            x       y       z     vdW  Elec       q    Type
REMARK                         _______ _______ _______ _____ _____    ______ ____
ROOT
ATOM      1  C   UNL     1       7.984   6.858  18.649  0.00  0.00    +0.000 C 
ENDROOT
BRANCH   1   2
ATOM      2  N   UNL     1       8.684   8.132  18.891  0.00  0.00    +0.000 NA
ATOM      3  H   UNL     1       8.504   8.442  19.848  0.00  0.00    +0.000 HD
BRANCH   2   4
ATOM      4  C   UNL     1       8.288   9.186  17.953  0.00  0.00    +0.000 C 
BRANCH   4   5
ATOM      5  C   UNL     1       8.934  10.520  18.325  0.00  0.00    +0.000 C 
BRANCH   5   6
ATOM      6  C   UNL     1       9.537  10.444  19.732  0.00  0.00    +0.000 C 
BRANCH   6  10
ATOM      7  C   UNL     1      10.335  14.397  21.309  0.00  0.00    +0.000 A 
ATOM      8  C   UNL     1       9.270  13.627  21.802  0.00  0.00    +0.000 A 
ATOM      9  C   UNL     1       9.018  12.349  21.301  0.00  0.00    +0.000 A 
ATOM     10  C   UNL     1       9.828  11.809  20.296  0.00  0.00    +0.000 A 
ATOM     11  C   UNL     1      10.898  12.568  19.807  0.00  0.00    +0.000 A 
ATOM     12  C   UNL     1      11.149  13.850  20.309  0.00  0.00    +0.000 A 
BRANCH   7  13
ATOM     13  C   UNL     1      10.564  15.797  21.815  0.00  0.00    +0.000 C 
BRANCH  13  14
ATOM     14  N   UNL     1      10.398  15.889  23.261  0.00  0.00    +0.000 NA
ATOM     15  H   UNL     1       9.421  15.717  23.496  0.00  0.00    +0.000 HD
ATOM     16  H   UNL     1      10.599  16.844  23.552  0.00  0.00    +0.000 HD
ENDBRANCH  13  14
ENDBRANCH   7  13
ENDBRANCH   6  10
ENDBRANCH   5   6
ENDBRANCH   4   5
ENDBRANCH   2   4
ENDBRANCH   1   2
BRANCH   1  17
ATOM     17  C   UNL     1       7.413   6.759  17.223  0.00  0.00    +0.000 C 
BRANCH  17  18
ATOM     18  N   UNL     1       7.265   5.358  16.763  0.00  0.00    +0.000 NA
ATOM     19  H   UNL     1       7.345   4.682  17.530  0.00  0.00    +0.000 HD
BRANCH  18  20
ATOM     20  S   UNL     1       5.785   5.043  15.987  0.00  0.00    +0.000 S 
ATOM     21  O   UNL     1       5.368   6.273  15.347  0.00  0.00    +0.000 OA
ATOM     22  O   UNL     1       5.964   3.830  15.219  0.00  0.00    +0.000 OA
BRANCH  20  23
ATOM     23  C   UNL     1       4.536   4.634  17.183  0.00  0.00    +0.000 A 
ATOM     24  C   UNL     1       3.416   3.844  17.054  0.00  0.00    +0.000 A 
ATOM     25  C   UNL     1       2.645   3.745  18.252  0.00  0.00    +0.000 A 
ATOM     26  C   UNL     1       1.472   3.002  18.515  0.00  0.00    +0.000 A 
ATOM     27  C   UNL     1       0.840   3.093  19.755  0.00  0.00    +0.000 A 
ATOM     28  C   UNL     1       1.349   3.932  20.735  0.00  0.00    +0.000 A 
ATOM     29  C   UNL     1       2.520   4.668  20.510  0.00  0.00    +0.000 A 
ATOM     30  C   UNL     1       3.175   4.550  19.265  0.00  0.00    +0.000 A 
ATOM     31  S   UNL     1       4.652   5.297  18.749  0.00  0.00    +0.000 S 
ENDBRANCH  20  23
ENDBRANCH  18  20
ENDBRANCH  17  18
ENDBRANCH   1  17
TORSDOF 11
ENDMDL
MODEL 5
REMARK VINA RESULT:      -7.2      2.741      3.111
REMARK  Name = 
REMARK  11 active torsions:
REMARK  status: ('A' for Active; 'I' for Inactive)
REMARK    1  A    between atoms: N_1  and  C_2
REMARK    2  A    between atoms: C_2  and  C_3
REMARK    3  A    between atoms: C_6  and  C_7
REMARK    4  A    between atoms: C_7  and  C_8
REMARK    5  A    between atoms: C_8  and  C_9
REMARK    6  A    between atoms: C_9  and  N_10
REMARK    7  A    between atoms: N_10  and  C_11
REMARK    8  A    between atoms: C_11  and  C_12
REMARK    9  A    between atoms: C_12  and  N_13
REMARK   10  A    between atoms: N_13  and  S_14
REMARK   11  A    between atoms: S_14  and  C_17
REMARK                            x       y       z     vdW  Elec       q    Type
REMARK                         _______ _______ _______ _____ _____    ______ ____
ROOT
ATOM      1  C   UNL     1       6.114   5.612  15.956  0.00  0.00    +0.000 C 
ENDROOT
BRANCH   1   2
ATOM      2  N   UNL     1       6.100   6.876  16.714  0.00  0.00    +0.000 NA
ATOM      3  H   UNL     1       6.053   7.662  16.062  0.00  0.00    +0.000 HD
BRANCH   2   4
ATOM      4  C   UNL     1       7.269   7.031  17.583  0.00  0.00    +0.000 C 
BRANCH   4   5
ATOM      5  C   UNL     1       7.957   8.374  17.341  0.00  0.00    +0.000 C 
BRANCH   5   6
ATOM      6  C   UNL     1       8.534   8.918  18.653  0.00  0.00    +0.000 C 
BRANCH   6  10
ATOM      7  C   UNL     1       9.843  13.031  18.304  0.00  0.00    +0.000 A 
ATOM      8  C   UNL     1      10.489  12.142  19.177  0.00  0.00    +0.000 A 
ATOM      9  C   UNL     1      10.073  10.813  19.283  0.00  0.00    +0.000 A 
ATOM     10  C   UNL     1       9.003  10.342  18.515  0.00  0.00    +0.000 A 
ATOM     11  C   UNL     1       8.361  11.221  17.635  0.00  0.00    +0.000 A 
ATOM     12  C   UNL     1       8.778  12.553  17.531  0.00  0.00    +0.000 A 
BRANCH   7  13
ATOM     13  C   UNL     1      10.261  14.476  18.239  0.00  0.00    +0.000 C 
BRANCH  13  14
ATOM     14  N   UNL     1      10.781  14.836  16.924  0.00  0.00    +0.000 NA
ATOM     15  H   UNL     1      11.071  13.989  16.437  0.00  0.00    +0.000 HD
ATOM     16  H   UNL     1      11.620  15.399  17.049  0.00  0.00    +0.000 HD
ENDBRANCH  13  14
ENDBRANCH   7  13
ENDBRANCH   6  10
ENDBRANCH   5   6
ENDBRANCH   4   5
ENDBRANCH   2   4
ENDBRANCH   1   2
BRANCH   1  17
ATOM     17  C   UNL     1       6.186   4.375  16.870  0.00  0.00    +0.000 C 
BRANCH  17  18
ATOM     18  N   UNL     1       4.891   3.664  16.972  0.00  0.00    +0.000 NA
ATOM     19  H   UNL     1       4.952   2.689  16.659  0.00  0.00    +0.000 HD
BRANCH  18  20
ATOM     20  S   UNL     1       4.246   3.632  18.545  0.00  0.00    +0.000 S 
ATOM     21  O   UNL     1       3.282   2.552  18.589  0.00  0.00    +0.000 OA
ATOM     22  O   UNL     1       5.367   3.663  19.458  0.00  0.00    +0.000 OA
BRANCH  20  23
ATOM     23  C   UNL     1       3.356   5.134  18.877  0.00  0.00    +0.000 A 
ATOM     24  C   UNL     1       3.212   6.263  18.103  0.00  0.00    +0.000 A 
ATOM     25  C   UNL     1       2.408   7.274  18.711  0.00  0.00    +0.000 A 
ATOM     26  C   UNL     1       2.006   8.534  18.212  0.00  0.00    +0.000 A 
ATOM     27  C   UNL     1       1.257   9.403  19.004  0.00  0.00    +0.000 A 
ATOM     28  C   UNL     1       0.919   9.045  20.301  0.00  0.00    +0.000 A 
ATOM     29  C   UNL     1       1.288   7.796  20.818  0.00  0.00    +0.000 A 
ATOM     30  C   UNL     1       2.019   6.906  20.002  0.00  0.00    +0.000 A 
ATOM     31  S   UNL     1       2.549   5.296  20.369  0.00  0.00    +0.000 S 
ENDBRANCH  20  23
ENDBRANCH  18  20
ENDBRANCH  17  18
ENDBRANCH   1  17
TORSDOF 11
ENDMDL
MODEL 6
REMARK VINA RESULT:      -7.1      2.458      2.703
REMARK  Name = 
REMARK  11 active torsions:
REMARK  status: ('A' for Active; 'I' for Inactive)
REMARK    1  A    between atoms: N_1  and  C_2
REMARK    2  A    between atoms: C_2  and  C_3
REMARK    3  A    between atoms: C_6  and  C_7
REMARK    4  A    between atoms: C_7  and  C_8
REMARK    5  A    between atoms: C_8  and  C_9
REMARK    6  A    between atoms: C_9  and  N_10
REMARK    7  A    between atoms: N_10  and  C_11
REMARK    8  A    between atoms: C_11  and  C_12
REMARK    9  A    between atoms: C_12  and  N_13
REMARK   10  A    between atoms: N_13  and  S_14
REMARK   11  A    between atoms: S_14  and  C_17
REMARK                            x       y       z     vdW  Elec       q    Type
REMARK                         _______ _______ _______ _____ _____    ______ ____
ROOT
ATOM      1  C   UNL     1       7.592   6.068  18.716  0.00  0.00    +0.000 C 
ENDROOT
BRANCH   1   2
ATOM      2  N   UNL     1       7.740   7.308  17.932  0.00  0.00    +0.000 NA
ATOM      3  H   UNL     1       8.172   7.090  17.032  0.00  0.00    +0.000 HD
BRANCH   2   4
ATOM      4  C   UNL     1       8.534   8.327  18.623  0.00  0.00    +0.000 C 
BRANCH   4   5
ATOM      5  C   UNL     1       8.249   9.718  18.060  0.00  0.00    +0.000 C 
BRANCH   5   6
ATOM      6  C   UNL     1       9.516  10.580  18.108  0.00  0.00    +0.000 C 
BRANCH   6  10
ATOM      7  C   UNL     1       9.278  13.533  21.265  0.00  0.00    +0.000 A 
ATOM      8  C   UNL     1       9.750  12.238  21.526  0.00  0.00    +0.000 A 
ATOM      9  C   UNL     1       9.836  11.287  20.506  0.00  0.00    +0.000 A 
ATOM     10  C   UNL     1       9.455  11.614  19.200  0.00  0.00    +0.000 A 
ATOM     11  C   UNL     1       8.993  12.907  18.932  0.00  0.00    +0.000 A 
ATOM     12  C   UNL     1       8.906  13.858  19.954  0.00  0.00    +0.000 A 
BRANCH   7  13
ATOM     13  C   UNL     1       9.135  14.533  22.381  0.00  0.00    +0.000 C 
BRANCH  13  14
ATOM     14  N   UNL     1       7.919  14.315  23.158  0.00  0.00    +0.000 NA
ATOM     15  H   UNL     1       8.140  13.740  23.969  0.00  0.00    +0.000 HD
ATOM     16  H   UNL     1       7.264  13.778  22.593  0.00  0.00    +0.000 HD
ENDBRANCH  13  14
ENDBRANCH   7  13
ENDBRANCH   6  10
ENDBRANCH   5   6
ENDBRANCH   4   5
ENDBRANCH   2   4
ENDBRANCH   1   2
BRANCH   1  17
ATOM     17  C   UNL     1       7.399   4.826  17.826  0.00  0.00    +0.000 C 
BRANCH  17  18
ATOM     18  N   UNL     1       7.313   5.163  16.386  0.00  0.00    +0.000 NA
ATOM     19  H   UNL     1       7.867   4.529  15.800  0.00  0.00    +0.000 HD
BRANCH  18  20
ATOM     20  S   UNL     1       5.728   5.140  15.769  0.00  0.00    +0.000 S 
ATOM     21  O   UNL     1       5.417   6.488  15.343  0.00  0.00    +0.000 OA
ATOM     22  O   UNL     1       5.656   4.033  14.840  0.00  0.00    +0.000 OA
BRANCH  20  23
ATOM     23  C   UNL     1       4.573   4.722  17.052  0.00  0.00    +0.000 A 
ATOM     24  C   UNL     1       4.090   3.492  17.439  0.00  0.00    +0.000 A 
ATOM     25  C   UNL     1       3.169   3.555  18.528  0.00  0.00    +0.000 A 
ATOM     26  C   UNL     1       2.509   2.514  19.218  0.00  0.00    +0.000 A 
ATOM     27  C   UNL     1       1.594   2.804  20.229  0.00  0.00    +0.000 A 
ATOM     28  C   UNL     1       1.308   4.122  20.552  0.00  0.00    +0.000 A 
ATOM     29  C   UNL     1       1.959   5.176  19.898  0.00  0.00    +0.000 A 
ATOM     30  C   UNL     1       2.909   4.879  18.896  0.00  0.00    +0.000 A 
ATOM     31  S   UNL     1       3.888   5.977  17.980  0.00  0.00    +0.000 S 
ENDBRANCH  20  23
ENDBRANCH  18  20
ENDBRANCH  17  18
ENDBRANCH   1  17
TORSDOF 11
ENDMDL
MODEL 7
REMARK VINA RESULT:      -7.0      4.987      7.902
REMARK  Name = 
REMARK  11 active torsions:
REMARK  status: ('A' for Active; 'I' for Inactive)
REMARK    1  A    between atoms: N_1  and  C_2
REMARK    2  A    between atoms: C_2  and  C_3
REMARK    3  A    between atoms: C_6  and  C_7
REMARK    4  A    between atoms: C_7  and  C_8
REMARK    5  A    between atoms: C_8  and  C_9
REMARK    6  A    between atoms: C_9  and  N_10
REMARK    7  A    between atoms: N_10  and  C_11
REMARK    8  A    between atoms: C_11  and  C_12
REMARK    9  A    between atoms: C_12  and  N_13
REMARK   10  A    between atoms: N_13  and  S_14
REMARK   11  A    between atoms: S_14  and  C_17
REMARK                            x       y       z     vdW  Elec       q    Type
REMARK                         _______ _______ _______ _____ _____    ______ ____
ROOT
ATOM      1  C   UNL     1       1.719   4.995  20.485  0.00  0.00    +0.000 C 
ENDROOT
BRANCH   1   2
ATOM      2  N   UNL     1       2.632   6.138  20.297  0.00  0.00    +0.000 NA
ATOM      3  H   UNL     1       3.007   6.424  21.203  0.00  0.00    +0.000 HD
BRANCH   2   4
ATOM      4  C   UNL     1       1.983   7.283  19.652  0.00  0.00    +0.000 C 
BRANCH   4   5
ATOM      5  C   UNL     1       2.319   7.334  18.162  0.00  0.00    +0.000 C 
BRANCH   5   6
ATOM      6  C   UNL     1       2.450   8.788  17.696  0.00  0.00    +0.000 C 
BRANCH   6  10
ATOM      7  C   UNL     1      -1.031  11.176  18.661  0.00  0.00    +0.000 A 
ATOM      8  C   UNL     1      -1.137  10.056  17.822  0.00  0.00    +0.000 A 
ATOM      9  C   UNL     1      -0.016   9.280  17.517  0.00  0.00    +0.000 A 
ATOM     10  C   UNL     1       1.236   9.605  18.050  0.00  0.00    +0.000 A 
ATOM     11  C   UNL     1       1.346  10.715  18.895  0.00  0.00    +0.000 A 
ATOM     12  C   UNL     1       0.223  11.493  19.198  0.00  0.00    +0.000 A 
BRANCH   7  13
ATOM     13  C   UNL     1      -2.233  12.040  18.936  0.00  0.00    +0.000 C 
BRANCH  13  14
ATOM     14  N   UNL     1      -3.211  11.977  17.855  0.00  0.00    +0.000 NA
ATOM     15  H   UNL     1      -3.768  11.129  17.958  0.00  0.00    +0.000 HD
ATOM     16  H   UNL     1      -2.714  11.889  16.971  0.00  0.00    +0.000 HD
ENDBRANCH  13  14
ENDBRANCH   7  13
ENDBRANCH   6  10
ENDBRANCH   5   6
ENDBRANCH   4   5
ENDBRANCH   2   4
ENDBRANCH   1   2
BRANCH   1  17
ATOM     17  C   UNL     1       1.310   4.341  19.153  0.00  0.00    +0.000 C 
BRANCH  17  18
ATOM     18  N   UNL     1       1.656   2.901  19.095  0.00  0.00    +0.000 NA
ATOM     19  H   UNL     1       0.844   2.310  18.883  0.00  0.00    +0.000 HD
BRANCH  18  20
ATOM     20  S   UNL     1       2.847   2.527  17.940  0.00  0.00    +0.000 S 
ATOM     21  O   UNL     1       3.435   1.262  18.328  0.00  0.00    +0.000 OA
ATOM     22  O   UNL     1       2.236   2.693  16.639  0.00  0.00    +0.000 OA
BRANCH  20  23
ATOM     23  C   UNL     1       4.147   3.737  17.981  0.00  0.00    +0.000 A 
ATOM     24  C   UNL     1       4.502   4.683  17.045  0.00  0.00    +0.000 A 
ATOM     25  C   UNL     1       5.611   5.490  17.441  0.00  0.00    +0.000 A 
ATOM     26  C   UNL     1       6.224   6.575  16.775  0.00  0.00    +0.000 A 
ATOM     27  C   UNL     1       7.347   7.197  17.320  0.00  0.00    +0.000 A 
ATOM     28  C   UNL     1       7.885   6.738  18.513  0.00  0.00    +0.000 A 
ATOM     29  C   UNL     1       7.290   5.676  19.206  0.00  0.00    +0.000 A 
ATOM     30  C   UNL     1       6.134   5.070  18.667  0.00  0.00    +0.000 A 
ATOM     31  S   UNL     1       5.177   3.788  19.338  0.00  0.00    +0.000 S 
ENDBRANCH  20  23
ENDBRANCH  18  20
ENDBRANCH  17  18
ENDBRANCH   1  17
TORSDOF 11
ENDMDL
MODEL 8
REMARK VINA RESULT:      -7.0      2.225      2.631
REMARK  Name = 
REMARK  11 active torsions:
REMARK  status: ('A' for Active; 'I' for Inactive)
REMARK    1  A    between atoms: N_1  and  C_2
REMARK    2  A    between atoms: C_2  and  C_3
REMARK    3  A    between atoms: C_6  and  C_7
REMARK    4  A    between atoms: C_7  and  C_8
REMARK    5  A    between atoms: C_8  and  C_9
REMARK    6  A    between atoms: C_9  and  N_10
REMARK    7  A    between atoms: N_10  and  C_11
REMARK    8  A    between atoms: C_11  and  C_12
REMARK    9  A    between atoms: C_12  and  N_13
REMARK   10  A    between atoms: N_13  and  S_14
REMARK   11  A    between atoms: S_14  and  C_17
REMARK                            x       y       z     vdW  Elec       q    Type
REMARK                         _______ _______ _______ _____ _____    ______ ____
ROOT
ATOM      1  C   UNL     1       7.796   6.276  18.642  0.00  0.00    +0.000 C 
ENDROOT
BRANCH   1   2
ATOM      2  N   UNL     1       7.156   7.433  17.990  0.00  0.00    +0.000 NA
ATOM      3  H   UNL     1       6.594   7.109  17.200  0.00  0.00    +0.000 HD
BRANCH   2   4
ATOM      4  C   UNL     1       8.122   8.432  17.527  0.00  0.00    +0.000 C 
BRANCH   4   5
ATOM      5  C   UNL     1       8.584   9.322  18.680  0.00  0.00    +0.000 C 
BRANCH   5   6
ATOM      6  C   UNL     1       9.331  10.546  18.140  0.00  0.00    +0.000 C 
BRANCH   6  10
ATOM      7  C   UNL     1       9.669  13.719  21.066  0.00  0.00    +0.000 A 
ATOM      8  C   UNL     1       9.326  14.002  19.735  0.00  0.00    +0.000 A 
ATOM      9  C   UNL     1       9.208  12.978  18.792  0.00  0.00    +0.000 A 
ATOM     10  C   UNL     1       9.427  11.647  19.162  0.00  0.00    +0.000 A 
ATOM     11  C   UNL     1       9.759  11.358  20.490  0.00  0.00    +0.000 A 
ATOM     12  C   UNL     1       9.879  12.384  21.434  0.00  0.00    +0.000 A 
BRANCH   7  13
ATOM     13  C   UNL     1       9.851  14.835  22.061  0.00  0.00    +0.000 C 
BRANCH  13  14
ATOM     14  N   UNL     1      10.875  15.783  21.638  0.00  0.00    +0.000 NA
ATOM     15  H   UNL     1      11.561  15.888  22.385  0.00  0.00    +0.000 HD
ATOM     16  H   UNL     1      10.442  16.697  21.516  0.00  0.00    +0.000 HD
ENDBRANCH  13  14
ENDBRANCH   7  13
ENDBRANCH   6  10
ENDBRANCH   5   6
ENDBRANCH   4   5
ENDBRANCH   2   4
ENDBRANCH   1   2
BRANCH   1  17
ATOM     17  C   UNL     1       7.449   4.943  17.953  0.00  0.00    +0.000 C 
BRANCH  17  18
ATOM     18  N   UNL     1       7.418   5.055  16.476  0.00  0.00    +0.000 NA
ATOM     19  H   UNL     1       7.986   4.336  16.015  0.00  0.00    +0.000 HD
BRANCH  18  20
ATOM     20  S   UNL     1       5.856   4.943  15.812  0.00  0.00    +0.000 S 
ATOM     21  O   UNL     1       5.595   6.190  15.124  0.00  0.00    +0.000 OA
ATOM     22  O   UNL     1       5.788   3.681  15.109  0.00  0.00    +0.000 OA
BRANCH  20  23
ATOM     23  C   UNL     1       4.645   4.801  17.104  0.00  0.00    +0.000 A 
ATOM     24  C   UNL     1       4.065   5.779  17.881  0.00  0.00    +0.000 A 
ATOM     25  C   UNL     1       3.118   5.275  18.822  0.00  0.00    +0.000 A 
ATOM     26  C   UNL     1       2.302   5.967  19.746  0.00  0.00    +0.000 A 
ATOM     27  C   UNL     1       1.476   5.266  20.624  0.00  0.00    +0.000 A 
ATOM     28  C   UNL     1       1.466   3.879  20.612  0.00  0.00    +0.000 A 
ATOM     29  C   UNL     1       2.250   3.165  19.697  0.00  0.00    +0.000 A 
ATOM     30  C   UNL     1       3.061   3.878  18.787  0.00  0.00    +0.000 A 
ATOM     31  S   UNL     1       4.076   3.252  17.529  0.00  0.00    +0.000 S 
ENDBRANCH  20  23
ENDBRANCH  18  20
ENDBRANCH  17  18
ENDBRANCH   1  17
TORSDOF 11
ENDMDL
MODEL 9
REMARK VINA RESULT:      -7.0      5.257      7.687
REMARK  Name = 
REMARK  11 active torsions:
REMARK  status: ('A' for Active; 'I' for Inactive)
REMARK    1  A    between atoms: N_1  and  C_2
REMARK    2  A    between atoms: C_2  and  C_3
REMARK    3  A    between atoms: C_6  and  C_7
REMARK    4  A    between atoms: C_7  and  C_8
REMARK    5  A    between atoms: C_8  and  C_9
REMARK    6  A    between atoms: C_9  and  N_10
REMARK    7  A    between atoms: N_10  and  C_11
REMARK    8  A    between atoms: C_11  and  C_12
REMARK    9  A    between atoms: C_12  and  N_13
REMARK   10  A    between atoms: N_13  and  S_14
REMARK   11  A    between atoms: S_14  and  C_17
REMARK                            x       y       z     vdW  Elec       q    Type
REMARK                         _______ _______ _______ _____ _____    ______ ____
ROOT
ATOM      1  C   UNL     1       4.685   7.497  17.280  0.00  0.00    +0.000 C 
ENDROOT
BRANCH   1   2
ATOM      2  N   UNL     1       3.304   7.344  17.770  0.00  0.00    +0.000 NA
ATOM      3  H   UNL     1       2.839   6.598  17.248  0.00  0.00    +0.000 HD
BRANCH   2   4
ATOM      4  C   UNL     1       2.521   8.578  17.661  0.00  0.00    +0.000 C 
BRANCH   4   5
ATOM      5  C   UNL     1       1.524   8.697  18.813  0.00  0.00    +0.000 C 
BRANCH   5   6
ATOM      6  C   UNL     1       1.159  10.167  19.049  0.00  0.00    +0.000 C 
BRANCH   6  10
ATOM      7  C   UNL     1      -2.696  11.169  17.350  0.00  0.00    +0.000 A 
ATOM      8  C   UNL     1      -1.998  12.091  18.145  0.00  0.00    +0.000 A 
ATOM      9  C   UNL     1      -0.751  11.772  18.686  0.00  0.00    +0.000 A 
ATOM     10  C   UNL     1      -0.171  10.523  18.439  0.00  0.00    +0.000 A 
ATOM     11  C   UNL     1      -0.857   9.603  17.640  0.00  0.00    +0.000 A 
ATOM     12  C   UNL     1      -2.107   9.923  17.100  0.00  0.00    +0.000 A 
BRANCH   7  13
ATOM     13  C   UNL     1      -4.066  11.500  16.820  0.00  0.00    +0.000 C 
BRANCH  13  14
ATOM     14  N   UNL     1      -4.870  12.225  17.798  0.00  0.00    +0.000 NA
ATOM     15  H   UNL     1      -4.710  11.827  18.722  0.00  0.00    +0.000 HD
ATOM     16  H   UNL     1      -5.854  12.073  17.586  0.00  0.00    +0.000 HD
ENDBRANCH  13  14
ENDBRANCH   7  13
ENDBRANCH   6  10
ENDBRANCH   5   6
ENDBRANCH   4   5
ENDBRANCH   2   4
ENDBRANCH   1   2
BRANCH   1  17
ATOM     17  C   UNL     1       4.961   6.661  16.017  0.00  0.00    +0.000 C 
BRANCH  17  18
ATOM     18  N   UNL     1       6.315   6.059  16.015  0.00  0.00    +0.000 NA
ATOM     19  H   UNL     1       6.974   6.572  16.611  0.00  0.00    +0.000 HD
BRANCH  18  20
ATOM     20  S   UNL     1       6.348   4.439  16.531  0.00  0.00    +0.000 S 
ATOM     21  O   UNL     1       6.244   3.612  15.347  0.00  0.00    +0.000 OA
ATOM     22  O   UNL     1       7.473   4.309  17.431  0.00  0.00    +0.000 OA
BRANCH  20  23
ATOM     23  C   UNL     1       4.927   4.084  17.537  0.00  0.00    +0.000 A 
ATOM     24  C   UNL     1       3.696   3.582  17.178  0.00  0.00    +0.000 A 
ATOM     25  C   UNL     1       2.800   3.424  18.279  0.00  0.00    +0.000 A 
ATOM     26  C   UNL     1       1.486   2.905  18.310  0.00  0.00    +0.000 A 
ATOM     27  C   UNL     1       0.758   2.893  19.500  0.00  0.00    +0.000 A 
ATOM     28  C   UNL     1       1.313   3.412  20.660  0.00  0.00    +0.000 A 
ATOM     29  C   UNL     1       2.620   3.918  20.665  0.00  0.00    +0.000 A 
ATOM     30  C   UNL     1       3.366   3.899  19.466  0.00  0.00    +0.000 A 
ATOM     31  S   UNL     1       5.004   4.406  19.209  0.00  0.00    +0.000 S 
ENDBRANCH  20  23
ENDBRANCH  18  20
ENDBRANCH  17  18
ENDBRANCH   1  17
TORSDOF 11
ENDMDL
