MODEL 1
REMARK VINA RESULT:      -7.3      0.000      0.000
REMARK  Name = 
REMARK  7 active torsions:
REMARK  status: ('A' for Active; 'I' for Inactive)
REMARK    1  A    between atoms: C_1  and  O_2
REMARK    2  A    between atoms: O_2  and  C_3
REMARK    3  A    between atoms: C_3  and  C_4
REMARK    4  A    between atoms: C_4  and  N_5
REMARK    5  A    between atoms: C_6  and  C_8
REMARK    6  A    between atoms: C_15  and  O_16
REMARK    7  A    between atoms: O_16  and  C_17
REMARK                            x       y       z     vdW  Elec       q    Type
REMARK                         _______ _______ _______ _____ _____    ______ ____
ROOT
ATOM      1  C   UNL     1       5.843   4.702  15.004  0.00  0.00    +0.000 A 
ATOM      2  C   UNL     1       5.267   5.880  15.440  0.00  0.00    +0.000 A 
ATOM      3  C   UNL     1       4.645   5.596  16.680  0.00  0.00    +0.000 A 
ATOM      4  C   UNL     1       3.899   6.312  17.622  0.00  0.00    +0.000 A 
ATOM      5  C   UNL     1       3.450   5.620  18.758  0.00  0.00    +0.000 A 
ATOM      6  C   UNL     1       2.682   6.280  19.729  0.00  0.00    +0.000 A 
ATOM      7  C   UNL     1       2.235   5.600  20.862  0.00  0.00    +0.000 A 
ATOM      8  C   UNL     1       2.558   4.259  21.031  0.00  0.00    +0.000 A 
ATOM      9  C   UNL     1       3.324   3.608  20.055  0.00  0.00    +0.000 A 
ATOM     10  C   UNL     1       3.778   4.252  18.909  0.00  0.00    +0.000 A 
ATOM     11  N   UNL     1       4.493   3.551  18.015  0.00  0.00    +0.000 NA
ATOM     12  C   UNL     1       4.887   4.251  16.940  0.00  0.00    +0.000 A 
ATOM     13  O   UNL     1       5.609   3.707  15.919  0.00  0.00    +0.000 OA
ENDROOT
BRANCH   1  15
ATOM     14  N   UNL     1       6.198   3.294  13.122  0.00  0.00    +0.000 N 
ATOM     15  C   UNL     1       6.610   4.415  13.809  0.00  0.00    +0.000 C 
ATOM     16  O   UNL     1       7.552   5.107  13.434  0.00  0.00    +0.000 OA
ATOM     17  H   UNL     1       5.301   2.892  13.377  0.00  0.00    +0.000 HD
BRANCH  14  18
ATOM     18  C   UNL     1       6.800   2.911  11.860  0.00  0.00    +0.000 C 
BRANCH  18  19
ATOM     19  C   UNL     1       5.955   1.890  11.099  0.00  0.00    +0.000 C 
BRANCH  19  21
ATOM     20  C   UNL     1       6.068  -0.451  11.365  0.00  0.00    +0.000 C 
ATOM     21  O   UNL     1       6.729   0.708  10.877  0.00  0.00    +0.000 OA
ENDBRANCH  19  21
ENDBRANCH  18  19
ENDBRANCH  14  18
ENDBRANCH   1  15
BRANCH   8  22
ATOM     22  O   UNL     1       2.190   3.478  22.094  0.00  0.00    +0.000 OA
ATOM     23  C   UNL     1       1.115   2.567  21.884  0.00  0.00    +0.000 C 
ENDBRANCH   8  22
TORSDOF 5
ENDMDL
MODEL 2
REMARK VINA RESULT:      -7.1      4.280      6.139
REMARK  Name = 
REMARK  7 active torsions:
REMARK  status: ('A' for Active; 'I' for Inactive)
REMARK    1  A    between atoms: C_1  and  O_2
REMARK    2  A    between atoms: O_2  and  C_3
REMARK    3  A    between atoms: C_3  and  C_4
REMARK    4  A    between atoms: C_4  and  N_5
REMARK    5  A    between atoms: C_6  and  C_8
REMARK    6  A    between atoms: C_15  and  O_16
REMARK    7  A    between atoms: O_16  and  C_17
REMARK                            x       y       z     vdW  Elec       q    Type
REMARK                         _______ _______ _______ _____ _____    ______ ____
ROOT
ATOM      1  C   UNL     1       3.275   6.393  18.407  0.00  0.00    +0.000 A 
ATOM      2  C   UNL     1       2.883   7.535  17.736  0.00  0.00    +0.000 A 
ATOM      3  C   UNL     1       2.084   8.284  18.635  0.00  0.00    +0.000 A 
ATOM      4  C   UNL     1       1.385   9.494  18.594  0.00  0.00    +0.000 A 
ATOM      5  C   UNL     1       0.691   9.883  19.751  0.00  0.00    +0.000 A 
ATOM      6  C   UNL     1      -0.044  11.078  19.766  0.00  0.00    +0.000 A 
ATOM      7  C   UNL     1      -0.733  11.472  20.912  0.00  0.00    +0.000 A 
ATOM      8  C   UNL     1      -0.686  10.677  22.051  0.00  0.00    +0.000 A 
ATOM      9  C   UNL     1       0.050   9.485  22.026  0.00  0.00    +0.000 A 
ATOM     10  C   UNL     1       0.741   9.056  20.898  0.00  0.00    +0.000 A 
ATOM     11  N   UNL     1       1.408   7.892  20.953  0.00  0.00    +0.000 NA
ATOM     12  C   UNL     1       2.042   7.557  19.819  0.00  0.00    +0.000 A 
ATOM     13  O   UNL     1       2.760   6.405  19.678  0.00  0.00    +0.000 OA
ENDROOT
BRANCH   1  15
ATOM     14  N   UNL     1       4.575   5.393  16.687  0.00  0.00    +0.000 N 
ATOM     15  C   UNL     1       4.104   5.285  17.977  0.00  0.00    +0.000 C 
ATOM     16  O   UNL     1       4.367   4.325  18.695  0.00  0.00    +0.000 OA
ATOM     17  H   UNL     1       4.483   6.295  16.229  0.00  0.00    +0.000 HD
BRANCH  14  18
ATOM     18  C   UNL     1       5.487   4.416  16.126  0.00  0.00    +0.000 C 
BRANCH  18  19
ATOM     19  C   UNL     1       6.844   5.023  15.772  0.00  0.00    +0.000 C 
BRANCH  19  21
ATOM     20  C   UNL     1       7.759   4.675  17.920  0.00  0.00    +0.000 C 
ATOM     21  O   UNL     1       7.865   4.372  16.535  0.00  0.00    +0.000 OA
ENDBRANCH  19  21
ENDBRANCH  18  19
ENDBRANCH  14  18
ENDBRANCH   1  15
BRANCH   8  22
ATOM     22  O   UNL     1      -1.309  10.948  23.240  0.00  0.00    +0.000 OA
ATOM     23  C   UNL     1      -2.337  11.933  23.219  0.00  0.00    +0.000 C 
ENDBRANCH   8  22
TORSDOF 5
ENDMDL
MODEL 3
REMARK VINA RESULT:      -7.0      0.944      1.161
REMARK  Name = 
REMARK  7 active torsions:
REMARK  status: ('A' for Active; 'I' for Inactive)
REMARK    1  A    between atoms: C_1  and  O_2
REMARK    2  A    between atoms: O_2  and  C_3
REMARK    3  A    between atoms: C_3  and  C_4
REMARK    4  A    between atoms: C_4  and  N_5
REMARK    5  A    between atoms: C_6  and  C_8
REMARK    6  A    between atoms: C_15  and  O_16
REMARK    7  A    between atoms: O_16  and  C_17
REMARK                            x       y       z     vdW  Elec       q    Type
REMARK                         _______ _______ _______ _____ _____    ______ ____
ROOT
ATOM      1  C   UNL     1       5.861   4.907  15.218  0.00  0.00    +0.000 A 
ATOM      2  C   UNL     1       5.269   6.080  15.647  0.00  0.00    +0.000 A 
ATOM      3  C   UNL     1       4.591   5.778  16.853  0.00  0.00    +0.000 A 
ATOM      4  C   UNL     1       3.805   6.483  17.771  0.00  0.00    +0.000 A 
ATOM      5  C   UNL     1       3.302   5.774  18.874  0.00  0.00    +0.000 A 
ATOM      6  C   UNL     1       2.494   6.421  19.820  0.00  0.00    +0.000 A 
ATOM      7  C   UNL     1       1.993   5.725  20.920  0.00  0.00    +0.000 A 
ATOM      8  C   UNL     1       2.304   4.380  21.082  0.00  0.00    +0.000 A 
ATOM      9  C   UNL     1       3.112   3.742  20.131  0.00  0.00    +0.000 A 
ATOM     10  C   UNL     1       3.619   4.402  19.018  0.00  0.00    +0.000 A 
ATOM     11  N   UNL     1       4.372   3.713  18.145  0.00  0.00    +0.000 NA
ATOM     12  C   UNL     1       4.816   4.429  17.102  0.00  0.00    +0.000 A 
ATOM     13  O   UNL     1       5.582   3.898  16.105  0.00  0.00    +0.000 OA
ENDROOT
BRANCH   1  15
ATOM     14  N   UNL     1       6.271   3.554  13.308  0.00  0.00    +0.000 N 
ATOM     15  C   UNL     1       6.681   4.636  14.055  0.00  0.00    +0.000 C 
ATOM     16  O   UNL     1       7.662   5.310  13.753  0.00  0.00    +0.000 OA
ATOM     17  H   UNL     1       5.350   3.173  13.502  0.00  0.00    +0.000 HD
BRANCH  14  18
ATOM     18  C   UNL     1       6.926   3.195  12.065  0.00  0.00    +0.000 C 
BRANCH  18  19
ATOM     19  C   UNL     1       5.966   2.549  11.067  0.00  0.00    +0.000 C 
BRANCH  19  21
ATOM     20  C   UNL     1       3.724   3.185  10.701  0.00  0.00    +0.000 C 
ATOM     21  O   UNL     1       4.640   2.578  11.603  0.00  0.00    +0.000 OA
ENDBRANCH  19  21
ENDBRANCH  18  19
ENDBRANCH  14  18
ENDBRANCH   1  15
BRANCH   8  22
ATOM     22  O   UNL     1       1.885   3.583  22.114  0.00  0.00    +0.000 OA
ATOM     23  C   UNL     1       1.389   2.292  21.772  0.00  0.00    +0.000 C 
ENDBRANCH   8  22
TORSDOF 5
ENDMDL
MODEL 4
REMARK VINA RESULT:      -6.9      4.386      6.328
REMARK  Name = 
REMARK  7 active torsions:
REMARK  status: ('A' for Active; 'I' for Inactive)
REMARK    1  A    between atoms: C_1  and  O_2
REMARK    2  A    between atoms: O_2  and  C_3
REMARK    3  A    between atoms: C_3  and  C_4
REMARK    4  A    between atoms: C_4  and  N_5
REMARK    5  A    between atoms: C_6  and  C_8
REMARK    6  A    between atoms: C_15  and  O_16
REMARK    7  A    between atoms: O_16  and  C_17
REMARK                            x       y       z     vdW  Elec       q    Type
REMARK                         _______ _______ _______ _____ _____    ______ ____
ROOT
ATOM      1  C   UNL     1       3.185   6.592  18.351  0.00  0.00    +0.000 A 
ATOM      2  C   UNL     1       2.761   7.723  17.681  0.00  0.00    +0.000 A 
ATOM      3  C   UNL     1       2.001   8.484  18.604  0.00  0.00    +0.000 A 
ATOM      4  C   UNL     1       1.298   9.692  18.577  0.00  0.00    +0.000 A 
ATOM      5  C   UNL     1       0.655  10.097  19.758  0.00  0.00    +0.000 A 
ATOM      6  C   UNL     1      -0.081  11.290  19.789  0.00  0.00    +0.000 A 
ATOM      7  C   UNL     1      -0.720  11.700  20.959  0.00  0.00    +0.000 A 
ATOM      8  C   UNL     1      -0.620  10.921  22.106  0.00  0.00    +0.000 A 
ATOM      9  C   UNL     1       0.118   9.730  22.065  0.00  0.00    +0.000 A 
ATOM     10  C   UNL     1       0.758   9.286  20.914  0.00  0.00    +0.000 A 
ATOM     11  N   UNL     1       1.430   8.124  20.956  0.00  0.00    +0.000 NA
ATOM     12  C   UNL     1       2.014   7.774  19.800  0.00  0.00    +0.000 A 
ATOM     13  O   UNL     1       2.727   6.621  19.644  0.00  0.00    +0.000 OA
ENDROOT
BRANCH   1  15
ATOM     14  N   UNL     1       5.273   5.456  18.419  0.00  0.00    +0.000 N 
ATOM     15  C   UNL     1       3.997   5.479  17.900  0.00  0.00    +0.000 C 
ATOM     16  O   UNL     1       3.590   4.625  17.119  0.00  0.00    +0.000 OA
ATOM     17  H   UNL     1       5.471   6.073  19.202  0.00  0.00    +0.000 HD
BRANCH  14  18
ATOM     18  C   UNL     1       6.188   4.368  18.141  0.00  0.00    +0.000 C 
BRANCH  18  19
ATOM     19  C   UNL     1       7.519   4.859  17.572  0.00  0.00    +0.000 C 
BRANCH  19  21
ATOM     20  C   UNL     1       6.996   4.694  15.278  0.00  0.00    +0.000 C 
ATOM     21  O   UNL     1       7.278   5.575  16.357  0.00  0.00    +0.000 OA
ENDBRANCH  19  21
ENDBRANCH  18  19
ENDBRANCH  14  18
ENDBRANCH   1  15
BRANCH   8  22
ATOM     22  O   UNL     1      -1.189  11.208  23.317  0.00  0.00    +0.000 OA
ATOM     23  C   UNL     1      -2.417  11.931  23.298  0.00  0.00    +0.000 C 
ENDBRANCH   8  22
TORSDOF 5
ENDMDL
MODEL 5
REMARK VINA RESULT:      -6.7      1.853      2.702
REMARK  Name = 
REMARK  7 active torsions:
REMARK  status: ('A' for Active; 'I' for Inactive)
REMARK    1  A    between atoms: C_1  and  O_2
REMARK    2  A    between atoms: O_2  and  C_3
REMARK    3  A    between atoms: C_3  and  C_4
REMARK    4  A    between atoms: C_4  and  N_5
REMARK    5  A    between atoms: C_6  and  C_8
REMARK    6  A    between atoms: C_15  and  O_16
REMARK    7  A    between atoms: O_16  and  C_17
REMARK                            x       y       z     vdW  Elec       q    Type
REMARK                         _______ _______ _______ _____ _____    ______ ____
ROOT
ATOM      1  C   UNL     1       5.701   4.774  15.450  0.00  0.00    +0.000 A 
ATOM      2  C   UNL     1       5.104   3.787  16.210  0.00  0.00    +0.000 A 
ATOM      3  C   UNL     1       4.321   4.444  17.191  0.00  0.00    +0.000 A 
ATOM      4  C   UNL     1       3.495   4.054  18.250  0.00  0.00    +0.000 A 
ATOM      5  C   UNL     1       2.887   5.067  19.008  0.00  0.00    +0.000 A 
ATOM      6  C   UNL     1       2.063   4.739  20.094  0.00  0.00    +0.000 A 
ATOM      7  C   UNL     1       1.453   5.741  20.850  0.00  0.00    +0.000 A 
ATOM      8  C   UNL     1       1.660   7.074  20.519  0.00  0.00    +0.000 A 
ATOM      9  C   UNL     1       2.486   7.392  19.432  0.00  0.00    +0.000 A 
ATOM     10  C   UNL     1       3.117   6.421  18.664  0.00  0.00    +0.000 A 
ATOM     11  N   UNL     1       3.906   6.811  17.650  0.00  0.00    +0.000 NA
ATOM     12  C   UNL     1       4.476   5.808  16.965  0.00  0.00    +0.000 A 
ATOM     13  O   UNL     1       5.320   6.008  15.912  0.00  0.00    +0.000 OA
ENDROOT
BRANCH   1  15
ATOM     14  N   UNL     1       6.236   3.720  13.388  0.00  0.00    +0.000 N 
ATOM     15  C   UNL     1       6.593   4.676  14.312  0.00  0.00    +0.000 C 
ATOM     16  O   UNL     1       7.588   5.381  14.177  0.00  0.00    +0.000 OA
ATOM     17  H   UNL     1       5.305   3.319  13.465  0.00  0.00    +0.000 HD
BRANCH  14  18
ATOM     18  C   UNL     1       6.969   3.547  12.149  0.00  0.00    +0.000 C 
BRANCH  18  19
ATOM     19  C   UNL     1       6.453   2.366  11.328  0.00  0.00    +0.000 C 
BRANCH  19  21
ATOM     20  C   UNL     1       4.242   3.155  11.093  0.00  0.00    +0.000 C 
ATOM     21  O   UNL     1       5.075   2.142  11.640  0.00  0.00    +0.000 OA
ENDBRANCH  19  21
ENDBRANCH  18  19
ENDBRANCH  14  18
ENDBRANCH   1  15
BRANCH   8  22
ATOM     22  O   UNL     1       1.119   8.151  21.170  0.00  0.00    +0.000 OA
ATOM     23  C   UNL     1       0.745   9.268  20.368  0.00  0.00    +0.000 C 
ENDBRANCH   8  22
TORSDOF 5
ENDMDL
MODEL 6
REMARK VINA RESULT:      -6.7      2.911      3.930
REMARK  Name = 
REMARK  7 active torsions:
REMARK  status: ('A' for Active; 'I' for Inactive)
REMARK    1  A    between atoms: C_1  and  O_2
REMARK    2  A    between atoms: O_2  and  C_3
REMARK    3  A    between atoms: C_3  and  C_4
REMARK    4  A    between atoms: C_4  and  N_5
REMARK    5  A    between atoms: C_6  and  C_8
REMARK    6  A    between atoms: C_15  and  O_16
REMARK    7  A    between atoms: O_16  and  C_17
REMARK                            x       y       z     vdW  Elec       q    Type
REMARK                         _______ _______ _______ _____ _____    ______ ____
ROOT
ATOM      1  C   UNL     1       5.536   5.371  16.726  0.00  0.00    +0.000 A 
ATOM      2  C   UNL     1       5.084   4.865  17.930  0.00  0.00    +0.000 A 
ATOM      3  C   UNL     1       4.115   5.775  18.418  0.00  0.00    +0.000 A 
ATOM      4  C   UNL     1       3.302   5.871  19.552  0.00  0.00    +0.000 A 
ATOM      5  C   UNL     1       2.453   6.984  19.651  0.00  0.00    +0.000 A 
ATOM      6  C   UNL     1       1.626   7.145  20.773  0.00  0.00    +0.000 A 
ATOM      7  C   UNL     1       0.777   8.247  20.877  0.00  0.00    +0.000 A 
ATOM      8  C   UNL     1       0.748   9.190  19.857  0.00  0.00    +0.000 A 
ATOM      9  C   UNL     1       1.578   9.022  18.741  0.00  0.00    +0.000 A 
ATOM     10  C   UNL     1       2.443   7.941  18.609  0.00  0.00    +0.000 A 
ATOM     11  N   UNL     1       3.217   7.864  17.514  0.00  0.00    +0.000 NA
ATOM     12  C   UNL     1       4.021   6.790  17.472  0.00  0.00    +0.000 A 
ATOM     13  O   UNL     1       4.889   6.548  16.448  0.00  0.00    +0.000 OA
ENDROOT
BRANCH   1  15
ATOM     14  N   UNL     1       6.068   4.749  14.495  0.00  0.00    +0.000 N 
ATOM     15  C   UNL     1       6.515   4.850  15.794  0.00  0.00    +0.000 C 
ATOM     16  O   UNL     1       7.650   4.522  16.126  0.00  0.00    +0.000 OA
ATOM     17  H   UNL     1       5.199   5.218  14.261  0.00  0.00    +0.000 HD
BRANCH  14  18
ATOM     18  C   UNL     1       6.945   4.328  13.419  0.00  0.00    +0.000 C 
BRANCH  18  19
ATOM     19  C   UNL     1       6.224   3.461  12.388  0.00  0.00    +0.000 C 
BRANCH  19  21
ATOM     20  C   UNL     1       4.102   3.234  11.381  0.00  0.00    +0.000 C 
ATOM     21  O   UNL     1       4.810   3.604  12.557  0.00  0.00    +0.000 OA
ENDBRANCH  19  21
ENDBRANCH  18  19
ENDBRANCH  14  18
ENDBRANCH   1  15
BRANCH   8  22
ATOM     22  O   UNL     1      -0.039  10.311  19.829  0.00  0.00    +0.000 OA
ATOM     23  C   UNL     1      -0.881  10.479  18.693  0.00  0.00    +0.000 C 
ENDBRANCH   8  22
TORSDOF 5
ENDMDL
MODEL 7
REMARK VINA RESULT:      -6.7      5.142      8.442
REMARK  Name = 
REMARK  7 active torsions:
REMARK  status: ('A' for Active; 'I' for Inactive)
REMARK    1  A    between atoms: C_1  and  O_2
REMARK    2  A    between atoms: O_2  and  C_3
REMARK    3  A    between atoms: C_3  and  C_4
REMARK    4  A    between atoms: C_4  and  N_5
REMARK    5  A    between atoms: C_6  and  C_8
REMARK    6  A    between atoms: C_15  and  O_16
REMARK    7  A    between atoms: O_16  and  C_17
REMARK                            x       y       z     vdW  Elec       q    Type
REMARK                         _______ _______ _______ _____ _____    ______ ____
ROOT
ATOM      1  C   UNL     1       1.140   9.585  18.586  0.00  0.00    +0.000 A 
ATOM      2  C   UNL     1       1.242   8.607  19.556  0.00  0.00    +0.000 A 
ATOM      3  C   UNL     1       2.234   7.696  19.116  0.00  0.00    +0.000 A 
ATOM      4  C   UNL     1       2.804   6.514  19.599  0.00  0.00    +0.000 A 
ATOM      5  C   UNL     1       3.795   5.902  18.815  0.00  0.00    +0.000 A 
ATOM      6  C   UNL     1       4.391   4.705  19.238  0.00  0.00    +0.000 A 
ATOM      7  C   UNL     1       5.379   4.093  18.466  0.00  0.00    +0.000 A 
ATOM      8  C   UNL     1       5.779   4.679  17.271  0.00  0.00    +0.000 A 
ATOM      9  C   UNL     1       5.177   5.875  16.857  0.00  0.00    +0.000 A 
ATOM     10  C   UNL     1       4.183   6.506  17.596  0.00  0.00    +0.000 A 
ATOM     11  N   UNL     1       3.647   7.641  17.119  0.00  0.00    +0.000 NA
ATOM     12  C   UNL     1       2.694   8.179  17.896  0.00  0.00    +0.000 A 
ATOM     13  O   UNL     1       2.024   9.323  17.570  0.00  0.00    +0.000 OA
ENDROOT
BRANCH   1  15
ATOM     14  N   UNL     1      -0.849  10.599  17.770  0.00  0.00    +0.000 N 
ATOM     15  C   UNL     1       0.296  10.761  18.519  0.00  0.00    +0.000 C 
ATOM     16  O   UNL     1       0.572  11.817  19.079  0.00  0.00    +0.000 OA
ATOM     17  H   UNL     1      -1.106   9.653  17.507  0.00  0.00    +0.000 HD
BRANCH  14  18
ATOM     18  C   UNL     1      -1.846  11.647  17.669  0.00  0.00    +0.000 C 
BRANCH  18  19
ATOM     19  C   UNL     1      -3.083  11.199  16.892  0.00  0.00    +0.000 C 
BRANCH  19  21
ATOM     20  C   UNL     1      -3.025  10.145  14.781  0.00  0.00    +0.000 C 
ATOM     21  O   UNL     1      -2.780   9.999  16.174  0.00  0.00    +0.000 OA
ENDBRANCH  19  21
ENDBRANCH  18  19
ENDBRANCH  14  18
ENDBRANCH   1  15
BRANCH   8  22
ATOM     22  O   UNL     1       6.737   4.189  16.425  0.00  0.00    +0.000 OA
ATOM     23  C   UNL     1       6.746   4.701  15.095  0.00  0.00    +0.000 C 
ENDBRANCH   8  22
TORSDOF 5
ENDMDL
MODEL 8
REMARK VINA RESULT:      -6.7      3.504      4.760
REMARK  Name = 
REMARK  7 active torsions:
REMARK  status: ('A' for Active; 'I' for Inactive)
REMARK    1  A    between atoms: C_1  and  O_2
REMARK    2  A    between atoms: O_2  and  C_3
REMARK    3  A    between atoms: C_3  and  C_4
REMARK    4  A    between atoms: C_4  and  N_5
REMARK    5  A    between atoms: C_6  and  C_8
REMARK    6  A    between atoms: C_15  and  O_16
REMARK    7  A    between atoms: O_16  and  C_17
REMARK                            x       y       z     vdW  Elec       q    Type
REMARK                         _______ _______ _______ _____ _____    ______ ____
ROOT
ATOM      1  C   UNL     1       4.251   5.910  17.832  0.00  0.00    +0.000 A 
ATOM      2  C   UNL     1       3.771   7.032  17.184  0.00  0.00    +0.000 A 
ATOM      3  C   UNL     1       2.882   7.674  18.082  0.00  0.00    +0.000 A 
ATOM      4  C   UNL     1       2.073   8.814  18.058  0.00  0.00    +0.000 A 
ATOM      5  C   UNL     1       1.315   9.098  19.205  0.00  0.00    +0.000 A 
ATOM      6  C   UNL     1       0.471  10.218  19.235  0.00  0.00    +0.000 A 
ATOM      7  C   UNL     1      -0.282  10.508  20.372  0.00  0.00    +0.000 A 
ATOM      8  C   UNL     1      -0.190   9.683  21.487  0.00  0.00    +0.000 A 
ATOM      9  C   UNL     1       0.655   8.567  21.447  0.00  0.00    +0.000 A 
ATOM     10  C   UNL     1       1.412   8.242  20.327  0.00  0.00    +0.000 A 
ATOM     11  N   UNL     1       2.185   7.144  20.366  0.00  0.00    +0.000 NA
ATOM     12  C   UNL     1       2.877   6.907  19.242  0.00  0.00    +0.000 A 
ATOM     13  O   UNL     1       3.704   5.832  19.088  0.00  0.00    +0.000 OA
ENDROOT
BRANCH   1  15
ATOM     14  N   UNL     1       5.099   4.577  16.057  0.00  0.00    +0.000 N 
ATOM     15  C   UNL     1       5.192   4.900  17.393  0.00  0.00    +0.000 C 
ATOM     16  O   UNL     1       6.005   4.369  18.143  0.00  0.00    +0.000 OA
ATOM     17  H   UNL     1       4.548   5.190  15.464  0.00  0.00    +0.000 HD
BRANCH  14  18
ATOM     18  C   UNL     1       6.021   3.648  15.433  0.00  0.00    +0.000 C 
BRANCH  18  19
ATOM     19  C   UNL     1       6.549   4.164  14.096  0.00  0.00    +0.000 C 
BRANCH  19  21
ATOM     20  C   UNL     1       6.429   3.165  11.961  0.00  0.00    +0.000 C 
ATOM     21  O   UNL     1       5.690   3.715  13.044  0.00  0.00    +0.000 OA
ENDBRANCH  19  21
ENDBRANCH  18  19
ENDBRANCH  14  18
ENDBRANCH   1  15
BRANCH   8  22
ATOM     22  O   UNL     1      -0.867   9.856  22.665  0.00  0.00    +0.000 OA
ATOM     23  C   UNL     1      -1.193  11.194  23.031  0.00  0.00    +0.000 C 
ENDBRANCH   8  22
TORSDOF 5
ENDMDL
MODEL 9
REMARK VINA RESULT:      -6.6      4.793      6.746
REMARK  Name = 
REMARK  7 active torsions:
REMARK  status: ('A' for Active; 'I' for Inactive)
REMARK    1  A    between atoms: C_1  and  O_2
REMARK    2  A    between atoms: O_2  and  C_3
REMARK    3  A    between atoms: C_3  and  C_4
REMARK    4  A    between atoms: C_4  and  N_5
REMARK    5  A    between atoms: C_6  and  C_8
REMARK    6  A    between atoms: C_15  and  O_16
REMARK    7  A    between atoms: O_16  and  C_17
REMARK                            x       y       z     vdW  Elec       q    Type
REMARK                         _______ _______ _______ _____ _____    ______ ____
ROOT
ATOM      1  C   UNL     1       2.817   6.862  18.631  0.00  0.00    +0.000 A 
ATOM      2  C   UNL     1       2.376   6.492  19.887  0.00  0.00    +0.000 A 
ATOM      3  C   UNL     1       1.651   7.592  20.407  0.00  0.00    +0.000 A 
ATOM      4  C   UNL     1       0.971   7.881  21.594  0.00  0.00    +0.000 A 
ATOM      5  C   UNL     1       0.369   9.145  21.708  0.00  0.00    +0.000 A 
ATOM      6  C   UNL     1      -0.312   9.500  22.881  0.00  0.00    +0.000 A 
ATOM      7  C   UNL     1      -0.915  10.752  23.000  0.00  0.00    +0.000 A 
ATOM      8  C   UNL     1      -0.843  11.652  21.944  0.00  0.00    +0.000 A 
ATOM      9  C   UNL     1      -0.160  11.289  20.776  0.00  0.00    +0.000 A 
ATOM     10  C   UNL     1       0.461  10.054  20.627  0.00  0.00    +0.000 A 
ATOM     11  N   UNL     1       1.110   9.791  19.481  0.00  0.00    +0.000 NA
ATOM     12  C   UNL     1       1.680   8.578  19.426  0.00  0.00    +0.000 A 
ATOM     13  O   UNL     1       2.394   8.137  18.350  0.00  0.00    +0.000 OA
ENDROOT
BRANCH   1  15
ATOM     14  N   UNL     1       4.550   6.879  17.004  0.00  0.00    +0.000 N 
ATOM     15  C   UNL     1       3.592   6.129  17.651  0.00  0.00    +0.000 C 
ATOM     16  O   UNL     1       3.415   4.939  17.409  0.00  0.00    +0.000 OA
ATOM     17  H   UNL     1       4.770   7.792  17.392  0.00  0.00    +0.000 HD
BRANCH  14  18
ATOM     18  C   UNL     1       5.470   6.284  16.056  0.00  0.00    +0.000 C 
BRANCH  18  19
ATOM     19  C   UNL     1       6.796   5.887  16.704  0.00  0.00    +0.000 C 
BRANCH  19  21
ATOM     20  C   UNL     1       6.592   4.234  15.033  0.00  0.00    +0.000 C 
ATOM     21  O   UNL     1       7.491   4.982  15.840  0.00  0.00    +0.000 OA
ENDBRANCH  19  21
ENDBRANCH  18  19
ENDBRANCH  14  18
ENDBRANCH   1  15
BRANCH   8  22
ATOM     22  O   UNL     1      -1.393  12.907  21.926  0.00  0.00    +0.000 OA
ATOM     23  C   UNL     1      -1.159  13.729  23.065  0.00  0.00    +0.000 C 
ENDBRANCH   8  22
TORSDOF 5
ENDMDL
