MODEL 1
REMARK VINA RESULT:      -7.0      0.000      0.000
REMARK  Name = 
REMARK  3 active torsions:
REMARK  status: ('A' for Active; 'I' for Inactive)
REMARK    1  A    between atoms: C_1  and  C_2
REMARK    2  A    between atoms: N_12  and  N_13
REMARK    3  A    between atoms: C_14  and  C_15
REMARK                            x       y       z     vdW  Elec       q    Type
REMARK                         _______ _______ _______ _____ _____    ______ ____
ROOT
ATOM      1  C   UNL     1       2.542   5.010  20.424  0.00  0.00    +0.000 C 
ATOM      2  C   UNL     1       2.142   6.424  20.052  0.00  0.00    +0.000 A 
ATOM      3  N   UNL     1       1.413   7.095  20.897  0.00  0.00    +0.000 NA
ATOM      4  C   UNL     1       1.078   8.417  20.580  0.00  0.00    +0.000 A 
ATOM      5  C   UNL     1       0.200   9.135  21.401  0.00  0.00    +0.000 A 
ATOM      6  C   UNL     1      -0.153  10.410  21.007  0.00  0.00    +0.000 A 
ATOM      7  C   UNL     1       0.409  11.021  19.908  0.00  0.00    +0.000 A 
ATOM      8  C   UNL     1       1.302  10.372  19.101  0.00  0.00    +0.000 A 
ATOM      9  C   UNL     1       1.556   9.035  19.414  0.00  0.00    +0.000 A 
ATOM     10  C   UNL     1       2.183   8.183  18.406  0.00  0.00    +0.000 A 
ATOM     11  O   UNL     1       2.219   8.610  17.250  0.00  0.00    +0.000 OA
ATOM     12  N   UNL     1       2.593   6.920  18.840  0.00  0.00    +0.000 N 
ATOM     13  O   UNL     1      -0.122  12.248  19.661  0.00  0.00    +0.000 OA
ATOM     14  C   UNL     1      -1.297  12.152  20.487  0.00  0.00    +0.000 C 
ATOM     15  O   UNL     1      -1.138  11.182  21.546  0.00  0.00    +0.000 OA
ENDROOT
BRANCH  12  16
ATOM     16  N   UNL     1       3.217   6.034  17.947  0.00  0.00    +0.000 NA
ATOM     17  C   UNL     1       4.501   6.168  17.804  0.00  0.00    +0.000 C 
BRANCH  17  18
ATOM     18  C   UNL     1       5.261   5.412  16.842  0.00  0.00    +0.000 A 
ATOM     19  C   UNL     1       4.877   4.381  16.011  0.00  0.00    +0.000 A 
ATOM     20  C   UNL     1       5.961   3.898  15.229  0.00  0.00    +0.000 A 
ATOM     21  C   UNL     1       7.126   4.587  15.465  0.00  0.00    +0.000 A 
ATOM     22  S   UNL     1       6.913   5.822  16.621  0.00  0.00    +0.000 S 
ENDBRANCH  17  18
ENDBRANCH  12  16
TORSDOF 2
ENDMDL
MODEL 2
REMARK VINA RESULT:      -6.8      2.938      7.599
REMARK  Name = 
REMARK  3 active torsions:
REMARK  status: ('A' for Active; 'I' for Inactive)
REMARK    1  A    between atoms: C_1  and  C_2
REMARK    2  A    between atoms: N_12  and  N_13
REMARK    3  A    between atoms: C_14  and  C_15
REMARK                            x       y       z     vdW  Elec       q    Type
REMARK                         _______ _______ _______ _____ _____    ______ ____
ROOT
ATOM      1  C   UNL     1       1.465   4.337  20.757  0.00  0.00    +0.000 C 
ATOM      2  C   UNL     1       2.340   4.876  19.642  0.00  0.00    +0.000 A 
ATOM      3  N   UNL     1       2.977   4.019  18.897  0.00  0.00    +0.000 NA
ATOM      4  C   UNL     1       3.752   4.508  17.838  0.00  0.00    +0.000 A 
ATOM      5  C   UNL     1       4.545   3.633  17.086  0.00  0.00    +0.000 A 
ATOM      6  C   UNL     1       5.344   4.174  16.099  0.00  0.00    +0.000 A 
ATOM      7  C   UNL     1       5.297   5.511  15.768  0.00  0.00    +0.000 A 
ATOM      8  C   UNL     1       4.506   6.394  16.449  0.00  0.00    +0.000 A 
ATOM      9  C   UNL     1       3.803   5.879  17.539  0.00  0.00    +0.000 A 
ATOM     10  C   UNL     1       3.252   6.805  18.524  0.00  0.00    +0.000 A 
ATOM     11  O   UNL     1       3.652   7.971  18.487  0.00  0.00    +0.000 OA
ATOM     12  N   UNL     1       2.394   6.250  19.477  0.00  0.00    +0.000 N 
ATOM     13  O   UNL     1       6.206   5.847  14.814  0.00  0.00    +0.000 OA
ATOM     14  C   UNL     1       7.037   4.673  14.874  0.00  0.00    +0.000 C 
ATOM     15  O   UNL     1       6.327   3.533  15.408  0.00  0.00    +0.000 OA
ENDROOT
BRANCH  12  16
ATOM     16  N   UNL     1       1.805   7.064  20.457  0.00  0.00    +0.000 NA
ATOM     17  C   UNL     1       1.183   8.122  20.032  0.00  0.00    +0.000 C 
BRANCH  17  18
ATOM     18  C   UNL     1       0.629   9.110  20.920  0.00  0.00    +0.000 A 
ATOM     19  C   UNL     1       0.103   8.978  22.188  0.00  0.00    +0.000 A 
ATOM     20  C   UNL     1      -0.361  10.219  22.703  0.00  0.00    +0.000 A 
ATOM     21  C   UNL     1      -0.152  11.260  21.831  0.00  0.00    +0.000 A 
ATOM     22  S   UNL     1       0.610  10.744  20.395  0.00  0.00    +0.000 S 
ENDBRANCH  17  18
ENDBRANCH  12  16
TORSDOF 2
ENDMDL
MODEL 3
REMARK VINA RESULT:      -6.7      3.512      7.948
REMARK  Name = 
REMARK  3 active torsions:
REMARK  status: ('A' for Active; 'I' for Inactive)
REMARK    1  A    between atoms: C_1  and  C_2
REMARK    2  A    between atoms: N_12  and  N_13
REMARK    3  A    between atoms: C_14  and  C_15
REMARK                            x       y       z     vdW  Elec       q    Type
REMARK                         _______ _______ _______ _____ _____    ______ ____
ROOT
ATOM      1  C   UNL     1       1.867  10.069  17.788  0.00  0.00    +0.000 C 
ATOM      2  C   UNL     1       2.075   8.712  18.433  0.00  0.00    +0.000 A 
ATOM      3  N   UNL     1       2.816   7.845  17.806  0.00  0.00    +0.000 NA
ATOM      4  C   UNL     1       3.049   6.607  18.418  0.00  0.00    +0.000 A 
ATOM      5  C   UNL     1       3.741   5.603  17.729  0.00  0.00    +0.000 A 
ATOM      6  C   UNL     1       3.883   4.378  18.348  0.00  0.00    +0.000 A 
ATOM      7  C   UNL     1       3.467   4.157  19.642  0.00  0.00    +0.000 A 
ATOM      8  C   UNL     1       2.823   5.122  20.367  0.00  0.00    +0.000 A 
ATOM      9  C   UNL     1       2.552   6.316  19.698  0.00  0.00    +0.000 A 
ATOM     10  C   UNL     1       1.558   7.228  20.258  0.00  0.00    +0.000 A 
ATOM     11  O   UNL     1       0.825   6.786  21.146  0.00  0.00    +0.000 OA
ATOM     12  N   UNL     1       1.473   8.487  19.660  0.00  0.00    +0.000 N 
ATOM     13  O   UNL     1       3.644   2.868  20.038  0.00  0.00    +0.000 OA
ATOM     14  C   UNL     1       3.861   2.267  18.747  0.00  0.00    +0.000 C 
ATOM     15  O   UNL     1       4.332   3.227  17.775  0.00  0.00    +0.000 OA
ENDROOT
BRANCH  12  16
ATOM     16  N   UNL     1       0.557   9.437  20.138  0.00  0.00    +0.000 NA
ATOM     17  C   UNL     1       0.875  10.042  21.244  0.00  0.00    +0.000 C 
BRANCH  17  18
ATOM     18  C   UNL     1      -0.013  10.954  21.916  0.00  0.00    +0.000 A 
ATOM     19  C   UNL     1      -0.938  10.728  22.914  0.00  0.00    +0.000 A 
ATOM     20  C   UNL     1      -1.627  11.917  23.277  0.00  0.00    +0.000 A 
ATOM     21  C   UNL     1      -1.194  13.012  22.570  0.00  0.00    +0.000 A 
ATOM     22  S   UNL     1       0.051  12.611  21.475  0.00  0.00    +0.000 S 
ENDBRANCH  17  18
ENDBRANCH  12  16
TORSDOF 2
ENDMDL
MODEL 4
REMARK VINA RESULT:      -6.6      4.029      8.607
REMARK  Name = 
REMARK  3 active torsions:
REMARK  status: ('A' for Active; 'I' for Inactive)
REMARK    1  A    between atoms: C_1  and  C_2
REMARK    2  A    between atoms: N_12  and  N_13
REMARK    3  A    between atoms: C_14  and  C_15
REMARK                            x       y       z     vdW  Elec       q    Type
REMARK                         _______ _______ _______ _____ _____    ______ ____
ROOT
ATOM      1  C   UNL     1      -0.338  12.452  18.676  0.00  0.00    +0.000 C 
ATOM      2  C   UNL     1       0.167  11.104  19.152  0.00  0.00    +0.000 A 
ATOM      3  N   UNL     1       0.965  10.438  18.368  0.00  0.00    +0.000 NA
ATOM      4  C   UNL     1       1.471   9.214  18.821  0.00  0.00    +0.000 A 
ATOM      5  C   UNL     1       2.236   8.411  17.966  0.00  0.00    +0.000 A 
ATOM      6  C   UNL     1       2.651   7.182  18.437  0.00  0.00    +0.000 A 
ATOM      7  C   UNL     1       2.429   6.781  19.736  0.00  0.00    +0.000 A 
ATOM      8  C   UNL     1       1.722   7.550  20.617  0.00  0.00    +0.000 A 
ATOM      9  C   UNL     1       1.179   8.730  20.106  0.00  0.00    +0.000 A 
ATOM     10  C   UNL     1       0.118   9.400  20.854  0.00  0.00    +0.000 A 
ATOM     11  O   UNL     1      -0.423   8.761  21.759  0.00  0.00    +0.000 OA
ATOM     12  N   UNL     1      -0.244  10.671  20.402  0.00  0.00    +0.000 N 
ATOM     13  O   UNL     1       2.863   5.514  19.975  0.00  0.00    +0.000 OA
ATOM     14  C   UNL     1       3.027   5.074  18.614  0.00  0.00    +0.000 C 
ATOM     15  O   UNL     1       3.217   6.182  17.705  0.00  0.00    +0.000 OA
ENDROOT
BRANCH  12  16
ATOM     16  N   UNL     1      -1.244  11.399  21.065  0.00  0.00    +0.000 NA
ATOM     17  C   UNL     1      -0.898  11.978  22.176  0.00  0.00    +0.000 C 
BRANCH  17  18
ATOM     18  C   UNL     1      -1.840  12.661  23.024  0.00  0.00    +0.000 A 
ATOM     19  C   UNL     1      -3.084  12.272  23.474  0.00  0.00    +0.000 A 
ATOM     20  C   UNL     1      -3.693  13.271  24.281  0.00  0.00    +0.000 A 
ATOM     21  C   UNL     1      -2.891  14.375  24.444  0.00  0.00    +0.000 A 
ATOM     22  S   UNL     1      -1.401  14.205  23.633  0.00  0.00    +0.000 S 
ENDBRANCH  17  18
ENDBRANCH  12  16
TORSDOF 2
ENDMDL
MODEL 5
REMARK VINA RESULT:      -6.6      3.001      4.074
REMARK  Name = 
REMARK  3 active torsions:
REMARK  status: ('A' for Active; 'I' for Inactive)
REMARK    1  A    between atoms: C_1  and  C_2
REMARK    2  A    between atoms: N_12  and  N_13
REMARK    3  A    between atoms: C_14  and  C_15
REMARK                            x       y       z     vdW  Elec       q    Type
REMARK                         _______ _______ _______ _____ _____    ______ ____
ROOT
ATOM      1  C   UNL     1       2.017   8.637  17.688  0.00  0.00    +0.000 C 
ATOM      2  C   UNL     1       1.445   9.244  18.955  0.00  0.00    +0.000 A 
ATOM      3  N   UNL     1       0.946  10.445  18.886  0.00  0.00    +0.000 NA
ATOM      4  C   UNL     1       0.376  10.994  20.041  0.00  0.00    +0.000 A 
ATOM      5  C   UNL     1      -0.065  12.322  20.043  0.00  0.00    +0.000 A 
ATOM      6  C   UNL     1      -0.554  12.837  21.226  0.00  0.00    +0.000 A 
ATOM      7  C   UNL     1      -0.718  12.061  22.352  0.00  0.00    +0.000 A 
ATOM      8  C   UNL     1      -0.340  10.747  22.382  0.00  0.00    +0.000 A 
ATOM      9  C   UNL     1       0.285  10.259  21.234  0.00  0.00    +0.000 A 
ATOM     10  C   UNL     1       1.044   9.014  21.319  0.00  0.00    +0.000 A 
ATOM     11  O   UNL     1       1.313   8.594  22.447  0.00  0.00    +0.000 OA
ATOM     12  N   UNL     1       1.476   8.474  20.106  0.00  0.00    +0.000 N 
ATOM     13  O   UNL     1      -1.155  12.775  23.424  0.00  0.00    +0.000 OA
ATOM     14  C   UNL     1      -0.884  14.101  22.932  0.00  0.00    +0.000 C 
ATOM     15  O   UNL     1      -0.834  14.144  21.488  0.00  0.00    +0.000 OA
ENDROOT
BRANCH  12  16
ATOM     16  N   UNL     1       2.202   7.272  20.085  0.00  0.00    +0.000 NA
ATOM     17  C   UNL     1       1.536   6.190  20.358  0.00  0.00    +0.000 C 
BRANCH  17  18
ATOM     18  C   UNL     1       2.164   4.901  20.488  0.00  0.00    +0.000 A 
ATOM     19  C   UNL     1       1.868   3.843  21.321  0.00  0.00    +0.000 A 
ATOM     20  C   UNL     1       2.766   2.757  21.139  0.00  0.00    +0.000 A 
ATOM     21  C   UNL     1       3.698   3.005  20.161  0.00  0.00    +0.000 A 
ATOM     22  S   UNL     1       3.487   4.543  19.455  0.00  0.00    +0.000 S 
ENDBRANCH  17  18
ENDBRANCH  12  16
TORSDOF 2
ENDMDL
MODEL 6
REMARK VINA RESULT:      -6.4      3.257      7.321
REMARK  Name = 
REMARK  3 active torsions:
REMARK  status: ('A' for Active; 'I' for Inactive)
REMARK    1  A    between atoms: C_1  and  C_2
REMARK    2  A    between atoms: N_12  and  N_13
REMARK    3  A    between atoms: C_14  and  C_15
REMARK                            x       y       z     vdW  Elec       q    Type
REMARK                         _______ _______ _______ _____ _____    ______ ____
ROOT
ATOM      1  C   UNL     1       0.102   9.452  21.566  0.00  0.00    +0.000 C 
ATOM      2  C   UNL     1       0.956   8.776  20.512  0.00  0.00    +0.000 A 
ATOM      3  N   UNL     1       1.532   7.650  20.821  0.00  0.00    +0.000 NA
ATOM      4  C   UNL     1       2.285   6.998  19.838  0.00  0.00    +0.000 A 
ATOM      5  C   UNL     1       3.017   5.849  20.161  0.00  0.00    +0.000 A 
ATOM      6  C   UNL     1       3.799   5.284  19.173  0.00  0.00    +0.000 A 
ATOM      7  C   UNL     1       3.793   5.749  17.877  0.00  0.00    +0.000 A 
ATOM      8  C   UNL     1       3.062   6.844  17.507  0.00  0.00    +0.000 A 
ATOM      9  C   UNL     1       2.379   7.503  18.531  0.00  0.00    +0.000 A 
ATOM     10  C   UNL     1       1.900   8.863  18.297  0.00  0.00    +0.000 A 
ATOM     11  O   UNL     1       2.344   9.454  17.311  0.00  0.00    +0.000 OA
ATOM     12  N   UNL     1       1.057   9.394  19.276  0.00  0.00    +0.000 N 
ATOM     13  O   UNL     1       4.679   5.093  17.080  0.00  0.00    +0.000 OA
ATOM     14  C   UNL     1       5.465   4.452  18.102  0.00  0.00    +0.000 C 
ATOM     15  O   UNL     1       4.731   4.304  19.338  0.00  0.00    +0.000 OA
ENDROOT
BRANCH  12  16
ATOM     16  N   UNL     1       0.536  10.689  19.133  0.00  0.00    +0.000 NA
ATOM     17  C   UNL     1       1.395  11.664  19.155  0.00  0.00    +0.000 C 
BRANCH  17  18
ATOM     18  C   UNL     1       1.003  13.049  19.135  0.00  0.00    +0.000 A 
ATOM     19  C   UNL     1      -0.139  13.647  18.647  0.00  0.00    +0.000 A 
ATOM     20  C   UNL     1      -0.109  15.059  18.810  0.00  0.00    +0.000 A 
ATOM     21  C   UNL     1       1.034  15.492  19.437  0.00  0.00    +0.000 A 
ATOM     22  S   UNL     1       2.069  14.197  19.838  0.00  0.00    +0.000 S 
ENDBRANCH  17  18
ENDBRANCH  12  16
TORSDOF 2
ENDMDL
MODEL 7
REMARK VINA RESULT:      -6.4      2.789      3.868
REMARK  Name = 
REMARK  3 active torsions:
REMARK  status: ('A' for Active; 'I' for Inactive)
REMARK    1  A    between atoms: C_1  and  C_2
REMARK    2  A    between atoms: N_12  and  N_13
REMARK    3  A    between atoms: C_14  and  C_15
REMARK                            x       y       z     vdW  Elec       q    Type
REMARK                         _______ _______ _______ _____ _____    ______ ____
ROOT
ATOM      1  C   UNL     1       2.815   7.982  17.487  0.00  0.00    +0.000 C 
ATOM      2  C   UNL     1       1.986   8.740  18.506  0.00  0.00    +0.000 A 
ATOM      3  N   UNL     1       1.536   9.916  18.175  0.00  0.00    +0.000 NA
ATOM      4  C   UNL     1       0.733  10.602  19.094  0.00  0.00    +0.000 A 
ATOM      5  C   UNL     1       0.325  11.914  18.828  0.00  0.00    +0.000 A 
ATOM      6  C   UNL     1      -0.406  12.571  19.797  0.00  0.00    +0.000 A 
ATOM      7  C   UNL     1      -0.830  11.943  20.947  0.00  0.00    +0.000 A 
ATOM      8  C   UNL     1      -0.490  10.649  21.229  0.00  0.00    +0.000 A 
ATOM      9  C   UNL     1       0.366  10.025  20.321  0.00  0.00    +0.000 A 
ATOM     10  C   UNL     1       1.066   8.811  20.731  0.00  0.00    +0.000 A 
ATOM     11  O   UNL     1       1.070   8.542  21.934  0.00  0.00    +0.000 OA
ATOM     12  N   UNL     1       1.747   8.124  19.724  0.00  0.00    +0.000 N 
ATOM     13  O   UNL     1      -1.482  12.784  21.795  0.00  0.00    +0.000 OA
ATOM     14  C   UNL     1      -1.085  14.039  21.210  0.00  0.00    +0.000 C 
ATOM     15  O   UNL     1      -0.715  13.898  19.821  0.00  0.00    +0.000 OA
ENDROOT
BRANCH  12  16
ATOM     16  N   UNL     1       2.439   6.939  20.019  0.00  0.00    +0.000 NA
ATOM     17  C   UNL     1       1.750   5.839  19.962  0.00  0.00    +0.000 C 
BRANCH  17  18
ATOM     18  C   UNL     1       2.288   4.561  20.349  0.00  0.00    +0.000 A 
ATOM     19  C   UNL     1       1.960   3.734  21.403  0.00  0.00    +0.000 A 
ATOM     20  C   UNL     1       2.767   2.564  21.431  0.00  0.00    +0.000 A 
ATOM     21  C   UNL     1       3.663   2.519  20.391  0.00  0.00    +0.000 A 
ATOM     22  S   UNL     1       3.528   3.882  19.374  0.00  0.00    +0.000 S 
ENDBRANCH  17  18
ENDBRANCH  12  16
TORSDOF 2
ENDMDL
MODEL 8
REMARK VINA RESULT:      -6.3      3.189      7.514
REMARK  Name = 
REMARK  3 active torsions:
REMARK  status: ('A' for Active; 'I' for Inactive)
REMARK    1  A    between atoms: C_1  and  C_2
REMARK    2  A    between atoms: N_12  and  N_13
REMARK    3  A    between atoms: C_14  and  C_15
REMARK                            x       y       z     vdW  Elec       q    Type
REMARK                         _______ _______ _______ _____ _____    ______ ____
ROOT
ATOM      1  C   UNL     1      -0.002   9.025  21.721  0.00  0.00    +0.000 C 
ATOM      2  C   UNL     1       0.904   8.548  20.602  0.00  0.00    +0.000 A 
ATOM      3  N   UNL     1       1.557   7.435  20.777  0.00  0.00    +0.000 NA
ATOM      4  C   UNL     1       2.360   6.966  19.731  0.00  0.00    +0.000 A 
ATOM      5  C   UNL     1       3.170   5.840  19.918  0.00  0.00    +0.000 A 
ATOM      6  C   UNL     1       3.996   5.459  18.879  0.00  0.00    +0.000 A 
ATOM      7  C   UNL     1       3.962   6.081  17.651  0.00  0.00    +0.000 A 
ATOM      8  C   UNL     1       3.157   7.159  17.410  0.00  0.00    +0.000 A 
ATOM      9  C   UNL     1       2.424   7.635  18.498  0.00  0.00    +0.000 A 
ATOM     10  C   UNL     1       1.850   8.977  18.429  0.00  0.00    +0.000 A 
ATOM     11  O   UNL     1       2.255   9.717  17.529  0.00  0.00    +0.000 OA
ATOM     12  N   UNL     1       0.967   9.321  19.454  0.00  0.00    +0.000 N 
ATOM     13  O   UNL     1       4.897   5.593  16.790  0.00  0.00    +0.000 OA
ATOM     14  C   UNL     1       5.722   4.887  17.736  0.00  0.00    +0.000 C 
ATOM     15  O   UNL     1       4.994   4.534  18.933  0.00  0.00    +0.000 OA
ENDROOT
BRANCH  12  16
ATOM     16  N   UNL     1       0.355  10.584  19.466  0.00  0.00    +0.000 NA
ATOM     17  C   UNL     1       1.091  11.579  19.860  0.00  0.00    +0.000 C 
BRANCH  17  18
ATOM     18  C   UNL     1       0.572  12.911  20.036  0.00  0.00    +0.000 A 
ATOM     19  C   UNL     1       0.588  13.738  21.138  0.00  0.00    +0.000 A 
ATOM     20  C   UNL     1      -0.066  14.974  20.884  0.00  0.00    +0.000 A 
ATOM     21  C   UNL     1      -0.535  15.065  19.596  0.00  0.00    +0.000 A 
ATOM     22  S   UNL     1      -0.181  13.664  18.690  0.00  0.00    +0.000 S 
ENDBRANCH  17  18
ENDBRANCH  12  16
TORSDOF 2
ENDMDL
MODEL 9
REMARK VINA RESULT:      -6.3      3.510      7.845
REMARK  Name = 
REMARK  3 active torsions:
REMARK  status: ('A' for Active; 'I' for Inactive)
REMARK    1  A    between atoms: C_1  and  C_2
REMARK    2  A    between atoms: N_12  and  N_13
REMARK    3  A    between atoms: C_14  and  C_15
REMARK                            x       y       z     vdW  Elec       q    Type
REMARK                         _______ _______ _______ _____ _____    ______ ____
ROOT
ATOM      1  C   UNL     1       2.095  10.007  17.756  0.00  0.00    +0.000 C 
ATOM      2  C   UNL     1       2.112   8.665  18.462  0.00  0.00    +0.000 A 
ATOM      3  N   UNL     1       2.566   7.636  17.807  0.00  0.00    +0.000 NA
ATOM      4  C   UNL     1       2.626   6.403  18.467  0.00  0.00    +0.000 A 
ATOM      5  C   UNL     1       2.996   5.249  17.766  0.00  0.00    +0.000 A 
ATOM      6  C   UNL     1       2.972   4.047  18.445  0.00  0.00    +0.000 A 
ATOM      7  C   UNL     1       2.705   3.972  19.795  0.00  0.00    +0.000 A 
ATOM      8  C   UNL     1       2.379   5.080  20.527  0.00  0.00    +0.000 A 
ATOM      9  C   UNL     1       2.265   6.276  19.818  0.00  0.00    +0.000 A 
ATOM     10  C   UNL     1       1.566   7.399  20.437  0.00  0.00    +0.000 A 
ATOM     11  O   UNL     1       0.890   7.159  21.440  0.00  0.00    +0.000 OA
ATOM     12  N   UNL     1       1.656   8.622  19.769  0.00  0.00    +0.000 N 
ATOM     13  O   UNL     1       2.670   2.692  20.253  0.00  0.00    +0.000 OA
ATOM     14  C   UNL     1       2.577   2.007  18.990  0.00  0.00    +0.000 C 
ATOM     15  O   UNL     1       3.092   2.805  17.901  0.00  0.00    +0.000 OA
ENDROOT
BRANCH  12  16
ATOM     16  N   UNL     1       1.028   9.763  20.294  0.00  0.00    +0.000 NA
ATOM     17  C   UNL     1      -0.222   9.931  19.980  0.00  0.00    +0.000 C 
BRANCH  17  18
ATOM     18  C   UNL     1      -0.966  11.107  20.347  0.00  0.00    +0.000 A 
ATOM     19  C   UNL     1      -1.867  11.857  19.621  0.00  0.00    +0.000 A 
ATOM     20  C   UNL     1      -2.355  12.966  20.364  0.00  0.00    +0.000 A 
ATOM     21  C   UNL     1      -1.838  13.015  21.635  0.00  0.00    +0.000 A 
ATOM     22  S   UNL     1      -0.769  11.721  21.938  0.00  0.00    +0.000 S 
ENDBRANCH  17  18
ENDBRANCH  12  16
TORSDOF 2
ENDMDL
