MODEL 1
REMARK VINA RESULT:      -8.6      0.000      0.000
REMARK  Name = 
REMARK  8 active torsions:
REMARK  status: ('A' for Active; 'I' for Inactive)
REMARK    1  A    between atoms: C_1  and  C_2
REMARK    2  A    between atoms: C_2  and  N_3
REMARK    3  A    between atoms: C_10  and  C_11
REMARK    4  A    between atoms: C_15  and  C_16
REMARK    5  A    between atoms: C_20  and  C_21
REMARK    6  A    between atoms: C_21  and  N_22
REMARK    7  A    between atoms: C_23  and  O_25
REMARK    8  A    between atoms: O_25  and  C_26
REMARK                            x       y       z     vdW  Elec       q    Type
REMARK                         _______ _______ _______ _____ _____    ______ ____
ROOT
ATOM      1  N   UNL     1      -2.943  12.421  23.985  0.00  0.00    +0.000 N 
ATOM      2  C   UNL     1      -2.324  11.975  22.841  0.00  0.00    +0.000 C 
ATOM      3  O   UNL     1      -2.702  12.287  21.718  0.00  0.00    +0.000 OA
ATOM      4  N   UNL     1      -1.302  11.101  23.124  0.00  0.00    +0.000 N 
ATOM      5  C   UNL     1      -0.560  10.468  22.120  0.00  0.00    +0.000 A 
ATOM      6  C   UNL     1      -0.100  11.161  21.010  0.00  0.00    +0.000 A 
ATOM      7  C   UNL     1       0.756  10.554  20.062  0.00  0.00    +0.000 A 
ATOM      8  C   UNL     1       1.412  11.274  19.000  0.00  0.00    +0.000 A 
ATOM      9  C   UNL     1       2.170  10.527  18.083  0.00  0.00    +0.000 A 
ATOM     10  C   UNL     1       2.263   9.141  18.156  0.00  0.00    +0.000 A 
ATOM     11  C   UNL     1       1.665   8.433  19.204  0.00  0.00    +0.000 A 
ATOM     12  C   UNL     1       0.941   9.151  20.192  0.00  0.00    +0.000 A 
ATOM     13  C   UNL     1       0.394   8.547  21.341  0.00  0.00    +0.000 A 
ATOM     14  N   UNL     1      -0.278   9.178  22.333  0.00  0.00    +0.000 NA
ATOM     15  H   UNL     1      -2.370  12.508  24.812  0.00  0.00    +0.000 HD
ATOM     16  H   UNL     1      -1.445  10.516  23.934  0.00  0.00    +0.000 HD
ENDROOT
BRANCH   8  17
ATOM     17  C   UNL     1       1.336  12.759  18.813  0.00  0.00    +0.000 A 
ATOM     18  C   UNL     1       0.151  13.492  18.964  0.00  0.00    +0.000 A 
ATOM     19  C   UNL     1       0.139  14.852  18.684  0.00  0.00    +0.000 A 
ATOM     20  N   UNL     1       1.237  15.562  18.365  0.00  0.00    +0.000 NA
ATOM     21  C   UNL     1       2.402  14.885  18.301  0.00  0.00    +0.000 A 
ATOM     22  C   UNL     1       3.648  15.681  18.052  0.00  0.00    +0.000 C 
ATOM     23  C   UNL     1       2.483  13.507  18.494  0.00  0.00    +0.000 A 
ENDBRANCH   8  17
BRANCH   1  25
ATOM     24  C   UNL     1      -5.361  12.480  24.528  0.00  0.00    +0.000 C 
ATOM     25  C   UNL     1      -4.170  13.187  23.906  0.00  0.00    +0.000 C 
ENDBRANCH   1  25
BRANCH  11  26
ATOM     26  C   UNL     1       1.813   6.935  19.195  0.00  0.00    +0.000 C 
BRANCH  26  27
ATOM     27  N   UNL     1       3.200   6.515  19.274  0.00  0.00    +0.000 N 
ATOM     28  C   UNL     1       3.557   5.248  19.624  0.00  0.00    +0.000 C 
ATOM     29  O   UNL     1       2.782   4.386  20.012  0.00  0.00    +0.000 OA
ATOM     30  H   UNL     1       3.940   7.109  18.925  0.00  0.00    +0.000 HD
BRANCH  28  31
ATOM     31  O   UNL     1       4.879   5.052  19.377  0.00  0.00    +0.000 OA
BRANCH  31  32
ATOM     32  C   UNL     1       5.380   5.751  18.212  0.00  0.00    +0.000 C 
ATOM     33  C   UNL     1       6.858   6.077  18.461  0.00  0.00    +0.000 C 
ATOM     34  C   UNL     1       7.477   6.792  17.264  0.00  0.00    +0.000 C 
ATOM     35  N   UNL     1       7.358   6.015  16.028  0.00  0.00    +0.000 NA
ATOM     36  C   UNL     1       5.952   5.633  15.770  0.00  0.00    +0.000 C 
ATOM     37  C   UNL     1       5.260   4.907  16.941  0.00  0.00    +0.000 C 
ATOM     38  F   UNL     1       5.847   3.692  17.116  0.00  0.00    +0.000 F 
ATOM     39  F   UNL     1       3.960   4.679  16.635  0.00  0.00    +0.000 F 
ATOM     40  H   UNL     1       7.912   5.159  16.117  0.00  0.00    +0.000 HD
ENDBRANCH  31  32
ENDBRANCH  28  31
ENDBRANCH  26  27
ENDBRANCH  11  26
TORSDOF 6
ENDMDL
MODEL 2
REMARK VINA RESULT:      -8.6      1.953      5.039
REMARK  Name = 
REMARK  8 active torsions:
REMARK  status: ('A' for Active; 'I' for Inactive)
REMARK    1  A    between atoms: C_1  and  C_2
REMARK    2  A    between atoms: C_2  and  N_3
REMARK    3  A    between atoms: C_10  and  C_11
REMARK    4  A    between atoms: C_15  and  C_16
REMARK    5  A    between atoms: C_20  and  C_21
REMARK    6  A    between atoms: C_21  and  N_22
REMARK    7  A    between atoms: C_23  and  O_25
REMARK    8  A    between atoms: O_25  and  C_26
REMARK                            x       y       z     vdW  Elec       q    Type
REMARK                         _______ _______ _______ _____ _____    ______ ____
ROOT
ATOM      1  N   UNL     1       2.916  14.519  17.315  0.00  0.00    +0.000 N 
ATOM      2  C   UNL     1       2.640  13.585  18.285  0.00  0.00    +0.000 C 
ATOM      3  O   UNL     1       2.903  13.761  19.468  0.00  0.00    +0.000 OA
ATOM      4  N   UNL     1       2.113  12.435  17.747  0.00  0.00    +0.000 N 
ATOM      5  C   UNL     1       1.804  11.317  18.531  0.00  0.00    +0.000 A 
ATOM      6  C   UNL     1       1.149  11.441  19.747  0.00  0.00    +0.000 A 
ATOM      7  C   UNL     1       0.724  10.305  20.477  0.00  0.00    +0.000 A 
ATOM      8  C   UNL     1      -0.121  10.374  21.642  0.00  0.00    +0.000 A 
ATOM      9  C   UNL     1      -0.397   9.171  22.313  0.00  0.00    +0.000 A 
ATOM     10  C   UNL     1       0.147   7.957  21.908  0.00  0.00    +0.000 A 
ATOM     11  C   UNL     1       0.936   7.869  20.756  0.00  0.00    +0.000 A 
ATOM     12  C   UNL     1       1.191   9.048  20.007  0.00  0.00    +0.000 A 
ATOM     13  C   UNL     1       1.881   9.050  18.780  0.00  0.00    +0.000 A 
ATOM     14  N   UNL     1       2.129  10.131  18.004  0.00  0.00    +0.000 NA
ATOM     15  H   UNL     1       2.317  14.527  16.502  0.00  0.00    +0.000 HD
ATOM     16  H   UNL     1       2.457  12.189  16.832  0.00  0.00    +0.000 HD
ENDROOT
BRANCH   8  17
ATOM     17  C   UNL     1      -0.719  11.639  22.180  0.00  0.00    +0.000 A 
ATOM     18  C   UNL     1      -0.155  12.904  21.968  0.00  0.00    +0.000 A 
ATOM     19  C   UNL     1      -0.715  14.021  22.576  0.00  0.00    +0.000 A 
ATOM     20  N   UNL     1      -1.853  13.993  23.293  0.00  0.00    +0.000 NA
ATOM     21  C   UNL     1      -2.456  12.794  23.432  0.00  0.00    +0.000 A 
ATOM     22  C   UNL     1      -3.778  12.765  24.137  0.00  0.00    +0.000 C 
ATOM     23  C   UNL     1      -1.915  11.616  22.918  0.00  0.00    +0.000 A 
ENDBRANCH   8  17
BRANCH   1  25
ATOM     24  C   UNL     1       3.038  16.984  17.080  0.00  0.00    +0.000 C 
ATOM     25  C   UNL     1       3.662  15.718  17.639  0.00  0.00    +0.000 C 
ENDBRANCH   1  25
BRANCH  11  26
ATOM     26  C   UNL     1       1.487   6.513  20.402  0.00  0.00    +0.000 C 
BRANCH  26  27
ATOM     27  N   UNL     1       2.913   6.548  20.136  0.00  0.00    +0.000 N 
ATOM     28  C   UNL     1       3.556   5.541  19.482  0.00  0.00    +0.000 C 
ATOM     29  O   UNL     1       3.044   4.478  19.163  0.00  0.00    +0.000 OA
ATOM     30  H   UNL     1       3.448   7.392  20.295  0.00  0.00    +0.000 HD
BRANCH  28  31
ATOM     31  O   UNL     1       4.813   5.932  19.145  0.00  0.00    +0.000 OA
BRANCH  31  32
ATOM     32  C   UNL     1       5.294   5.387  17.893  0.00  0.00    +0.000 C 
ATOM     33  C   UNL     1       4.802   6.300  16.764  0.00  0.00    +0.000 C 
ATOM     34  C   UNL     1       5.290   5.813  15.404  0.00  0.00    +0.000 C 
ATOM     35  N   UNL     1       6.750   5.712  15.339  0.00  0.00    +0.000 NA
ATOM     36  C   UNL     1       7.278   4.879  16.441  0.00  0.00    +0.000 C 
ATOM     37  C   UNL     1       6.821   5.312  17.848  0.00  0.00    +0.000 C 
ATOM     38  F   UNL     1       7.368   6.525  18.135  0.00  0.00    +0.000 F 
ATOM     39  F   UNL     1       7.289   4.438  18.772  0.00  0.00    +0.000 F 
ATOM     40  H   UNL     1       7.154   6.649  15.424  0.00  0.00    +0.000 HD
ENDBRANCH  31  32
ENDBRANCH  28  31
ENDBRANCH  26  27
ENDBRANCH  11  26
TORSDOF 6
ENDMDL
MODEL 3
REMARK VINA RESULT:      -8.4      5.432     10.299
REMARK  Name = 
REMARK  8 active torsions:
REMARK  status: ('A' for Active; 'I' for Inactive)
REMARK    1  A    between atoms: C_1  and  C_2
REMARK    2  A    between atoms: C_2  and  N_3
REMARK    3  A    between atoms: C_10  and  C_11
REMARK    4  A    between atoms: C_15  and  C_16
REMARK    5  A    between atoms: C_20  and  C_21
REMARK    6  A    between atoms: C_21  and  N_22
REMARK    7  A    between atoms: C_23  and  O_25
REMARK    8  A    between atoms: O_25  and  C_26
REMARK                            x       y       z     vdW  Elec       q    Type
REMARK                         _______ _______ _______ _____ _____    ______ ____
ROOT
ATOM      1  N   UNL     1      -3.177  11.025  15.021  0.00  0.00    +0.000 N 
ATOM      2  C   UNL     1      -2.831  10.702  16.311  0.00  0.00    +0.000 C 
ATOM      3  O   UNL     1      -2.799   9.548  16.720  0.00  0.00    +0.000 OA
ATOM      4  N   UNL     1      -2.604  11.824  17.072  0.00  0.00    +0.000 N 
ATOM      5  C   UNL     1      -2.293  11.752  18.435  0.00  0.00    +0.000 A 
ATOM      6  C   UNL     1      -1.376  10.834  18.924  0.00  0.00    +0.000 A 
ATOM      7  C   UNL     1      -0.967  10.847  20.278  0.00  0.00    +0.000 A 
ATOM      8  C   UNL     1       0.114  10.046  20.795  0.00  0.00    +0.000 A 
ATOM      9  C   UNL     1       0.357  10.100  22.177  0.00  0.00    +0.000 A 
ATOM     10  C   UNL     1      -0.430  10.860  23.036  0.00  0.00    +0.000 A 
ATOM     11  C   UNL     1      -1.456  11.672  22.545  0.00  0.00    +0.000 A 
ATOM     12  C   UNL     1      -1.699  11.701  21.146  0.00  0.00    +0.000 A 
ATOM     13  C   UNL     1      -2.635  12.562  20.541  0.00  0.00    +0.000 A 
ATOM     14  N   UNL     1      -2.890  12.660  19.215  0.00  0.00    +0.000 NA
ATOM     15  H   UNL     1      -2.776  11.867  14.635  0.00  0.00    +0.000 HD
ATOM     16  H   UNL     1      -3.171  12.625  16.841  0.00  0.00    +0.000 HD
ENDROOT
BRANCH   8  17
ATOM     17  C   UNL     1       0.990   9.164  19.956  0.00  0.00    +0.000 A 
ATOM     18  C   UNL     1       1.443   9.524  18.680  0.00  0.00    +0.000 A 
ATOM     19  C   UNL     1       2.174   8.617  17.924  0.00  0.00    +0.000 A 
ATOM     20  N   UNL     1       2.580   7.417  18.379  0.00  0.00    +0.000 NA
ATOM     21  C   UNL     1       2.224   7.092  19.640  0.00  0.00    +0.000 A 
ATOM     22  C   UNL     1       2.758   5.807  20.196  0.00  0.00    +0.000 C 
ATOM     23  C   UNL     1       1.427   7.917  20.432  0.00  0.00    +0.000 A 
ENDBRANCH   8  17
BRANCH   1  25
ATOM     24  C   UNL     1      -2.652   9.647  13.029  0.00  0.00    +0.000 C 
ATOM     25  C   UNL     1      -3.655  10.005  14.110  0.00  0.00    +0.000 C 
ENDBRANCH   1  25
BRANCH  11  26
ATOM     26  C   UNL     1      -2.260  12.452  23.552  0.00  0.00    +0.000 C 
BRANCH  26  27
ATOM     27  N   UNL     1      -3.684  12.206  23.434  0.00  0.00    +0.000 N 
ATOM     28  C   UNL     1      -4.537  12.355  24.486  0.00  0.00    +0.000 C 
ATOM     29  O   UNL     1      -4.194  12.589  25.635  0.00  0.00    +0.000 OA
ATOM     30  H   UNL     1      -4.111  12.062  22.528  0.00  0.00    +0.000 HD
BRANCH  28  31
ATOM     31  O   UNL     1      -5.824  12.311  24.051  0.00  0.00    +0.000 OA
BRANCH  31  32
ATOM     32  C   UNL     1      -6.055  12.992  22.794  0.00  0.00    +0.000 C 
ATOM     33  C   UNL     1      -7.131  12.212  22.029  0.00  0.00    +0.000 C 
ATOM     34  C   UNL     1      -7.459  12.880  20.698  0.00  0.00    +0.000 C 
ATOM     35  N   UNL     1      -7.897  14.267  20.863  0.00  0.00    +0.000 NA
ATOM     36  C   UNL     1      -6.911  15.051  21.640  0.00  0.00    +0.000 C 
ATOM     37  C   UNL     1      -6.530  14.432  22.999  0.00  0.00    +0.000 C 
ATOM     38  F   UNL     1      -7.615  14.465  23.820  0.00  0.00    +0.000 F 
ATOM     39  F   UNL     1      -5.565  15.178  23.589  0.00  0.00    +0.000 F 
ATOM     40  H   UNL     1      -8.787  14.279  21.370  0.00  0.00    +0.000 HD
ENDBRANCH  31  32
ENDBRANCH  28  31
ENDBRANCH  26  27
ENDBRANCH  11  26
TORSDOF 6
ENDMDL
MODEL 4
REMARK VINA RESULT:      -8.4      1.093      1.216
REMARK  Name = 
REMARK  8 active torsions:
REMARK  status: ('A' for Active; 'I' for Inactive)
REMARK    1  A    between atoms: C_1  and  C_2
REMARK    2  A    between atoms: C_2  and  N_3
REMARK    3  A    between atoms: C_10  and  C_11
REMARK    4  A    between atoms: C_15  and  C_16
REMARK    5  A    between atoms: C_20  and  C_21
REMARK    6  A    between atoms: C_21  and  N_22
REMARK    7  A    between atoms: C_23  and  O_25
REMARK    8  A    between atoms: O_25  and  C_26
REMARK                            x       y       z     vdW  Elec       q    Type
REMARK                         _______ _______ _______ _____ _____    ______ ____
ROOT
ATOM      1  N   UNL     1      -3.049  12.410  24.060  0.00  0.00    +0.000 N 
ATOM      2  C   UNL     1      -2.405  12.180  22.867  0.00  0.00    +0.000 C 
ATOM      3  O   UNL     1      -2.729  12.731  21.822  0.00  0.00    +0.000 OA
ATOM      4  N   UNL     1      -1.427  11.224  22.995  0.00  0.00    +0.000 N 
ATOM      5  C   UNL     1      -0.671  10.777  21.904  0.00  0.00    +0.000 A 
ATOM      6  C   UNL     1      -0.146  11.662  20.973  0.00  0.00    +0.000 A 
ATOM      7  C   UNL     1       0.723  11.224  19.946  0.00  0.00    +0.000 A 
ATOM      8  C   UNL     1       1.443  12.116  19.074  0.00  0.00    +0.000 A 
ATOM      9  C   UNL     1       2.207  11.540  18.045  0.00  0.00    +0.000 A 
ATOM     10  C   UNL     1       2.246  10.166  17.835  0.00  0.00    +0.000 A 
ATOM     11  C   UNL     1       1.585   9.286  18.698  0.00  0.00    +0.000 A 
ATOM     12  C   UNL     1       0.851   9.817  19.791  0.00  0.00    +0.000 A 
ATOM     13  C   UNL     1       0.240   9.016  20.775  0.00  0.00    +0.000 A 
ATOM     14  N   UNL     1      -0.444   9.460  21.855  0.00  0.00    +0.000 NA
ATOM     15  H   UNL     1      -2.505  12.302  24.903  0.00  0.00    +0.000 HD
ATOM     16  H   UNL     1      -1.620  10.493  23.662  0.00  0.00    +0.000 HD
ENDROOT
BRANCH   8  17
ATOM     17  C   UNL     1       1.428  13.611  19.193  0.00  0.00    +0.000 A 
ATOM     18  C   UNL     1       0.321  14.397  18.847  0.00  0.00    +0.000 A 
ATOM     19  C   UNL     1       0.414  15.782  18.897  0.00  0.00    +0.000 A 
ATOM     20  N   UNL     1       1.488  16.445  19.365  0.00  0.00    +0.000 NA
ATOM     21  C   UNL     1       2.529  15.698  19.784  0.00  0.00    +0.000 A 
ATOM     22  C   UNL     1       3.688  16.419  20.405  0.00  0.00    +0.000 C 
ATOM     23  C   UNL     1       2.542  14.307  19.694  0.00  0.00    +0.000 A 
ENDBRANCH   8  17
BRANCH   1  25
ATOM     24  C   UNL     1      -3.957  14.696  24.364  0.00  0.00    +0.000 C 
ATOM     25  C   UNL     1      -4.244  13.228  24.105  0.00  0.00    +0.000 C 
ENDBRANCH   1  25
BRANCH  11  26
ATOM     26  C   UNL     1       1.679   7.815  18.386  0.00  0.00    +0.000 C 
BRANCH  26  27
ATOM     27  N   UNL     1       2.876   7.208  18.936  0.00  0.00    +0.000 N 
ATOM     28  C   UNL     1       2.848   6.021  19.604  0.00  0.00    +0.000 C 
ATOM     29  O   UNL     1       1.831   5.414  19.907  0.00  0.00    +0.000 OA
ATOM     30  H   UNL     1       3.792   7.573  18.710  0.00  0.00    +0.000 HD
BRANCH  28  31
ATOM     31  O   UNL     1       4.113   5.560  19.788  0.00  0.00    +0.000 OA
BRANCH  31  32
ATOM     32  C   UNL     1       4.905   5.484  18.578  0.00  0.00    +0.000 C 
ATOM     33  C   UNL     1       6.377   5.370  18.987  0.00  0.00    +0.000 C 
ATOM     34  C   UNL     1       7.285   5.255  17.768  0.00  0.00    +0.000 C 
ATOM     35  N   UNL     1       6.933   4.117  16.916  0.00  0.00    +0.000 NA
ATOM     36  C   UNL     1       5.504   4.156  16.533  0.00  0.00    +0.000 C 
ATOM     37  C   UNL     1       4.527   4.275  17.719  0.00  0.00    +0.000 C 
ATOM     38  F   UNL     1       4.583   3.131  18.453  0.00  0.00    +0.000 F 
ATOM     39  F   UNL     1       3.258   4.389  17.258  0.00  0.00    +0.000 F 
ATOM     40  H   UNL     1       7.103   3.248  17.431  0.00  0.00    +0.000 HD
ENDBRANCH  31  32
ENDBRANCH  28  31
ENDBRANCH  26  27
ENDBRANCH  11  26
TORSDOF 6
ENDMDL
MODEL 5
REMARK VINA RESULT:      -8.4      1.212      1.657
REMARK  Name = 
REMARK  8 active torsions:
REMARK  status: ('A' for Active; 'I' for Inactive)
REMARK    1  A    between atoms: C_1  and  C_2
REMARK    2  A    between atoms: C_2  and  N_3
REMARK    3  A    between atoms: C_10  and  C_11
REMARK    4  A    between atoms: C_15  and  C_16
REMARK    5  A    between atoms: C_20  and  C_21
REMARK    6  A    between atoms: C_21  and  N_22
REMARK    7  A    between atoms: C_23  and  O_25
REMARK    8  A    between atoms: O_25  and  C_26
REMARK                            x       y       z     vdW  Elec       q    Type
REMARK                         _______ _______ _______ _____ _____    ______ ____
ROOT
ATOM      1  N   UNL     1      -2.771  12.952  24.064  0.00  0.00    +0.000 N 
ATOM      2  C   UNL     1      -2.163  12.640  22.872  0.00  0.00    +0.000 C 
ATOM      3  O   UNL     1      -2.464  13.179  21.813  0.00  0.00    +0.000 OA
ATOM      4  N   UNL     1      -1.253  11.621  23.017  0.00  0.00    +0.000 N 
ATOM      5  C   UNL     1      -0.547  11.088  21.932  0.00  0.00    +0.000 A 
ATOM      6  C   UNL     1       0.024  11.903  20.966  0.00  0.00    +0.000 A 
ATOM      7  C   UNL     1       0.844  11.373  19.941  0.00  0.00    +0.000 A 
ATOM      8  C   UNL     1       1.611  12.184  19.031  0.00  0.00    +0.000 A 
ATOM      9  C   UNL     1       2.317  11.523  18.012  0.00  0.00    +0.000 A 
ATOM     10  C   UNL     1       2.256  10.143  17.847  0.00  0.00    +0.000 A 
ATOM     11  C   UNL     1       1.548   9.340  18.746  0.00  0.00    +0.000 A 
ATOM     12  C   UNL     1       0.871   9.956  19.831  0.00  0.00    +0.000 A 
ATOM     13  C   UNL     1       0.220   9.232  20.849  0.00  0.00    +0.000 A 
ATOM     14  N   UNL     1      -0.415   9.757  21.923  0.00  0.00    +0.000 NA
ATOM     15  H   UNL     1      -2.222  12.833  24.904  0.00  0.00    +0.000 HD
ATOM     16  H   UNL     1      -1.487  10.928  23.711  0.00  0.00    +0.000 HD
ENDROOT
BRANCH   8  17
ATOM     17  C   UNL     1       1.704  13.678  19.102  0.00  0.00    +0.000 A 
ATOM     18  C   UNL     1       2.862  14.358  19.504  0.00  0.00    +0.000 A 
ATOM     19  C   UNL     1       2.843  15.740  19.634  0.00  0.00    +0.000 A 
ATOM     20  N   UNL     1       1.793  16.511  19.294  0.00  0.00    +0.000 NA
ATOM     21  C   UNL     1       0.700  15.877  18.821  0.00  0.00    +0.000 A 
ATOM     22  C   UNL     1      -0.435  16.728  18.340  0.00  0.00    +0.000 C 
ATOM     23  C   UNL     1       0.615  14.488  18.735  0.00  0.00    +0.000 A 
ENDBRANCH   8  17
BRANCH   1  25
ATOM     24  C   UNL     1      -3.573  15.214  24.687  0.00  0.00    +0.000 C 
ATOM     25  C   UNL     1      -3.904  13.854  24.098  0.00  0.00    +0.000 C 
ENDBRANCH   1  25
BRANCH  11  26
ATOM     26  C   UNL     1       1.533   7.857  18.481  0.00  0.00    +0.000 C 
BRANCH  26  27
ATOM     27  N   UNL     1       2.742   7.201  18.941  0.00  0.00    +0.000 N 
ATOM     28  C   UNL     1       2.712   6.106  19.751  0.00  0.00    +0.000 C 
ATOM     29  O   UNL     1       1.703   5.641  20.260  0.00  0.00    +0.000 OA
ATOM     30  H   UNL     1       3.643   7.445  18.552  0.00  0.00    +0.000 HD
BRANCH  28  31
ATOM     31  O   UNL     1       3.948   5.546  19.823  0.00  0.00    +0.000 OA
BRANCH  31  32
ATOM     32  C   UNL     1       4.624   5.421  18.549  0.00  0.00    +0.000 C 
ATOM     33  C   UNL     1       6.133   5.403  18.818  0.00  0.00    +0.000 C 
ATOM     34  C   UNL     1       6.926   5.244  17.526  0.00  0.00    +0.000 C 
ATOM     35  N   UNL     1       6.555   4.034  16.789  0.00  0.00    +0.000 NA
ATOM     36  C   UNL     1       5.096   3.982  16.546  0.00  0.00    +0.000 C 
ATOM     37  C   UNL     1       4.231   4.139  17.812  0.00  0.00    +0.000 C 
ATOM     38  F   UNL     1       4.415   3.053  18.611  0.00  0.00    +0.000 F 
ATOM     39  F   UNL     1       2.919   4.162  17.471  0.00  0.00    +0.000 F 
ATOM     40  H   UNL     1       6.817   3.212  17.340  0.00  0.00    +0.000 HD
ENDBRANCH  31  32
ENDBRANCH  28  31
ENDBRANCH  26  27
ENDBRANCH  11  26
TORSDOF 6
ENDMDL
MODEL 6
REMARK VINA RESULT:      -8.3      5.168      9.965
REMARK  Name = 
REMARK  8 active torsions:
REMARK  status: ('A' for Active; 'I' for Inactive)
REMARK    1  A    between atoms: C_1  and  C_2
REMARK    2  A    between atoms: C_2  and  N_3
REMARK    3  A    between atoms: C_10  and  C_11
REMARK    4  A    between atoms: C_15  and  C_16
REMARK    5  A    between atoms: C_20  and  C_21
REMARK    6  A    between atoms: C_21  and  N_22
REMARK    7  A    between atoms: C_23  and  O_25
REMARK    8  A    between atoms: O_25  and  C_26
REMARK                            x       y       z     vdW  Elec       q    Type
REMARK                         _______ _______ _______ _____ _____    ______ ____
ROOT
ATOM      1  N   UNL     1      -2.553  10.769  14.878  0.00  0.00    +0.000 N 
ATOM      2  C   UNL     1      -2.359  10.459  16.203  0.00  0.00    +0.000 C 
ATOM      3  O   UNL     1      -2.451   9.317  16.637  0.00  0.00    +0.000 OA
ATOM      4  N   UNL     1      -2.128  11.583  16.959  0.00  0.00    +0.000 N 
ATOM      5  C   UNL     1      -1.958  11.529  18.347  0.00  0.00    +0.000 A 
ATOM      6  C   UNL     1      -1.163  10.562  18.945  0.00  0.00    +0.000 A 
ATOM      7  C   UNL     1      -0.889  10.585  20.333  0.00  0.00    +0.000 A 
ATOM      8  C   UNL     1       0.075   9.726  20.972  0.00  0.00    +0.000 A 
ATOM      9  C   UNL     1       0.184   9.802  22.370  0.00  0.00    +0.000 A 
ATOM     10  C   UNL     1      -0.627  10.638  23.130  0.00  0.00    +0.000 A 
ATOM     11  C   UNL     1      -1.539  11.506  22.521  0.00  0.00    +0.000 A 
ATOM     12  C   UNL     1      -1.640  11.512  21.105  0.00  0.00    +0.000 A 
ATOM     13  C   UNL     1      -2.447  12.419  20.391  0.00  0.00    +0.000 A 
ATOM     14  N   UNL     1      -2.563  12.497  19.045  0.00  0.00    +0.000 NA
ATOM     15  H   UNL     1      -2.055  11.570  14.517  0.00  0.00    +0.000 HD
ATOM     16  H   UNL     1      -2.611  12.415  16.655  0.00  0.00    +0.000 HD
ENDROOT
BRANCH   8  17
ATOM     17  C   UNL     1       0.963   8.762  20.243  0.00  0.00    +0.000 A 
ATOM     18  C   UNL     1       1.600   9.069  19.033  0.00  0.00    +0.000 A 
ATOM     19  C   UNL     1       2.332   8.094  18.371  0.00  0.00    +0.000 A 
ATOM     20  N   UNL     1       2.569   6.866  18.868  0.00  0.00    +0.000 NA
ATOM     21  C   UNL     1       2.035   6.585  20.074  0.00  0.00    +0.000 A 
ATOM     22  C   UNL     1       2.378   5.261  20.688  0.00  0.00    +0.000 C 
ATOM     23  C   UNL     1       1.224   7.484  20.766  0.00  0.00    +0.000 A 
ENDBRANCH   8  17
BRANCH   1  25
ATOM     24  C   UNL     1      -4.465   9.926  13.545  0.00  0.00    +0.000 C 
ATOM     25  C   UNL     1      -3.010   9.759  13.946  0.00  0.00    +0.000 C 
ENDBRANCH   1  25
BRANCH  11  26
ATOM     26  C   UNL     1      -2.379  12.368  23.426  0.00  0.00    +0.000 C 
BRANCH  26  27
ATOM     27  N   UNL     1      -3.800  12.139  23.245  0.00  0.00    +0.000 N 
ATOM     28  C   UNL     1      -4.731  13.095  23.521  0.00  0.00    +0.000 C 
ATOM     29  O   UNL     1      -4.491  14.172  24.047  0.00  0.00    +0.000 OA
ATOM     30  H   UNL     1      -4.134  11.315  22.764  0.00  0.00    +0.000 HD
BRANCH  28  31
ATOM     31  O   UNL     1      -5.942  12.720  23.032  0.00  0.00    +0.000 OA
BRANCH  31  32
ATOM     32  C   UNL     1      -5.965  12.488  21.603  0.00  0.00    +0.000 C 
ATOM     33  C   UNL     1      -7.177  11.603  21.291  0.00  0.00    +0.000 C 
ATOM     34  C   UNL     1      -7.295  11.331  19.795  0.00  0.00    +0.000 C 
ATOM     35  N   UNL     1      -7.385  12.564  19.009  0.00  0.00    +0.000 NA
ATOM     36  C   UNL     1      -6.259  13.475  19.313  0.00  0.00    +0.000 C 
ATOM     37  C   UNL     1      -6.078  13.792  20.810  0.00  0.00    +0.000 C 
ATOM     38  F   UNL     1      -7.144  14.521  21.239  0.00  0.00    +0.000 F 
ATOM     39  F   UNL     1      -4.976  14.560  20.987  0.00  0.00    +0.000 F 
ATOM     40  H   UNL     1      -8.258  13.046  19.241  0.00  0.00    +0.000 HD
ENDBRANCH  31  32
ENDBRANCH  28  31
ENDBRANCH  26  27
ENDBRANCH  11  26
TORSDOF 6
ENDMDL
MODEL 7
REMARK VINA RESULT:      -8.3      1.032      1.178
REMARK  Name = 
REMARK  8 active torsions:
REMARK  status: ('A' for Active; 'I' for Inactive)
REMARK    1  A    between atoms: C_1  and  C_2
REMARK    2  A    between atoms: C_2  and  N_3
REMARK    3  A    between atoms: C_10  and  C_11
REMARK    4  A    between atoms: C_15  and  C_16
REMARK    5  A    between atoms: C_20  and  C_21
REMARK    6  A    between atoms: C_21  and  N_22
REMARK    7  A    between atoms: C_23  and  O_25
REMARK    8  A    between atoms: O_25  and  C_26
REMARK                            x       y       z     vdW  Elec       q    Type
REMARK                         _______ _______ _______ _____ _____    ______ ____
ROOT
ATOM      1  N   UNL     1      -3.472  12.671  24.112  0.00  0.00    +0.000 N 
ATOM      2  C   UNL     1      -2.783  12.210  23.015  0.00  0.00    +0.000 C 
ATOM      3  O   UNL     1      -3.126  12.458  21.865  0.00  0.00    +0.000 OA
ATOM      4  N   UNL     1      -1.734  11.401  23.378  0.00  0.00    +0.000 N 
ATOM      5  C   UNL     1      -0.918  10.766  22.433  0.00  0.00    +0.000 A 
ATOM      6  C   UNL     1      -0.445  11.436  21.314  0.00  0.00    +0.000 A 
ATOM      7  C   UNL     1       0.481  10.835  20.429  0.00  0.00    +0.000 A 
ATOM      8  C   UNL     1       1.147  11.543  19.366  0.00  0.00    +0.000 A 
ATOM      9  C   UNL     1       1.979  10.799  18.514  0.00  0.00    +0.000 A 
ATOM     10  C   UNL     1       2.136   9.423  18.650  0.00  0.00    +0.000 A 
ATOM     11  C   UNL     1       1.528   8.729  19.701  0.00  0.00    +0.000 A 
ATOM     12  C   UNL     1       0.727   9.449  20.627  0.00  0.00    +0.000 A 
ATOM     13  C   UNL     1       0.160   8.866  21.776  0.00  0.00    +0.000 A 
ATOM     14  N   UNL     1      -0.584   9.501  22.712  0.00  0.00    +0.000 NA
ATOM     15  H   UNL     1      -2.941  12.820  24.957  0.00  0.00    +0.000 HD
ATOM     16  H   UNL     1      -1.883  10.843  24.204  0.00  0.00    +0.000 HD
ENDROOT
BRANCH   8  17
ATOM     17  C   UNL     1       1.008  13.014  19.113  0.00  0.00    +0.000 A 
ATOM     18  C   UNL     1      -0.227  13.644  18.908  0.00  0.00    +0.000 A 
ATOM     19  C   UNL     1      -0.270  14.994  18.587  0.00  0.00    +0.000 A 
ATOM     20  N   UNL     1       0.813  15.792  18.557  0.00  0.00    +0.000 NA
ATOM     21  C   UNL     1       2.000  15.218  18.839  0.00  0.00    +0.000 A 
ATOM     22  C   UNL     1       3.199  16.115  18.913  0.00  0.00    +0.000 C 
ATOM     23  C   UNL     1       2.134  13.854  19.094  0.00  0.00    +0.000 A 
ENDBRANCH   8  17
BRANCH   1  25
ATOM     24  C   UNL     1      -4.577  14.880  23.906  0.00  0.00    +0.000 C 
ATOM     25  C   UNL     1      -4.730  13.370  23.950  0.00  0.00    +0.000 C 
ENDBRANCH   1  25
BRANCH  11  26
ATOM     26  C   UNL     1       1.748   7.241  19.762  0.00  0.00    +0.000 C 
BRANCH  26  27
ATOM     27  N   UNL     1       2.584   6.760  18.678  0.00  0.00    +0.000 N 
ATOM     28  C   UNL     1       2.837   5.435  18.487  0.00  0.00    +0.000 C 
ATOM     29  O   UNL     1       2.498   4.543  19.251  0.00  0.00    +0.000 OA
ATOM     30  H   UNL     1       2.881   7.384  17.939  0.00  0.00    +0.000 HD
BRANCH  28  31
ATOM     31  O   UNL     1       3.424   5.243  17.277  0.00  0.00    +0.000 OA
BRANCH  31  32
ATOM     32  C   UNL     1       4.839   5.547  17.243  0.00  0.00    +0.000 C 
ATOM     33  C   UNL     1       5.544   4.611  18.231  0.00  0.00    +0.000 C 
ATOM     34  C   UNL     1       7.051   4.843  18.238  0.00  0.00    +0.000 C 
ATOM     35  N   UNL     1       7.647   4.677  16.911  0.00  0.00    +0.000 NA
ATOM     36  C   UNL     1       6.966   5.527  15.909  0.00  0.00    +0.000 C 
ATOM     37  C   UNL     1       5.437   5.345  15.849  0.00  0.00    +0.000 C 
ATOM     38  F   UNL     1       5.158   4.097  15.385  0.00  0.00    +0.000 F 
ATOM     39  F   UNL     1       4.905   6.224  14.965  0.00  0.00    +0.000 F 
ATOM     40  H   UNL     1       7.551   3.700  16.621  0.00  0.00    +0.000 HD
ENDBRANCH  31  32
ENDBRANCH  28  31
ENDBRANCH  26  27
ENDBRANCH  11  26
TORSDOF 6
ENDMDL
MODEL 8
REMARK VINA RESULT:      -8.3      2.042      4.670
REMARK  Name = 
REMARK  8 active torsions:
REMARK  status: ('A' for Active; 'I' for Inactive)
REMARK    1  A    between atoms: C_1  and  C_2
REMARK    2  A    between atoms: C_2  and  N_3
REMARK    3  A    between atoms: C_10  and  C_11
REMARK    4  A    between atoms: C_15  and  C_16
REMARK    5  A    between atoms: C_20  and  C_21
REMARK    6  A    between atoms: C_21  and  N_22
REMARK    7  A    between atoms: C_23  and  O_25
REMARK    8  A    between atoms: O_25  and  C_26
REMARK                            x       y       z     vdW  Elec       q    Type
REMARK                         _______ _______ _______ _____ _____    ______ ____
ROOT
ATOM      1  N   UNL     1       3.065  14.426  17.252  0.00  0.00    +0.000 N 
ATOM      2  C   UNL     1       2.753  13.532  18.249  0.00  0.00    +0.000 C 
ATOM      3  O   UNL     1       3.037  13.725  19.425  0.00  0.00    +0.000 OA
ATOM      4  N   UNL     1       2.162  12.398  17.747  0.00  0.00    +0.000 N 
ATOM      5  C   UNL     1       1.806  11.317  18.562  0.00  0.00    +0.000 A 
ATOM      6  C   UNL     1       1.171  11.505  19.782  0.00  0.00    +0.000 A 
ATOM      7  C   UNL     1       0.697  10.412  20.545  0.00  0.00    +0.000 A 
ATOM      8  C   UNL     1      -0.129  10.553  21.716  0.00  0.00    +0.000 A 
ATOM      9  C   UNL     1      -0.459   9.384  22.421  0.00  0.00    +0.000 A 
ATOM     10  C   UNL     1       0.019   8.133  22.042  0.00  0.00    +0.000 A 
ATOM     11  C   UNL     1       0.788   7.976  20.886  0.00  0.00    +0.000 A 
ATOM     12  C   UNL     1       1.095   9.121  20.103  0.00  0.00    +0.000 A 
ATOM     13  C   UNL     1       1.770   9.056  18.869  0.00  0.00    +0.000 A 
ATOM     14  N   UNL     1       2.063  10.103  18.063  0.00  0.00    +0.000 NA
ATOM     15  H   UNL     1       2.457  14.444  16.446  0.00  0.00    +0.000 HD
ATOM     16  H   UNL     1       2.482  12.111  16.834  0.00  0.00    +0.000 HD
ENDROOT
BRANCH   8  17
ATOM     17  C   UNL     1      -0.656  11.860  22.227  0.00  0.00    +0.000 A 
ATOM     18  C   UNL     1      -1.807  11.967  23.019  0.00  0.00    +0.000 A 
ATOM     19  C   UNL     1      -2.286  13.220  23.378  0.00  0.00    +0.000 A 
ATOM     20  N   UNL     1      -1.652  14.374  23.098  0.00  0.00    +0.000 NA
ATOM     21  C   UNL     1      -0.495  14.281  22.411  0.00  0.00    +0.000 A 
ATOM     22  C   UNL     1       0.275  15.547  22.185  0.00  0.00    +0.000 C 
ATOM     23  C   UNL     1       0.010  13.066  21.949  0.00  0.00    +0.000 A 
ENDBRANCH   8  17
BRANCH   1  25
ATOM     24  C   UNL     1       3.054  16.845  17.796  0.00  0.00    +0.000 C 
ATOM     25  C   UNL     1       3.874  15.593  17.538  0.00  0.00    +0.000 C 
ENDBRANCH   1  25
BRANCH  11  26
ATOM     26  C   UNL     1       1.267   6.585  20.561  0.00  0.00    +0.000 C 
BRANCH  26  27
ATOM     27  N   UNL     1       2.655   6.561  20.141  0.00  0.00    +0.000 N 
ATOM     28  C   UNL     1       3.347   5.399  19.985  0.00  0.00    +0.000 C 
ATOM     29  O   UNL     1       2.928   4.291  20.285  0.00  0.00    +0.000 OA
ATOM     30  H   UNL     1       3.108   7.401  19.804  0.00  0.00    +0.000 HD
BRANCH  28  31
ATOM     31  O   UNL     1       4.525   5.639  19.350  0.00  0.00    +0.000 OA
BRANCH  31  32
ATOM     32  C   UNL     1       4.460   5.533  17.908  0.00  0.00    +0.000 C 
ATOM     33  C   UNL     1       5.078   6.805  17.315  0.00  0.00    +0.000 C 
ATOM     34  C   UNL     1       5.078   6.764  15.791  0.00  0.00    +0.000 C 
ATOM     35  N   UNL     1       5.786   5.596  15.265  0.00  0.00    +0.000 NA
ATOM     36  C   UNL     1       5.257   4.342  15.846  0.00  0.00    +0.000 C 
ATOM     37  C   UNL     1       5.225   4.315  17.387  0.00  0.00    +0.000 C 
ATOM     38  F   UNL     1       6.503   4.316  17.855  0.00  0.00    +0.000 F 
ATOM     39  F   UNL     1       4.649   3.165  17.813  0.00  0.00    +0.000 F 
ATOM     40  H   UNL     1       6.778   5.668  15.508  0.00  0.00    +0.000 HD
ENDBRANCH  31  32
ENDBRANCH  28  31
ENDBRANCH  26  27
ENDBRANCH  11  26
TORSDOF 6
ENDMDL
MODEL 9
REMARK VINA RESULT:      -8.2      1.406      1.736
REMARK  Name = 
REMARK  8 active torsions:
REMARK  status: ('A' for Active; 'I' for Inactive)
REMARK    1  A    between atoms: C_1  and  C_2
REMARK    2  A    between atoms: C_2  and  N_3
REMARK    3  A    between atoms: C_10  and  C_11
REMARK    4  A    between atoms: C_15  and  C_16
REMARK    5  A    between atoms: C_20  and  C_21
REMARK    6  A    between atoms: C_21  and  N_22
REMARK    7  A    between atoms: C_23  and  O_25
REMARK    8  A    between atoms: O_25  and  C_26
REMARK                            x       y       z     vdW  Elec       q    Type
REMARK                         _______ _______ _______ _____ _____    ______ ____
ROOT
ATOM      1  N   UNL     1      -3.582  12.934  23.963  0.00  0.00    +0.000 N 
ATOM      2  C   UNL     1      -2.878  12.597  22.831  0.00  0.00    +0.000 C 
ATOM      3  O   UNL     1      -3.235  12.925  21.706  0.00  0.00    +0.000 OA
ATOM      4  N   UNL     1      -1.794  11.805  23.124  0.00  0.00    +0.000 N 
ATOM      5  C   UNL     1      -0.956  11.287  22.130  0.00  0.00    +0.000 A 
ATOM      6  C   UNL     1      -0.515  12.067  21.071  0.00  0.00    +0.000 A 
ATOM      7  C   UNL     1       0.431  11.582  20.139  0.00  0.00    +0.000 A 
ATOM      8  C   UNL     1       1.063  12.404  19.139  0.00  0.00    +0.000 A 
ATOM      9  C   UNL     1       1.923  11.770  18.227  0.00  0.00    +0.000 A 
ATOM     10  C   UNL     1       2.138  10.396  18.248  0.00  0.00    +0.000 A 
ATOM     11  C   UNL     1       1.564   9.591  19.237  0.00  0.00    +0.000 A 
ATOM     12  C   UNL     1       0.737  10.196  20.220  0.00  0.00    +0.000 A 
ATOM     13  C   UNL     1       0.199   9.495  21.316  0.00  0.00    +0.000 A 
ATOM     14  N   UNL     1      -0.568  10.018  22.302  0.00  0.00    +0.000 NA
ATOM     15  H   UNL     1      -3.055  13.035  24.818  0.00  0.00    +0.000 HD
ATOM     16  H   UNL     1      -1.917  11.174  23.902  0.00  0.00    +0.000 HD
ENDROOT
BRANCH   8  17
ATOM     17  C   UNL     1       0.861  13.884  19.010  0.00  0.00    +0.000 A 
ATOM     18  C   UNL     1      -0.395  14.499  19.106  0.00  0.00    +0.000 A 
ATOM     19  C   UNL     1      -0.516  15.864  18.884  0.00  0.00    +0.000 A 
ATOM     20  N   UNL     1       0.530  16.685  18.676  0.00  0.00    +0.000 NA
ATOM     21  C   UNL     1       1.755  16.121  18.667  0.00  0.00    +0.000 A 
ATOM     22  C   UNL     1       2.934  17.037  18.542  0.00  0.00    +0.000 C 
ATOM     23  C   UNL     1       1.951  14.747  18.806  0.00  0.00    +0.000 A 
ENDBRANCH   8  17
BRANCH   1  25
ATOM     24  C   UNL     1      -6.040  12.624  23.858  0.00  0.00    +0.000 C 
ATOM     25  C   UNL     1      -4.869  13.591  23.860  0.00  0.00    +0.000 C 
ENDBRANCH   1  25
BRANCH  11  26
ATOM     26  C   UNL     1       1.847   8.113  19.173  0.00  0.00    +0.000 C 
BRANCH  26  27
ATOM     27  N   UNL     1       2.910   7.794  18.239  0.00  0.00    +0.000 N 
ATOM     28  C   UNL     1       3.196   6.513  17.873  0.00  0.00    +0.000 C 
ATOM     29  O   UNL     1       2.687   5.517  18.365  0.00  0.00    +0.000 OA
ATOM     30  H   UNL     1       3.373   8.524  17.713  0.00  0.00    +0.000 HD
BRANCH  28  31
ATOM     31  O   UNL     1       4.047   6.510  16.814  0.00  0.00    +0.000 OA
BRANCH  31  32
ATOM     32  C   UNL     1       5.033   5.451  16.842  0.00  0.00    +0.000 C 
ATOM     33  C   UNL     1       5.635   5.333  15.437  0.00  0.00    +0.000 C 
ATOM     34  C   UNL     1       6.710   4.253  15.382  0.00  0.00    +0.000 C 
ATOM     35  N   UNL     1       7.787   4.489  16.347  0.00  0.00    +0.000 NA
ATOM     36  C   UNL     1       7.250   4.659  17.715  0.00  0.00    +0.000 C 
ATOM     37  C   UNL     1       6.154   5.734  17.845  0.00  0.00    +0.000 C 
ATOM     38  F   UNL     1       6.705   6.956  17.612  0.00  0.00    +0.000 F 
ATOM     39  F   UNL     1       5.674   5.751  19.112  0.00  0.00    +0.000 F 
ATOM     40  H   UNL     1       8.285   5.345  16.090  0.00  0.00    +0.000 HD
ENDBRANCH  31  32
ENDBRANCH  28  31
ENDBRANCH  26  27
ENDBRANCH  11  26
TORSDOF 6
ENDMDL
