MODEL 1
REMARK VINA RESULT:      -8.3      0.000      0.000
REMARK  Name = 
REMARK  11 active torsions:
REMARK  status: ('A' for Active; 'I' for Inactive)
REMARK    1  A    between atoms: C_1  and  C_2
REMARK    2  A    between atoms: C_2  and  C_3
REMARK    3  A    between atoms: C_3  and  N_4
REMARK    4  A    between atoms: C_10  and  C_11
REMARK    5  A    between atoms: C_14  and  O_15
REMARK    6  A    between atoms: O_15  and  C_16
REMARK    7  A    between atoms: C_16  and  C_17
REMARK    8  A    between atoms: N_19  and  C_20
REMARK    9  A    between atoms: C_20  and  C_21
REMARK   10  A    between atoms: C_21  and  C_22
REMARK   11  A    between atoms: C_22  and  C_23
REMARK                            x       y       z     vdW  Elec       q    Type
REMARK                         _______ _______ _______ _____ _____    ______ ____
ROOT
ATOM      1  C   UNL     1       1.856   7.283  19.771  0.00  0.00    +0.000 A 
ATOM      2  C   UNL     1       2.393   7.111  18.492  0.00  0.00    +0.000 A 
ATOM      3  C   UNL     1       2.920   5.880  18.099  0.00  0.00    +0.000 A 
ATOM      4  C   UNL     1       2.935   4.804  18.986  0.00  0.00    +0.000 A 
ATOM      5  C   UNL     1       2.368   4.951  20.252  0.00  0.00    +0.000 A 
ATOM      6  C   UNL     1       1.840   6.187  20.647  0.00  0.00    +0.000 A 
ENDROOT
BRANCH   1  13
ATOM      7  N   UNL     1      -0.539  12.229  22.008  0.00  0.00    +0.000 N 
ATOM      8  C   UNL     1      -0.254  12.744  20.730  0.00  0.00    +0.000 A 
ATOM      9  O   UNL     1      -0.543  13.891  20.385  0.00  0.00    +0.000 OA
ATOM     10  N   UNL     1       0.381  11.902  19.842  0.00  0.00    +0.000 N 
ATOM     11  C   UNL     1       0.679  10.624  20.180  0.00  0.00    +0.000 A 
ATOM     12  N   UNL     1       1.284   9.687  19.403  0.00  0.00    +0.000 NA
ATOM     13  C   UNL     1       1.314   8.589  20.153  0.00  0.00    +0.000 A 
ATOM     14  N   UNL     1       0.773   8.846  21.400  0.00  0.00    +0.000 N 
ATOM     15  C   UNL     1       0.370  10.146  21.408  0.00  0.00    +0.000 A 
ATOM     16  C   UNL     1      -0.249  10.922  22.420  0.00  0.00    +0.000 A 
ATOM     17  O   UNL     1      -0.491  10.467  23.536  0.00  0.00    +0.000 OA
ATOM     18  H   UNL     1       0.609  12.234  18.915  0.00  0.00    +0.000 HD
ATOM     19  H   UNL     1       0.709   8.199  22.170  0.00  0.00    +0.000 HD
BRANCH   7  20
ATOM     20  C   UNL     1      -1.190  13.107  22.975  0.00  0.00    +0.000 C 
BRANCH  20  22
ATOM     21  C   UNL     1      -3.359  13.809  24.048  0.00  0.00    +0.000 C 
ATOM     22  C   UNL     1      -2.714  12.966  22.957  0.00  0.00    +0.000 C 
ENDBRANCH  20  22
ENDBRANCH   7  20
ENDBRANCH   1  13
BRANCH   4  23
ATOM     23  O   UNL     1       3.473   3.579  18.702  0.00  0.00    +0.000 OA
BRANCH  23  24
ATOM     24  C   UNL     1       4.640   3.254  19.466  0.00  0.00    +0.000 C 
BRANCH  24  25
ATOM     25  C   UNL     1       5.812   4.162  19.115  0.00  0.00    +0.000 C 
ATOM     26  O   UNL     1       6.217   5.027  19.885  0.00  0.00    +0.000 OA
ATOM     27  N   UNL     1       6.366   3.919  17.880  0.00  0.00    +0.000 N 
ATOM     28  H   UNL     1       5.986   3.135  17.356  0.00  0.00    +0.000 HD
BRANCH  27  29
ATOM     29  C   UNL     1       7.535   4.616  17.400  0.00  0.00    +0.000 C 
BRANCH  29  30
ATOM     30  C   UNL     1       7.185   5.853  16.573  0.00  0.00    +0.000 C 
BRANCH  30  31
ATOM     31  C   UNL     1       5.949   5.632  15.698  0.00  0.00    +0.000 C 
BRANCH  31  32
ATOM     32  C   UNL     1       6.282   4.968  14.384  0.00  0.00    +0.000 A 
ATOM     33  C   UNL     1       5.433   3.992  13.846  0.00  0.00    +0.000 A 
ATOM     34  C   UNL     1       5.727   3.398  12.617  0.00  0.00    +0.000 A 
ATOM     35  C   UNL     1       6.876   3.766  11.921  0.00  0.00    +0.000 A 
ATOM     36  C   UNL     1       7.738   4.720  12.458  0.00  0.00    +0.000 A 
ATOM     37  C   UNL     1       7.444   5.318  13.685  0.00  0.00    +0.000 A 
ENDBRANCH  31  32
ENDBRANCH  30  31
ENDBRANCH  29  30
ENDBRANCH  27  29
ENDBRANCH  24  25
ENDBRANCH  23  24
ENDBRANCH   4  23
TORSDOF 10
ENDMDL
MODEL 2
REMARK VINA RESULT:      -8.0      3.695      5.026
REMARK  Name = 
REMARK  11 active torsions:
REMARK  status: ('A' for Active; 'I' for Inactive)
REMARK    1  A    between atoms: C_1  and  C_2
REMARK    2  A    between atoms: C_2  and  C_3
REMARK    3  A    between atoms: C_3  and  N_4
REMARK    4  A    between atoms: C_10  and  C_11
REMARK    5  A    between atoms: C_14  and  O_15
REMARK    6  A    between atoms: O_15  and  C_16
REMARK    7  A    between atoms: C_16  and  C_17
REMARK    8  A    between atoms: N_19  and  C_20
REMARK    9  A    between atoms: C_20  and  C_21
REMARK   10  A    between atoms: C_21  and  C_22
REMARK   11  A    between atoms: C_22  and  C_23
REMARK                            x       y       z     vdW  Elec       q    Type
REMARK                         _______ _______ _______ _____ _____    ______ ____
ROOT
ATOM      1  C   UNL     1       1.636   8.536  19.078  0.00  0.00    +0.000 A 
ATOM      2  C   UNL     1       1.934   7.399  19.835  0.00  0.00    +0.000 A 
ATOM      3  C   UNL     1       2.826   6.437  19.359  0.00  0.00    +0.000 A 
ATOM      4  C   UNL     1       3.423   6.588  18.108  0.00  0.00    +0.000 A 
ATOM      5  C   UNL     1       3.165   7.736  17.359  0.00  0.00    +0.000 A 
ATOM      6  C   UNL     1       2.268   8.701  17.837  0.00  0.00    +0.000 A 
ENDROOT
BRANCH   1  13
ATOM      7  N   UNL     1      -1.923  12.326  21.936  0.00  0.00    +0.000 N 
ATOM      8  C   UNL     1      -2.411  12.581  20.641  0.00  0.00    +0.000 A 
ATOM      9  O   UNL     1      -3.335  13.363  20.410  0.00  0.00    +0.000 OA
ATOM     10  N   UNL     1      -1.807  11.910  19.599  0.00  0.00    +0.000 N 
ATOM     11  C   UNL     1      -0.813  11.017  19.825  0.00  0.00    +0.000 A 
ATOM     12  N   UNL     1      -0.146  10.277  18.900  0.00  0.00    +0.000 NA
ATOM     13  C   UNL     1       0.693   9.524  19.606  0.00  0.00    +0.000 A 
ATOM     14  N   UNL     1       0.584   9.819  20.953  0.00  0.00    +0.000 N 
ATOM     15  C   UNL     1      -0.381  10.771  21.083  0.00  0.00    +0.000 A 
ATOM     16  C   UNL     1      -0.895  11.423  22.233  0.00  0.00    +0.000 A 
ATOM     17  O   UNL     1      -0.460  11.198  23.360  0.00  0.00    +0.000 OA
ATOM     18  H   UNL     1      -2.124  12.068  18.653  0.00  0.00    +0.000 HD
ATOM     19  H   UNL     1       1.130   9.420  21.700  0.00  0.00    +0.000 HD
BRANCH   7  20
ATOM     20  C   UNL     1      -2.529  13.041  23.054  0.00  0.00    +0.000 C 
BRANCH  20  22
ATOM     21  C   UNL     1      -4.903  13.037  23.897  0.00  0.00    +0.000 C 
ATOM     22  C   UNL     1      -3.626  12.224  23.743  0.00  0.00    +0.000 C 
ENDBRANCH  20  22
ENDBRANCH   7  20
ENDBRANCH   1  13
BRANCH   4  23
ATOM     23  O   UNL     1       4.270   5.674  17.543  0.00  0.00    +0.000 OA
BRANCH  23  24
ATOM     24  C   UNL     1       4.943   6.139  16.367  0.00  0.00    +0.000 C 
BRANCH  24  25
ATOM     25  C   UNL     1       6.429   6.356  16.618  0.00  0.00    +0.000 C 
ATOM     26  O   UNL     1       7.290   5.832  15.918  0.00  0.00    +0.000 OA
ATOM     27  N   UNL     1       6.708   7.185  17.680  0.00  0.00    +0.000 N 
ATOM     28  H   UNL     1       5.912   7.610  18.148  0.00  0.00    +0.000 HD
BRANCH  27  29
ATOM     29  C   UNL     1       8.052   7.580  18.027  0.00  0.00    +0.000 C 
BRANCH  29  30
ATOM     30  C   UNL     1       8.262   9.092  17.944  0.00  0.00    +0.000 C 
BRANCH  30  31
ATOM     31  C   UNL     1       9.134   9.618  19.086  0.00  0.00    +0.000 C 
BRANCH  31  32
ATOM     32  C   UNL     1       9.602  11.033  18.852  0.00  0.00    +0.000 A 
ATOM     33  C   UNL     1       8.952  11.851  17.919  0.00  0.00    +0.000 A 
ATOM     34  C   UNL     1       9.367  13.170  17.723  0.00  0.00    +0.000 A 
ATOM     35  C   UNL     1      10.441  13.678  18.449  0.00  0.00    +0.000 A 
ATOM     36  C   UNL     1      11.109  12.866  19.364  0.00  0.00    +0.000 A 
ATOM     37  C   UNL     1      10.692  11.549  19.564  0.00  0.00    +0.000 A 
ENDBRANCH  31  32
ENDBRANCH  30  31
ENDBRANCH  29  30
ENDBRANCH  27  29
ENDBRANCH  24  25
ENDBRANCH  23  24
ENDBRANCH   4  23
TORSDOF 10
ENDMDL
MODEL 3
REMARK VINA RESULT:      -7.9      3.141     10.243
REMARK  Name = 
REMARK  11 active torsions:
REMARK  status: ('A' for Active; 'I' for Inactive)
REMARK    1  A    between atoms: C_1  and  C_2
REMARK    2  A    between atoms: C_2  and  C_3
REMARK    3  A    between atoms: C_3  and  N_4
REMARK    4  A    between atoms: C_10  and  C_11
REMARK    5  A    between atoms: C_14  and  O_15
REMARK    6  A    between atoms: O_15  and  C_16
REMARK    7  A    between atoms: C_16  and  C_17
REMARK    8  A    between atoms: N_19  and  C_20
REMARK    9  A    between atoms: C_20  and  C_21
REMARK   10  A    between atoms: C_21  and  C_22
REMARK   11  A    between atoms: C_22  and  C_23
REMARK                            x       y       z     vdW  Elec       q    Type
REMARK                         _______ _______ _______ _____ _____    ______ ____
ROOT
ATOM      1  C   UNL     1       0.560   9.583  21.166  0.00  0.00    +0.000 A 
ATOM      2  C   UNL     1      -0.110   9.167  22.320  0.00  0.00    +0.000 A 
ATOM      3  C   UNL     1      -0.857  10.071  23.077  0.00  0.00    +0.000 A 
ATOM      4  C   UNL     1      -0.932  11.412  22.701  0.00  0.00    +0.000 A 
ATOM      5  C   UNL     1      -0.300  11.833  21.530  0.00  0.00    +0.000 A 
ATOM      6  C   UNL     1       0.451  10.925  20.772  0.00  0.00    +0.000 A 
ENDROOT
BRANCH   1  13
ATOM      7  N   UNL     1       3.636   5.161  18.678  0.00  0.00    +0.000 N 
ATOM      8  C   UNL     1       3.817   6.095  17.642  0.00  0.00    +0.000 A 
ATOM      9  O   UNL     1       4.487   5.863  16.634  0.00  0.00    +0.000 OA
ATOM     10  N   UNL     1       3.202   7.321  17.787  0.00  0.00    +0.000 N 
ATOM     11  C   UNL     1       2.488   7.618  18.900  0.00  0.00    +0.000 A 
ATOM     12  N   UNL     1       1.849   8.784  19.181  0.00  0.00    +0.000 NA
ATOM     13  C   UNL     1       1.338   8.610  20.396  0.00  0.00    +0.000 A 
ATOM     14  N   UNL     1       1.617   7.335  20.855  0.00  0.00    +0.000 N 
ATOM     15  C   UNL     1       2.353   6.710  19.894  0.00  0.00    +0.000 A 
ATOM     16  C   UNL     1       2.905   5.405  19.848  0.00  0.00    +0.000 A 
ATOM     17  O   UNL     1       2.739   4.594  20.756  0.00  0.00    +0.000 OA
ATOM     18  H   UNL     1       3.301   8.018  17.062  0.00  0.00    +0.000 HD
ATOM     19  H   UNL     1       1.315   6.933  21.728  0.00  0.00    +0.000 HD
BRANCH   7  20
ATOM     20  C   UNL     1       4.257   3.848  18.539  0.00  0.00    +0.000 C 
BRANCH  20  22
ATOM     21  C   UNL     1       2.664   1.897  18.475  0.00  0.00    +0.000 C 
ATOM     22  C   UNL     1       3.441   2.910  17.645  0.00  0.00    +0.000 C 
ENDBRANCH  20  22
ENDBRANCH   7  20
ENDBRANCH   1  13
BRANCH   4  23
ATOM     23  O   UNL     1      -1.600  12.375  23.408  0.00  0.00    +0.000 OA
BRANCH  23  24
ATOM     24  C   UNL     1      -3.022  12.347  23.245  0.00  0.00    +0.000 C 
BRANCH  24  25
ATOM     25  C   UNL     1      -3.474  13.236  22.093  0.00  0.00    +0.000 C 
ATOM     26  O   UNL     1      -3.201  14.432  22.049  0.00  0.00    +0.000 OA
ATOM     27  N   UNL     1      -4.196  12.581  21.123  0.00  0.00    +0.000 N 
ATOM     28  H   UNL     1      -4.307  11.577  21.237  0.00  0.00    +0.000 HD
BRANCH  27  29
ATOM     29  C   UNL     1      -4.642  13.229  19.913  0.00  0.00    +0.000 C 
BRANCH  29  30
ATOM     30  C   UNL     1      -5.762  12.461  19.211  0.00  0.00    +0.000 C 
BRANCH  30  31
ATOM     31  C   UNL     1      -5.405  10.989  18.995  0.00  0.00    +0.000 C 
BRANCH  31  32
ATOM     32  C   UNL     1      -4.398  10.794  17.889  0.00  0.00    +0.000 A 
ATOM     33  C   UNL     1      -3.209  10.093  18.127  0.00  0.00    +0.000 A 
ATOM     34  C   UNL     1      -2.289   9.888  17.095  0.00  0.00    +0.000 A 
ATOM     35  C   UNL     1      -2.545  10.393  15.823  0.00  0.00    +0.000 A 
ATOM     36  C   UNL     1      -3.715  11.111  15.581  0.00  0.00    +0.000 A 
ATOM     37  C   UNL     1      -4.637  11.313  16.610  0.00  0.00    +0.000 A 
ENDBRANCH  31  32
ENDBRANCH  30  31
ENDBRANCH  29  30
ENDBRANCH  27  29
ENDBRANCH  24  25
ENDBRANCH  23  24
ENDBRANCH   4  23
TORSDOF 10
ENDMDL
MODEL 4
REMARK VINA RESULT:      -7.9      3.451     10.473
REMARK  Name = 
REMARK  11 active torsions:
REMARK  status: ('A' for Active; 'I' for Inactive)
REMARK    1  A    between atoms: C_1  and  C_2
REMARK    2  A    between atoms: C_2  and  C_3
REMARK    3  A    between atoms: C_3  and  N_4
REMARK    4  A    between atoms: C_10  and  C_11
REMARK    5  A    between atoms: C_14  and  O_15
REMARK    6  A    between atoms: O_15  and  C_16
REMARK    7  A    between atoms: C_16  and  C_17
REMARK    8  A    between atoms: N_19  and  C_20
REMARK    9  A    between atoms: C_20  and  C_21
REMARK   10  A    between atoms: C_21  and  C_22
REMARK   11  A    between atoms: C_22  and  C_23
REMARK                            x       y       z     vdW  Elec       q    Type
REMARK                         _______ _______ _______ _____ _____    ______ ____
ROOT
ATOM      1  C   UNL     1       0.602   9.899  19.483  0.00  0.00    +0.000 A 
ATOM      2  C   UNL     1       0.865  10.984  18.643  0.00  0.00    +0.000 A 
ATOM      3  C   UNL     1       0.095  12.146  18.714  0.00  0.00    +0.000 A 
ATOM      4  C   UNL     1      -0.964  12.235  19.617  0.00  0.00    +0.000 A 
ATOM      5  C   UNL     1      -1.214  11.174  20.488  0.00  0.00    +0.000 A 
ATOM      6  C   UNL     1      -0.442  10.007  20.415  0.00  0.00    +0.000 A 
ENDROOT
BRANCH   1  13
ATOM      7  N   UNL     1       4.176   5.298  18.360  0.00  0.00    +0.000 N 
ATOM      8  C   UNL     1       3.645   4.807  19.567  0.00  0.00    +0.000 A 
ATOM      9  O   UNL     1       3.943   3.708  20.037  0.00  0.00    +0.000 OA
ATOM     10  N   UNL     1       2.751   5.617  20.234  0.00  0.00    +0.000 N 
ATOM     11  C   UNL     1       2.376   6.816  19.724  0.00  0.00    +0.000 A 
ATOM     12  N   UNL     1       1.497   7.701  20.264  0.00  0.00    +0.000 NA
ATOM     13  C   UNL     1       1.427   8.693  19.380  0.00  0.00    +0.000 A 
ATOM     14  N   UNL     1       2.282   8.453  18.320  0.00  0.00    +0.000 N 
ATOM     15  C   UNL     1       2.882   7.252  18.548  0.00  0.00    +0.000 A 
ATOM     16  C   UNL     1       3.835   6.530  17.786  0.00  0.00    +0.000 A 
ATOM     17  O   UNL     1       4.298   6.967  16.734  0.00  0.00    +0.000 OA
ATOM     18  H   UNL     1       2.350   5.305  21.108  0.00  0.00    +0.000 HD
ATOM     19  H   UNL     1       2.449   9.061  17.535  0.00  0.00    +0.000 HD
BRANCH   7  20
ATOM     20  C   UNL     1       5.142   4.471  17.645  0.00  0.00    +0.000 C 
BRANCH  20  22
ATOM     21  C   UNL     1       7.501   4.520  16.760  0.00  0.00    +0.000 C 
ATOM     22  C   UNL     1       6.588   4.895  17.919  0.00  0.00    +0.000 C 
ENDBRANCH  20  22
ENDBRANCH   7  20
ENDBRANCH   1  13
BRANCH   4  23
ATOM     23  O   UNL     1      -1.799  13.314  19.723  0.00  0.00    +0.000 OA
BRANCH  23  24
ATOM     24  C   UNL     1      -2.466  13.424  20.985  0.00  0.00    +0.000 C 
BRANCH  24  25
ATOM     25  C   UNL     1      -3.928  13.009  20.886  0.00  0.00    +0.000 C 
ATOM     26  O   UNL     1      -4.484  12.370  21.775  0.00  0.00    +0.000 OA
ATOM     27  N   UNL     1      -4.555  13.415  19.731  0.00  0.00    +0.000 N 
ATOM     28  H   UNL     1      -4.010  13.991  19.095  0.00  0.00    +0.000 HD
BRANCH  27  29
ATOM     29  C   UNL     1      -5.960  13.191  19.487  0.00  0.00    +0.000 C 
BRANCH  29  30
ATOM     30  C   UNL     1      -6.215  11.992  18.574  0.00  0.00    +0.000 C 
BRANCH  30  31
ATOM     31  C   UNL     1      -5.664  12.212  17.163  0.00  0.00    +0.000 C 
BRANCH  31  32
ATOM     32  C   UNL     1      -4.464  11.346  16.870  0.00  0.00    +0.000 A 
ATOM     33  C   UNL     1      -3.965  10.470  17.843  0.00  0.00    +0.000 A 
ATOM     34  C   UNL     1      -2.871   9.648  17.561  0.00  0.00    +0.000 A 
ATOM     35  C   UNL     1      -2.261   9.703  16.310  0.00  0.00    +0.000 A 
ATOM     36  C   UNL     1      -2.737  10.586  15.343  0.00  0.00    +0.000 A 
ATOM     37  C   UNL     1      -3.832  11.405  15.621  0.00  0.00    +0.000 A 
ENDBRANCH  31  32
ENDBRANCH  30  31
ENDBRANCH  29  30
ENDBRANCH  27  29
ENDBRANCH  24  25
ENDBRANCH  23  24
ENDBRANCH   4  23
TORSDOF 10
ENDMDL
MODEL 5
REMARK VINA RESULT:      -7.9      3.163      4.371
REMARK  Name = 
REMARK  11 active torsions:
REMARK  status: ('A' for Active; 'I' for Inactive)
REMARK    1  A    between atoms: C_1  and  C_2
REMARK    2  A    between atoms: C_2  and  C_3
REMARK    3  A    between atoms: C_3  and  N_4
REMARK    4  A    between atoms: C_10  and  C_11
REMARK    5  A    between atoms: C_14  and  O_15
REMARK    6  A    between atoms: O_15  and  C_16
REMARK    7  A    between atoms: C_16  and  C_17
REMARK    8  A    between atoms: N_19  and  C_20
REMARK    9  A    between atoms: C_20  and  C_21
REMARK   10  A    between atoms: C_21  and  C_22
REMARK   11  A    between atoms: C_22  and  C_23
REMARK                            x       y       z     vdW  Elec       q    Type
REMARK                         _______ _______ _______ _____ _____    ______ ____
ROOT
ATOM      1  C   UNL     1       1.800   8.389  19.342  0.00  0.00    +0.000 A 
ATOM      2  C   UNL     1       2.395   8.466  18.079  0.00  0.00    +0.000 A 
ATOM      3  C   UNL     1       3.182   7.421  17.595  0.00  0.00    +0.000 A 
ATOM      4  C   UNL     1       3.402   6.286  18.374  0.00  0.00    +0.000 A 
ATOM      5  C   UNL     1       2.784   6.178  19.620  0.00  0.00    +0.000 A 
ATOM      6  C   UNL     1       1.995   7.229  20.107  0.00  0.00    +0.000 A 
ENDROOT
BRANCH   1  13
ATOM      7  N   UNL     1      -1.475  12.563  21.997  0.00  0.00    +0.000 N 
ATOM      8  C   UNL     1      -1.587  13.069  20.689  0.00  0.00    +0.000 A 
ATOM      9  O   UNL     1      -2.253  14.066  20.406  0.00  0.00    +0.000 OA
ATOM     10  N   UNL     1      -0.908  12.396  19.696  0.00  0.00    +0.000 N 
ATOM     11  C   UNL     1      -0.197  11.275  19.969  0.00  0.00    +0.000 A 
ATOM     12  N   UNL     1       0.501  10.508  19.091  0.00  0.00    +0.000 NA
ATOM     13  C   UNL     1       0.982   9.505  19.821  0.00  0.00    +0.000 A 
ATOM     14  N   UNL     1       0.626   9.664  21.148  0.00  0.00    +0.000 N 
ATOM     15  C   UNL     1      -0.128  10.795  21.233  0.00  0.00    +0.000 A 
ATOM     16  C   UNL     1      -0.750  11.416  22.345  0.00  0.00    +0.000 A 
ATOM     17  O   UNL     1      -0.644  10.971  23.486  0.00  0.00    +0.000 OA
ATOM     18  H   UNL     1      -0.958  12.729  18.743  0.00  0.00    +0.000 HD
ATOM     19  H   UNL     1       0.891   9.068  21.915  0.00  0.00    +0.000 HD
BRANCH   7  20
ATOM     20  C   UNL     1      -2.165  13.270  23.071  0.00  0.00    +0.000 C 
BRANCH  20  22
ATOM     21  C   UNL     1      -4.636  12.941  22.700  0.00  0.00    +0.000 C 
ATOM     22  C   UNL     1      -3.428  12.538  23.534  0.00  0.00    +0.000 C 
ENDBRANCH  20  22
ENDBRANCH   7  20
ENDBRANCH   1  13
BRANCH   4  23
ATOM     23  O   UNL     1       4.197   5.236  18.000  0.00  0.00    +0.000 OA
BRANCH  23  24
ATOM     24  C   UNL     1       5.082   4.770  19.024  0.00  0.00    +0.000 C 
BRANCH  24  25
ATOM     25  C   UNL     1       6.415   5.506  18.993  0.00  0.00    +0.000 C 
ATOM     26  O   UNL     1       7.221   5.432  19.916  0.00  0.00    +0.000 OA
ATOM     27  N   UNL     1       6.628   6.243  17.851  0.00  0.00    +0.000 N 
ATOM     28  H   UNL     1       5.916   6.179  17.128  0.00  0.00    +0.000 HD
BRANCH  27  29
ATOM     29  C   UNL     1       7.864   6.944  17.596  0.00  0.00    +0.000 C 
BRANCH  29  30
ATOM     30  C   UNL     1       7.733   8.455  17.783  0.00  0.00    +0.000 C 
BRANCH  30  31
ATOM     31  C   UNL     1       8.798   9.015  18.729  0.00  0.00    +0.000 C 
BRANCH  31  32
ATOM     32  C   UNL     1       9.064  10.482  18.497  0.00  0.00    +0.000 A 
ATOM     33  C   UNL     1       8.210  11.239  17.685  0.00  0.00    +0.000 A 
ATOM     34  C   UNL     1       8.441  12.603  17.493  0.00  0.00    +0.000 A 
ATOM     35  C   UNL     1       9.533  13.217  18.100  0.00  0.00    +0.000 A 
ATOM     36  C   UNL     1      10.402  12.468  18.893  0.00  0.00    +0.000 A 
ATOM     37  C   UNL     1      10.169  11.106  19.089  0.00  0.00    +0.000 A 
ENDBRANCH  31  32
ENDBRANCH  30  31
ENDBRANCH  29  30
ENDBRANCH  27  29
ENDBRANCH  24  25
ENDBRANCH  23  24
ENDBRANCH   4  23
TORSDOF 10
ENDMDL
MODEL 6
REMARK VINA RESULT:      -7.9      3.223     10.218
REMARK  Name = 
REMARK  11 active torsions:
REMARK  status: ('A' for Active; 'I' for Inactive)
REMARK    1  A    between atoms: C_1  and  C_2
REMARK    2  A    between atoms: C_2  and  C_3
REMARK    3  A    between atoms: C_3  and  N_4
REMARK    4  A    between atoms: C_10  and  C_11
REMARK    5  A    between atoms: C_14  and  O_15
REMARK    6  A    between atoms: O_15  and  C_16
REMARK    7  A    between atoms: C_16  and  C_17
REMARK    8  A    between atoms: N_19  and  C_20
REMARK    9  A    between atoms: C_20  and  C_21
REMARK   10  A    between atoms: C_21  and  C_22
REMARK   11  A    between atoms: C_22  and  C_23
REMARK                            x       y       z     vdW  Elec       q    Type
REMARK                         _______ _______ _______ _____ _____    ______ ____
ROOT
ATOM      1  C   UNL     1       0.537   9.566  21.316  0.00  0.00    +0.000 A 
ATOM      2  C   UNL     1       0.689  10.883  20.872  0.00  0.00    +0.000 A 
ATOM      3  C   UNL     1       0.017  11.931  21.502  0.00  0.00    +0.000 A 
ATOM      4  C   UNL     1      -0.834  11.677  22.578  0.00  0.00    +0.000 A 
ATOM      5  C   UNL     1      -0.965  10.373  23.055  0.00  0.00    +0.000 A 
ATOM      6  C   UNL     1      -0.291   9.320  22.421  0.00  0.00    +0.000 A 
ENDROOT
BRANCH   1  13
ATOM      7  N   UNL     1       3.350   4.786  19.209  0.00  0.00    +0.000 N 
ATOM      8  C   UNL     1       3.570   5.616  18.093  0.00  0.00    +0.000 A 
ATOM      9  O   UNL     1       4.217   5.261  17.106  0.00  0.00    +0.000 OA
ATOM     10  N   UNL     1       3.022   6.880  18.134  0.00  0.00    +0.000 N 
ATOM     11  C   UNL     1       2.336   7.311  19.220  0.00  0.00    +0.000 A 
ATOM     12  N   UNL     1       1.762   8.530  19.402  0.00  0.00    +0.000 NA
ATOM     13  C   UNL     1       1.255   8.489  20.630  0.00  0.00    +0.000 A 
ATOM     14  N   UNL     1       1.470   7.246  21.197  0.00  0.00    +0.000 N 
ATOM     15  C   UNL     1       2.163   6.502  20.291  0.00  0.00    +0.000 A 
ATOM     16  C   UNL     1       2.644   5.170  20.356  0.00  0.00    +0.000 A 
ATOM     17  O   UNL     1       2.444   4.450  21.332  0.00  0.00    +0.000 OA
ATOM     18  H   UNL     1       3.152   7.506  17.351  0.00  0.00    +0.000 HD
ATOM     19  H   UNL     1       1.155   6.938  22.103  0.00  0.00    +0.000 HD
BRANCH   7  20
ATOM     20  C   UNL     1       3.899   3.435  19.181  0.00  0.00    +0.000 C 
BRANCH  20  22
ATOM     21  C   UNL     1       2.433   2.189  17.554  0.00  0.00    +0.000 C 
ATOM     22  C   UNL     1       2.813   2.368  19.017  0.00  0.00    +0.000 C 
ENDBRANCH  20  22
ENDBRANCH   7  20
ENDBRANCH   1  13
BRANCH   4  23
ATOM     23  O   UNL     1      -1.568  12.635  23.223  0.00  0.00    +0.000 OA
BRANCH  23  24
ATOM     24  C   UNL     1      -1.470  13.942  22.647  0.00  0.00    +0.000 C 
BRANCH  24  25
ATOM     25  C   UNL     1      -2.435  14.116  21.481  0.00  0.00    +0.000 C 
ATOM     26  O   UNL     1      -2.066  14.537  20.389  0.00  0.00    +0.000 OA
ATOM     27  N   UNL     1      -3.733  13.758  21.762  0.00  0.00    +0.000 N 
ATOM     28  H   UNL     1      -3.908  13.365  22.683  0.00  0.00    +0.000 HD
BRANCH  27  29
ATOM     29  C   UNL     1      -4.778  13.772  20.767  0.00  0.00    +0.000 C 
BRANCH  29  30
ATOM     30  C   UNL     1      -5.080  12.381  20.211  0.00  0.00    +0.000 C 
BRANCH  30  31
ATOM     31  C   UNL     1      -5.093  12.360  18.681  0.00  0.00    +0.000 C 
BRANCH  31  32
ATOM     32  C   UNL     1      -3.973  11.531  18.104  0.00  0.00    +0.000 A 
ATOM     33  C   UNL     1      -2.755  11.411  18.786  0.00  0.00    +0.000 A 
ATOM     34  C   UNL     1      -1.727  10.620  18.266  0.00  0.00    +0.000 A 
ATOM     35  C   UNL     1      -1.905   9.953  17.056  0.00  0.00    +0.000 A 
ATOM     36  C   UNL     1      -3.105  10.084  16.359  0.00  0.00    +0.000 A 
ATOM     37  C   UNL     1      -4.134  10.870  16.880  0.00  0.00    +0.000 A 
ENDBRANCH  31  32
ENDBRANCH  30  31
ENDBRANCH  29  30
ENDBRANCH  27  29
ENDBRANCH  24  25
ENDBRANCH  23  24
ENDBRANCH   4  23
TORSDOF 10
ENDMDL
MODEL 7
REMARK VINA RESULT:      -7.8      3.417      4.962
REMARK  Name = 
REMARK  11 active torsions:
REMARK  status: ('A' for Active; 'I' for Inactive)
REMARK    1  A    between atoms: C_1  and  C_2
REMARK    2  A    between atoms: C_2  and  C_3
REMARK    3  A    between atoms: C_3  and  N_4
REMARK    4  A    between atoms: C_10  and  C_11
REMARK    5  A    between atoms: C_14  and  O_15
REMARK    6  A    between atoms: O_15  and  C_16
REMARK    7  A    between atoms: C_16  and  C_17
REMARK    8  A    between atoms: N_19  and  C_20
REMARK    9  A    between atoms: C_20  and  C_21
REMARK   10  A    between atoms: C_21  and  C_22
REMARK   11  A    between atoms: C_22  and  C_23
REMARK                            x       y       z     vdW  Elec       q    Type
REMARK                         _______ _______ _______ _____ _____    ______ ____
ROOT
ATOM      1  C   UNL     1       1.635   8.294  19.650  0.00  0.00    +0.000 A 
ATOM      2  C   UNL     1       1.926   7.145  20.391  0.00  0.00    +0.000 A 
ATOM      3  C   UNL     1       2.796   6.174  19.893  0.00  0.00    +0.000 A 
ATOM      4  C   UNL     1       3.377   6.328  18.634  0.00  0.00    +0.000 A 
ATOM      5  C   UNL     1       3.125   7.487  17.900  0.00  0.00    +0.000 A 
ATOM      6  C   UNL     1       2.251   8.461  18.400  0.00  0.00    +0.000 A 
ENDROOT
BRANCH   1  13
ATOM      7  N   UNL     1      -2.243  12.534  21.127  0.00  0.00    +0.000 N 
ATOM      8  C   UNL     1      -1.848  12.204  22.437  0.00  0.00    +0.000 A 
ATOM      9  O   UNL     1      -2.277  12.782  23.437  0.00  0.00    +0.000 OA
ATOM     10  N   UNL     1      -0.937  11.179  22.578  0.00  0.00    +0.000 N 
ATOM     11  C   UNL     1      -0.420  10.547  21.496  0.00  0.00    +0.000 A 
ATOM     12  N   UNL     1       0.492   9.540  21.488  0.00  0.00    +0.000 NA
ATOM     13  C   UNL     1       0.716   9.292  20.200  0.00  0.00    +0.000 A 
ATOM     14  N   UNL     1      -0.078  10.104  19.411  0.00  0.00    +0.000 N 
ATOM     15  C   UNL     1      -0.798  10.903  20.246  0.00  0.00    +0.000 A 
ATOM     16  C   UNL     1      -1.753  11.914  19.971  0.00  0.00    +0.000 A 
ATOM     17  O   UNL     1      -2.096  12.194  18.824  0.00  0.00    +0.000 OA
ATOM     18  H   UNL     1      -0.631  10.906  23.502  0.00  0.00    +0.000 HD
ATOM     19  H   UNL     1      -0.131  10.094  18.405  0.00  0.00    +0.000 HD
BRANCH   7  20
ATOM     20  C   UNL     1      -3.224  13.600  20.951  0.00  0.00    +0.000 C 
BRANCH  20  22
ATOM     21  C   UNL     1      -5.470  13.777  22.080  0.00  0.00    +0.000 C 
ATOM     22  C   UNL     1      -4.663  13.079  20.993  0.00  0.00    +0.000 C 
ENDBRANCH  20  22
ENDBRANCH   7  20
ENDBRANCH   1  13
BRANCH   4  23
ATOM     23  O   UNL     1       4.201   5.407  18.048  0.00  0.00    +0.000 OA
BRANCH  23  24
ATOM     24  C   UNL     1       5.218   4.889  18.913  0.00  0.00    +0.000 C 
BRANCH  24  25
ATOM     25  C   UNL     1       6.557   5.577  18.682  0.00  0.00    +0.000 C 
ATOM     26  O   UNL     1       7.568   5.257  19.299  0.00  0.00    +0.000 OA
ATOM     27  N   UNL     1       6.526   6.569  17.730  0.00  0.00    +0.000 N 
ATOM     28  H   UNL     1       5.645   6.705  17.241  0.00  0.00    +0.000 HD
BRANCH  27  29
ATOM     29  C   UNL     1       7.708   7.282  17.309  0.00  0.00    +0.000 C 
BRANCH  29  30
ATOM     30  C   UNL     1       8.243   8.224  18.388  0.00  0.00    +0.000 C 
BRANCH  30  31
ATOM     31  C   UNL     1       8.211   9.688  17.945  0.00  0.00    +0.000 C 
BRANCH  31  32
ATOM     32  C   UNL     1       9.282  10.518  18.609  0.00  0.00    +0.000 A 
ATOM     33  C   UNL     1      10.286  11.125  17.844  0.00  0.00    +0.000 A 
ATOM     34  C   UNL     1      11.261  11.916  18.455  0.00  0.00    +0.000 A 
ATOM     35  C   UNL     1      11.248  12.096  19.836  0.00  0.00    +0.000 A 
ATOM     36  C   UNL     1      10.267  11.477  20.609  0.00  0.00    +0.000 A 
ATOM     37  C   UNL     1       9.289  10.690  19.999  0.00  0.00    +0.000 A 
ENDBRANCH  31  32
ENDBRANCH  30  31
ENDBRANCH  29  30
ENDBRANCH  27  29
ENDBRANCH  24  25
ENDBRANCH  23  24
ENDBRANCH   4  23
TORSDOF 10
ENDMDL
MODEL 8
REMARK VINA RESULT:      -7.7      3.890      5.330
REMARK  Name = 
REMARK  11 active torsions:
REMARK  status: ('A' for Active; 'I' for Inactive)
REMARK    1  A    between atoms: C_1  and  C_2
REMARK    2  A    between atoms: C_2  and  C_3
REMARK    3  A    between atoms: C_3  and  N_4
REMARK    4  A    between atoms: C_10  and  C_11
REMARK    5  A    between atoms: C_14  and  O_15
REMARK    6  A    between atoms: O_15  and  C_16
REMARK    7  A    between atoms: C_16  and  C_17
REMARK    8  A    between atoms: N_19  and  C_20
REMARK    9  A    between atoms: C_20  and  C_21
REMARK   10  A    between atoms: C_21  and  C_22
REMARK   11  A    between atoms: C_22  and  C_23
REMARK                            x       y       z     vdW  Elec       q    Type
REMARK                         _______ _______ _______ _____ _____    ______ ____
ROOT
ATOM      1  C   UNL     1       2.236   7.894  18.998  0.00  0.00    +0.000 A 
ATOM      2  C   UNL     1       2.463   6.744  19.759  0.00  0.00    +0.000 A 
ATOM      3  C   UNL     1       3.360   5.766  19.325  0.00  0.00    +0.000 A 
ATOM      4  C   UNL     1       4.032   5.915  18.113  0.00  0.00    +0.000 A 
ATOM      5  C   UNL     1       3.844   7.075  17.362  0.00  0.00    +0.000 A 
ATOM      6  C   UNL     1       2.942   8.056  17.796  0.00  0.00    +0.000 A 
ENDROOT
BRANCH   1  13
ATOM      7  N   UNL     1      -1.429  11.711  21.682  0.00  0.00    +0.000 N 
ATOM      8  C   UNL     1      -1.782  12.040  20.360  0.00  0.00    +0.000 A 
ATOM      9  O   UNL     1      -2.649  12.870  20.080  0.00  0.00    +0.000 OA
ATOM     10  N   UNL     1      -1.108  11.388  19.349  0.00  0.00    +0.000 N 
ATOM     11  C   UNL     1      -0.176  10.444  19.625  0.00  0.00    +0.000 A 
ATOM     12  N   UNL     1       0.547   9.716  18.734  0.00  0.00    +0.000 NA
ATOM     13  C   UNL     1       1.286   8.899  19.480  0.00  0.00    +0.000 A 
ATOM     14  N   UNL     1       1.061   9.141  20.823  0.00  0.00    +0.000 N 
ATOM     15  C   UNL     1       0.126  10.128  20.906  0.00  0.00    +0.000 A 
ATOM     16  C   UNL     1      -0.469  10.752  22.031  0.00  0.00    +0.000 A 
ATOM     17  O   UNL     1      -0.152  10.462  23.183  0.00  0.00    +0.000 OA
ATOM     18  H   UNL     1      -1.328  11.599  18.385  0.00  0.00    +0.000 HD
ATOM     19  H   UNL     1       1.519   8.689  21.598  0.00  0.00    +0.000 HD
BRANCH   7  20
ATOM     20  C   UNL     1      -2.110  12.404  22.770  0.00  0.00    +0.000 C 
BRANCH  20  22
ATOM     21  C   UNL     1      -1.485  14.839  22.596  0.00  0.00    +0.000 C 
ATOM     22  C   UNL     1      -1.266  13.538  23.357  0.00  0.00    +0.000 C 
ENDBRANCH  20  22
ENDBRANCH   7  20
ENDBRANCH   1  13
BRANCH   4  23
ATOM     23  O   UNL     1       4.891   4.987  17.588  0.00  0.00    +0.000 OA
BRANCH  23  24
ATOM     24  C   UNL     1       6.230   5.072  18.088  0.00  0.00    +0.000 C 
BRANCH  24  25
ATOM     25  C   UNL     1       7.053   6.099  17.320  0.00  0.00    +0.000 C 
ATOM     26  O   UNL     1       7.346   5.945  16.139  0.00  0.00    +0.000 OA
ATOM     27  N   UNL     1       7.422   7.196  18.063  0.00  0.00    +0.000 N 
ATOM     28  H   UNL     1       7.069   7.243  19.015  0.00  0.00    +0.000 HD
BRANCH  27  29
ATOM     29  C   UNL     1       8.134   8.316  17.494  0.00  0.00    +0.000 C 
BRANCH  29  30
ATOM     30  C   UNL     1       8.558   9.340  18.547  0.00  0.00    +0.000 C 
BRANCH  30  31
ATOM     31  C   UNL     1       9.045  10.647  17.919  0.00  0.00    +0.000 C 
BRANCH  31  32
ATOM     32  C   UNL     1       9.438  11.675  18.952  0.00  0.00    +0.000 A 
ATOM     33  C   UNL     1       9.175  13.034  18.738  0.00  0.00    +0.000 A 
ATOM     34  C   UNL     1       9.513  13.982  19.707  0.00  0.00    +0.000 A 
ATOM     35  C   UNL     1      10.126  13.580  20.891  0.00  0.00    +0.000 A 
ATOM     36  C   UNL     1      10.412  12.232  21.104  0.00  0.00    +0.000 A 
ATOM     37  C   UNL     1      10.071  11.284  20.139  0.00  0.00    +0.000 A 
ENDBRANCH  31  32
ENDBRANCH  30  31
ENDBRANCH  29  30
ENDBRANCH  27  29
ENDBRANCH  24  25
ENDBRANCH  23  24
ENDBRANCH   4  23
TORSDOF 10
ENDMDL
MODEL 9
REMARK VINA RESULT:      -7.7      5.798      8.406
REMARK  Name = 
REMARK  11 active torsions:
REMARK  status: ('A' for Active; 'I' for Inactive)
REMARK    1  A    between atoms: C_1  and  C_2
REMARK    2  A    between atoms: C_2  and  C_3
REMARK    3  A    between atoms: C_3  and  N_4
REMARK    4  A    between atoms: C_10  and  C_11
REMARK    5  A    between atoms: C_14  and  O_15
REMARK    6  A    between atoms: O_15  and  C_16
REMARK    7  A    between atoms: C_16  and  C_17
REMARK    8  A    between atoms: N_19  and  C_20
REMARK    9  A    between atoms: C_20  and  C_21
REMARK   10  A    between atoms: C_21  and  C_22
REMARK   11  A    between atoms: C_22  and  C_23
REMARK                            x       y       z     vdW  Elec       q    Type
REMARK                         _______ _______ _______ _____ _____    ______ ____
ROOT
ATOM      1  C   UNL     1       8.124   8.342  18.275  0.00  0.00    +0.000 A 
ATOM      2  C   UNL     1       8.563   7.405  19.216  0.00  0.00    +0.000 A 
ATOM      3  C   UNL     1       8.104   6.088  19.180  0.00  0.00    +0.000 A 
ATOM      4  C   UNL     1       7.184   5.688  18.212  0.00  0.00    +0.000 A 
ATOM      5  C   UNL     1       6.767   6.602  17.244  0.00  0.00    +0.000 A 
ATOM      6  C   UNL     1       7.226   7.925  17.281  0.00  0.00    +0.000 A 
ENDROOT
BRANCH   1  13
ATOM      7  N   UNL     1      10.547  13.679  19.193  0.00  0.00    +0.000 N 
ATOM      8  C   UNL     1       9.729  14.050  18.110  0.00  0.00    +0.000 A 
ATOM      9  O   UNL     1       9.663  15.202  17.678  0.00  0.00    +0.000 OA
ATOM     10  N   UNL     1       8.978  13.055  17.522  0.00  0.00    +0.000 N 
ATOM     11  C   UNL     1       9.002  11.786  17.996  0.00  0.00    +0.000 A 
ATOM     12  N   UNL     1       8.303  10.718  17.528  0.00  0.00    +0.000 NA
ATOM     13  C   UNL     1       8.623   9.717  18.343  0.00  0.00    +0.000 A 
ATOM     14  N   UNL     1       9.543  10.141  19.285  0.00  0.00    +0.000 N 
ATOM     15  C   UNL     1       9.777  11.462  19.057  0.00  0.00    +0.000 A 
ATOM     16  C   UNL     1      10.622  12.385  19.724  0.00  0.00    +0.000 A 
ATOM     17  O   UNL     1      11.337  12.052  20.667  0.00  0.00    +0.000 OA
ATOM     18  H   UNL     1       8.381  13.278  16.737  0.00  0.00    +0.000 HD
ATOM     19  H   UNL     1       9.977   9.573  19.995  0.00  0.00    +0.000 HD
BRANCH   7  20
ATOM     20  C   UNL     1      11.371  14.708  19.819  0.00  0.00    +0.000 C 
BRANCH  20  22
ATOM     21  C   UNL     1      10.038  16.581  20.852  0.00  0.00    +0.000 C 
ATOM     22  C   UNL     1      10.743  15.255  21.104  0.00  0.00    +0.000 C 
ENDBRANCH  20  22
ENDBRANCH   7  20
ENDBRANCH   1  13
BRANCH   4  23
ATOM     23  O   UNL     1       6.646   4.433  18.132  0.00  0.00    +0.000 OA
BRANCH  23  24
ATOM     24  C   UNL     1       6.280   4.030  16.807  0.00  0.00    +0.000 C 
BRANCH  24  25
ATOM     25  C   UNL     1       4.845   3.522  16.750  0.00  0.00    +0.000 C 
ATOM     26  O   UNL     1       4.057   3.896  15.886  0.00  0.00    +0.000 OA
ATOM     27  N   UNL     1       4.526   2.617  17.735  0.00  0.00    +0.000 N 
ATOM     28  H   UNL     1       5.279   2.336  18.358  0.00  0.00    +0.000 HD
BRANCH  27  29
ATOM     29  C   UNL     1       3.243   1.959  17.801  0.00  0.00    +0.000 C 
BRANCH  29  30
ATOM     30  C   UNL     1       2.535   2.182  19.138  0.00  0.00    +0.000 C 
BRANCH  30  31
ATOM     31  C   UNL     1       1.314   3.095  19.000  0.00  0.00    +0.000 C 
BRANCH  31  32
ATOM     32  C   UNL     1       1.655   4.551  19.203  0.00  0.00    +0.000 A 
ATOM     33  C   UNL     1       1.571   5.128  20.476  0.00  0.00    +0.000 A 
ATOM     34  C   UNL     1       1.913   6.469  20.670  0.00  0.00    +0.000 A 
ATOM     35  C   UNL     1       2.330   7.245  19.590  0.00  0.00    +0.000 A 
ATOM     36  C   UNL     1       2.395   6.685  18.315  0.00  0.00    +0.000 A 
ATOM     37  C   UNL     1       2.058   5.345  18.122  0.00  0.00    +0.000 A 
ENDBRANCH  31  32
ENDBRANCH  30  31
ENDBRANCH  29  30
ENDBRANCH  27  29
ENDBRANCH  24  25
ENDBRANCH  23  24
ENDBRANCH   4  23
TORSDOF 10
ENDMDL
