MODEL 1
REMARK VINA RESULT:      -7.6      0.000      0.000
REMARK  Name = 
REMARK  11 active torsions:
REMARK  status: ('A' for Active; 'I' for Inactive)
REMARK    1  A    between atoms: C_1  and  N_2
REMARK    2  A    between atoms: N_2  and  C_3
REMARK    3  A    between atoms: C_3  and  C_4
REMARK    4  A    between atoms: C_9  and  N_10
REMARK    5  A    between atoms: N_10  and  S_11
REMARK    6  A    between atoms: S_11  and  C_14
REMARK    7  A    between atoms: N_25  and  C_26
REMARK    8  A    between atoms: C_26  and  C_27
REMARK    9  A    between atoms: C_26  and  C_28
REMARK   10  A    between atoms: C_28  and  O_29
REMARK   11  A    between atoms: C_31  and  C_32
REMARK                            x       y       z     vdW  Elec       q    Type
REMARK                         _______ _______ _______ _____ _____    ______ ____
ROOT
ATOM      1  C   UNL     1       4.405   5.447  17.114  0.00  0.00    +0.000 C 
ATOM      2  O   UNL     1       3.259   6.318  16.858  0.00  0.00    +0.000 OA
ATOM      3  C   UNL     1       2.582   6.737  17.972  0.00  0.00    +0.000 A 
ATOM      4  C   UNL     1       2.433   8.120  18.085  0.00  0.00    +0.000 A 
ATOM      5  C   UNL     1       2.080   8.689  19.313  0.00  0.00    +0.000 A 
ATOM      6  C   UNL     1       1.862   7.869  20.424  0.00  0.00    +0.000 A 
ATOM      7  C   UNL     1       1.899   6.485  20.292  0.00  0.00    +0.000 A 
ATOM      8  C   UNL     1       2.247   5.923  19.058  0.00  0.00    +0.000 A 
ATOM      9  C   UNL     1       2.333   4.462  19.014  0.00  0.00    +0.000 C 
ATOM     10  O   UNL     1       1.325   3.854  18.657  0.00  0.00    +0.000 OA
ATOM     11  N   UNL     1       3.489   3.855  19.512  0.00  0.00    +0.000 N 
ATOM     12  C   UNL     1       4.864   4.403  19.402  0.00  0.00    +0.000 C 
ATOM     13  C   UNL     1       5.070   5.663  18.528  0.00  0.00    +0.000 C 
ATOM     14  C   UNL     1       6.517   6.161  18.553  0.00  0.00    +0.000 C 
ENDROOT
BRANCH   6  15
ATOM     15  N   UNL     1       1.648   8.421  21.708  0.00  0.00    +0.000 N 
ATOM     16  H   UNL     1       2.281   8.201  22.474  0.00  0.00    +0.000 HD
BRANCH  15  17
ATOM     17  S   UNL     1       0.121   8.992  22.141  0.00  0.00    +0.000 S 
ATOM     18  O   UNL     1      -0.841   8.022  21.650  0.00  0.00    +0.000 OA
ATOM     19  O   UNL     1       0.139   9.418  23.519  0.00  0.00    +0.000 OA
BRANCH  17  20
ATOM     20  C   UNL     1      -0.053  10.440  21.118  0.00  0.00    +0.000 A 
ATOM     21  C   UNL     1      -0.928  10.399  20.024  0.00  0.00    +0.000 A 
ATOM     22  C   UNL     1      -0.982  11.484  19.151  0.00  0.00    +0.000 A 
ATOM     23  C   UNL     1      -0.188  12.605  19.383  0.00  0.00    +0.000 A 
ATOM     24 CL   UNL     1      -0.216  13.917  18.272  0.00  0.00    +0.000 Cl
ATOM     25  C   UNL     1       0.643  12.664  20.505  0.00  0.00    +0.000 A 
ATOM     26  C   UNL     1       0.713  11.582  21.381  0.00  0.00    +0.000 A 
ENDBRANCH  17  20
ENDBRANCH  15  17
ENDBRANCH   6  15
BRANCH  11  27
ATOM     27  C   UNL     1       3.336   2.540  20.174  0.00  0.00    +0.000 C 
ATOM     28  C   UNL     1       2.747   2.645  21.581  0.00  0.00    +0.000 C 
BRANCH  27  29
ATOM     29  C   UNL     1       4.663   1.737  20.200  0.00  0.00    +0.000 C 
BRANCH  29  30
ATOM     30  O   UNL     1       5.132   1.521  21.532  0.00  0.00    +0.000 OA
ATOM     31  H   UNL     1       6.098   1.418  21.504  0.00  0.00    +0.000 HD
ENDBRANCH  29  30
ENDBRANCH  27  29
ENDBRANCH  11  27
BRANCH   1  32
ATOM     32  C   UNL     1       5.342   5.603  15.888  0.00  0.00    +0.000 C 
BRANCH  32  34
ATOM     33  C   UNL     1       6.752   4.581  14.170  0.00  0.00    +0.000 C 
ATOM     34  N   UNL     1       5.936   4.372  15.354  0.00  0.00    +0.000 NA
ATOM     35  H   UNL     1       6.495   3.925  16.081  0.00  0.00    +0.000 HD
ENDBRANCH  32  34
ENDBRANCH   1  32
TORSDOF 8
ENDMDL
MODEL 2
REMARK VINA RESULT:      -7.5      0.658      1.082
REMARK  Name = 
REMARK  11 active torsions:
REMARK  status: ('A' for Active; 'I' for Inactive)
REMARK    1  A    between atoms: C_1  and  N_2
REMARK    2  A    between atoms: N_2  and  C_3
REMARK    3  A    between atoms: C_3  and  C_4
REMARK    4  A    between atoms: C_9  and  N_10
REMARK    5  A    between atoms: N_10  and  S_11
REMARK    6  A    between atoms: S_11  and  C_14
REMARK    7  A    between atoms: N_25  and  C_26
REMARK    8  A    between atoms: C_26  and  C_27
REMARK    9  A    between atoms: C_26  and  C_28
REMARK   10  A    between atoms: C_28  and  O_29
REMARK   11  A    between atoms: C_31  and  C_32
REMARK                            x       y       z     vdW  Elec       q    Type
REMARK                         _______ _______ _______ _____ _____    ______ ____
ROOT
ATOM      1  C   UNL     1       4.777   5.288  17.230  0.00  0.00    +0.000 C 
ATOM      2  O   UNL     1       3.697   6.203  16.869  0.00  0.00    +0.000 OA
ATOM      3  C   UNL     1       2.909   6.619  17.909  0.00  0.00    +0.000 A 
ATOM      4  C   UNL     1       2.791   8.003  18.041  0.00  0.00    +0.000 A 
ATOM      5  C   UNL     1       2.316   8.555  19.234  0.00  0.00    +0.000 A 
ATOM      6  C   UNL     1       1.945   7.717  20.290  0.00  0.00    +0.000 A 
ATOM      7  C   UNL     1       1.954   6.336  20.126  0.00  0.00    +0.000 A 
ATOM      8  C   UNL     1       2.426   5.792  18.926  0.00  0.00    +0.000 A 
ATOM      9  C   UNL     1       2.470   4.331  18.853  0.00  0.00    +0.000 C 
ATOM     10  O   UNL     1       1.492   3.765  18.366  0.00  0.00    +0.000 OA
ATOM     11  N   UNL     1       3.542   3.672  19.464  0.00  0.00    +0.000 N 
ATOM     12  C   UNL     1       4.936   4.176  19.528  0.00  0.00    +0.000 C 
ATOM     13  C   UNL     1       5.281   5.448  18.717  0.00  0.00    +0.000 C 
ATOM     14  C   UNL     1       6.731   5.896  18.922  0.00  0.00    +0.000 C 
ENDROOT
BRANCH   6  15
ATOM     15  N   UNL     1       1.601   8.246  21.557  0.00  0.00    +0.000 N 
ATOM     16  H   UNL     1       2.137   7.990  22.383  0.00  0.00    +0.000 HD
BRANCH  15  17
ATOM     17  S   UNL     1       0.051   8.853  21.828  0.00  0.00    +0.000 S 
ATOM     18  O   UNL     1      -0.878   7.884  21.276  0.00  0.00    +0.000 OA
ATOM     19  O   UNL     1      -0.053   9.319  23.189  0.00  0.00    +0.000 OA
BRANCH  17  20
ATOM     20  C   UNL     1      -0.001  10.273  20.753  0.00  0.00    +0.000 A 
ATOM     21  C   UNL     1       0.781  11.392  21.067  0.00  0.00    +0.000 A 
ATOM     22  C   UNL     1       0.658  12.549  20.300  0.00  0.00    +0.000 A 
ATOM     23  C   UNL     1      -0.218  12.577  19.217  0.00  0.00    +0.000 A 
ATOM     24 CL   UNL     1      -0.407  14.024  18.308  0.00  0.00    +0.000 Cl
ATOM     25  C   UNL     1      -0.955  11.441  18.873  0.00  0.00    +0.000 A 
ATOM     26  C   UNL     1      -0.848  10.280  19.638  0.00  0.00    +0.000 A 
ENDBRANCH  17  20
ENDBRANCH  15  17
ENDBRANCH   6  15
BRANCH  11  27
ATOM     27  C   UNL     1       3.272   2.349  20.068  0.00  0.00    +0.000 C 
ATOM     28  C   UNL     1       2.773   2.441  21.511  0.00  0.00    +0.000 C 
BRANCH  27  29
ATOM     29  C   UNL     1       4.497   1.401  19.978  0.00  0.00    +0.000 C 
BRANCH  29  30
ATOM     30  O   UNL     1       4.469   0.602  18.794  0.00  0.00    +0.000 OA
ATOM     31  H   UNL     1       4.390  -0.331  19.056  0.00  0.00    +0.000 HD
ENDBRANCH  29  30
ENDBRANCH  27  29
ENDBRANCH  11  27
BRANCH   1  32
ATOM     32  C   UNL     1       5.855   5.440  16.125  0.00  0.00    +0.000 C 
BRANCH  32  34
ATOM     33  C   UNL     1       6.227   4.028  14.163  0.00  0.00    +0.000 C 
ATOM     34  N   UNL     1       5.447   5.100  14.758  0.00  0.00    +0.000 NA
ATOM     35  H   UNL     1       4.458   4.848  14.754  0.00  0.00    +0.000 HD
ENDBRANCH  32  34
ENDBRANCH   1  32
TORSDOF 8
ENDMDL
MODEL 3
REMARK VINA RESULT:      -7.4      2.176      2.539
REMARK  Name = 
REMARK  11 active torsions:
REMARK  status: ('A' for Active; 'I' for Inactive)
REMARK    1  A    between atoms: C_1  and  N_2
REMARK    2  A    between atoms: N_2  and  C_3
REMARK    3  A    between atoms: C_3  and  C_4
REMARK    4  A    between atoms: C_9  and  N_10
REMARK    5  A    between atoms: N_10  and  S_11
REMARK    6  A    between atoms: S_11  and  C_14
REMARK    7  A    between atoms: N_25  and  C_26
REMARK    8  A    between atoms: C_26  and  C_27
REMARK    9  A    between atoms: C_26  and  C_28
REMARK   10  A    between atoms: C_28  and  O_29
REMARK   11  A    between atoms: C_31  and  C_32
REMARK                            x       y       z     vdW  Elec       q    Type
REMARK                         _______ _______ _______ _____ _____    ______ ____
ROOT
ATOM      1  C   UNL     1       5.922   4.698  17.304  0.00  0.00    +0.000 C 
ATOM      2  O   UNL     1       5.085   5.445  16.367  0.00  0.00    +0.000 OA
ATOM      3  C   UNL     1       4.039   6.126  16.931  0.00  0.00    +0.000 A 
ATOM      4  C   UNL     1       3.987   7.486  16.625  0.00  0.00    +0.000 A 
ATOM      5  C   UNL     1       3.198   8.347  17.392  0.00  0.00    +0.000 A 
ATOM      6  C   UNL     1       2.448   7.842  18.458  0.00  0.00    +0.000 A 
ATOM      7  C   UNL     1       2.406   6.473  18.699  0.00  0.00    +0.000 A 
ATOM      8  C   UNL     1       3.195   5.616  17.923  0.00  0.00    +0.000 A 
ATOM      9  C   UNL     1       3.152   4.197  18.280  0.00  0.00    +0.000 C 
ATOM     10  O   UNL     1       2.342   3.494  17.678  0.00  0.00    +0.000 OA
ATOM     11  N   UNL     1       3.920   3.768  19.366  0.00  0.00    +0.000 N 
ATOM     12  C   UNL     1       5.254   4.300  19.740  0.00  0.00    +0.000 C 
ATOM     13  C   UNL     1       5.934   5.291  18.766  0.00  0.00    +0.000 C 
ATOM     14  C   UNL     1       7.271   5.812  19.300  0.00  0.00    +0.000 C 
ENDROOT
BRANCH   6  15
ATOM     15  N   UNL     1       1.757   8.706  19.340  0.00  0.00    +0.000 N 
ATOM     16  H   UNL     1       1.478   8.381  20.263  0.00  0.00    +0.000 HD
BRANCH  15  17
ATOM     17  S   UNL     1       0.931  10.047  18.737  0.00  0.00    +0.000 S 
ATOM     18  O   UNL     1       1.933  11.053  18.436  0.00  0.00    +0.000 OA
ATOM     19  O   UNL     1      -0.036   9.616  17.757  0.00  0.00    +0.000 OA
BRANCH  17  20
ATOM     20  C   UNL     1       0.044  10.628  20.169  0.00  0.00    +0.000 A 
ATOM     21  C   UNL     1       0.169   9.929  21.376  0.00  0.00    +0.000 A 
ATOM     22  C   UNL     1      -0.611  10.305  22.468  0.00  0.00    +0.000 A 
ATOM     23  C   UNL     1      -1.486  11.384  22.360  0.00  0.00    +0.000 A 
ATOM     24 CL   UNL     1      -2.487  11.809  23.692  0.00  0.00    +0.000 Cl
ATOM     25  C   UNL     1      -1.568  12.113  21.171  0.00  0.00    +0.000 A 
ATOM     26  C   UNL     1      -0.799  11.741  20.069  0.00  0.00    +0.000 A 
ENDBRANCH  17  20
ENDBRANCH  15  17
ENDBRANCH   6  15
BRANCH  11  27
ATOM     27  C   UNL     1       3.374   2.669  20.193  0.00  0.00    +0.000 C 
ATOM     28  C   UNL     1       2.404   3.157  21.270  0.00  0.00    +0.000 C 
BRANCH  27  29
ATOM     29  C   UNL     1       4.491   1.798  20.825  0.00  0.00    +0.000 C 
BRANCH  29  30
ATOM     30  O   UNL     1       5.150   0.984  19.854  0.00  0.00    +0.000 OA
ATOM     31  H   UNL     1       6.090   1.229  19.834  0.00  0.00    +0.000 HD
ENDBRANCH  29  30
ENDBRANCH  27  29
ENDBRANCH  11  27
BRANCH   1  32
ATOM     32  C   UNL     1       7.304   4.549  16.617  0.00  0.00    +0.000 C 
BRANCH  32  34
ATOM     33  C   UNL     1       7.106   4.731  14.186  0.00  0.00    +0.000 C 
ATOM     34  N   UNL     1       7.535   5.365  15.420  0.00  0.00    +0.000 NA
ATOM     35  H   UNL     1       7.062   6.263  15.528  0.00  0.00    +0.000 HD
ENDBRANCH  32  34
ENDBRANCH   1  32
TORSDOF 8
ENDMDL
MODEL 4
REMARK VINA RESULT:      -7.4      2.593      4.618
REMARK  Name = 
REMARK  11 active torsions:
REMARK  status: ('A' for Active; 'I' for Inactive)
REMARK    1  A    between atoms: C_1  and  N_2
REMARK    2  A    between atoms: N_2  and  C_3
REMARK    3  A    between atoms: C_3  and  C_4
REMARK    4  A    between atoms: C_9  and  N_10
REMARK    5  A    between atoms: N_10  and  S_11
REMARK    6  A    between atoms: S_11  and  C_14
REMARK    7  A    between atoms: N_25  and  C_26
REMARK    8  A    between atoms: C_26  and  C_27
REMARK    9  A    between atoms: C_26  and  C_28
REMARK   10  A    between atoms: C_28  and  O_29
REMARK   11  A    between atoms: C_31  and  C_32
REMARK                            x       y       z     vdW  Elec       q    Type
REMARK                         _______ _______ _______ _____ _____    ______ ____
ROOT
ATOM      1  C   UNL     1       3.784   3.596  19.307  0.00  0.00    +0.000 C 
ATOM      2  O   UNL     1       3.733   4.664  20.302  0.00  0.00    +0.000 OA
ATOM      3  C   UNL     1       3.412   5.903  19.815  0.00  0.00    +0.000 A 
ATOM      4  C   UNL     1       2.334   6.523  20.447  0.00  0.00    +0.000 A 
ATOM      5  C   UNL     1       1.695   7.607  19.839  0.00  0.00    +0.000 A 
ATOM      6  C   UNL     1       2.147   8.080  18.603  0.00  0.00    +0.000 A 
ATOM      7  C   UNL     1       3.290   7.540  18.023  0.00  0.00    +0.000 A 
ATOM      8  C   UNL     1       3.927   6.458  18.641  0.00  0.00    +0.000 A 
ATOM      9  C   UNL     1       5.082   5.899  17.935  0.00  0.00    +0.000 C 
ATOM     10  O   UNL     1       6.190   6.332  18.247  0.00  0.00    +0.000 OA
ATOM     11  N   UNL     1       4.843   5.029  16.868  0.00  0.00    +0.000 N 
ATOM     12  C   UNL     1       3.733   4.047  16.790  0.00  0.00    +0.000 C 
ATOM     13  C   UNL     1       2.861   3.844  18.052  0.00  0.00    +0.000 C 
ATOM     14  C   UNL     1       1.715   2.856  17.818  0.00  0.00    +0.000 C 
ENDROOT
BRANCH   6  15
ATOM     15  N   UNL     1       1.435   9.077  17.897  0.00  0.00    +0.000 N 
ATOM     16  H   UNL     1       1.426   9.078  16.879  0.00  0.00    +0.000 HD
BRANCH  15  17
ATOM     17  S   UNL     1       1.048  10.536  18.650  0.00  0.00    +0.000 S 
ATOM     18  O   UNL     1       1.128  10.301  20.079  0.00  0.00    +0.000 OA
ATOM     19  O   UNL     1       1.766  11.612  18.012  0.00  0.00    +0.000 OA
BRANCH  17  20
ATOM     20  C   UNL     1      -0.681  10.722  18.263  0.00  0.00    +0.000 A 
ATOM     21  C   UNL     1      -1.406  11.755  18.871  0.00  0.00    +0.000 A 
ATOM     22  C   UNL     1      -2.783  11.836  18.666  0.00  0.00    +0.000 A 
ATOM     23  C   UNL     1      -3.421  10.909  17.844  0.00  0.00    +0.000 A 
ATOM     24 CL   UNL     1      -5.127  10.980  17.641  0.00  0.00    +0.000 Cl
ATOM     25  C   UNL     1      -2.686   9.913  17.197  0.00  0.00    +0.000 A 
ATOM     26  C   UNL     1      -1.309   9.816  17.400  0.00  0.00    +0.000 A 
ENDBRANCH  17  20
ENDBRANCH  15  17
ENDBRANCH   6  15
BRANCH  11  27
ATOM     27  C   UNL     1       5.795   5.064  15.735  0.00  0.00    +0.000 C 
ATOM     28  C   UNL     1       5.117   4.875  14.378  0.00  0.00    +0.000 C 
BRANCH  27  29
ATOM     29  C   UNL     1       6.953   4.047  15.908  0.00  0.00    +0.000 C 
BRANCH  29  30
ATOM     30  O   UNL     1       7.977   4.542  16.773  0.00  0.00    +0.000 OA
ATOM     31  H   UNL     1       8.801   4.067  16.576  0.00  0.00    +0.000 HD
ENDBRANCH  29  30
ENDBRANCH  27  29
ENDBRANCH  11  27
BRANCH   1  32
ATOM     32  C   UNL     1       3.538   2.275  20.083  0.00  0.00    +0.000 C 
BRANCH  32  34
ATOM     33  C   UNL     1       1.638   2.504  21.605  0.00  0.00    +0.000 C 
ATOM     34  N   UNL     1       3.081   2.404  21.471  0.00  0.00    +0.000 NA
ATOM     35  H   UNL     1       3.421   1.609  22.013  0.00  0.00    +0.000 HD
ENDBRANCH  32  34
ENDBRANCH   1  32
TORSDOF 8
ENDMDL
MODEL 5
REMARK VINA RESULT:      -7.3      0.890      1.374
REMARK  Name = 
REMARK  11 active torsions:
REMARK  status: ('A' for Active; 'I' for Inactive)
REMARK    1  A    between atoms: C_1  and  N_2
REMARK    2  A    between atoms: N_2  and  C_3
REMARK    3  A    between atoms: C_3  and  C_4
REMARK    4  A    between atoms: C_9  and  N_10
REMARK    5  A    between atoms: N_10  and  S_11
REMARK    6  A    between atoms: S_11  and  C_14
REMARK    7  A    between atoms: N_25  and  C_26
REMARK    8  A    between atoms: C_26  and  C_27
REMARK    9  A    between atoms: C_26  and  C_28
REMARK   10  A    between atoms: C_28  and  O_29
REMARK   11  A    between atoms: C_31  and  C_32
REMARK                            x       y       z     vdW  Elec       q    Type
REMARK                         _______ _______ _______ _____ _____    ______ ____
ROOT
ATOM      1  C   UNL     1       4.416   5.295  17.246  0.00  0.00    +0.000 C 
ATOM      2  O   UNL     1       3.348   6.246  16.948  0.00  0.00    +0.000 OA
ATOM      3  C   UNL     1       2.659   6.712  18.036  0.00  0.00    +0.000 A 
ATOM      4  C   UNL     1       2.605   8.101  18.148  0.00  0.00    +0.000 A 
ATOM      5  C   UNL     1       2.244   8.692  19.363  0.00  0.00    +0.000 A 
ATOM      6  C   UNL     1       1.923   7.889  20.460  0.00  0.00    +0.000 A 
ATOM      7  C   UNL     1       1.865   6.506  20.324  0.00  0.00    +0.000 A 
ATOM      8  C   UNL     1       2.222   5.922  19.103  0.00  0.00    +0.000 A 
ATOM      9  C   UNL     1       2.203   4.459  19.056  0.00  0.00    +0.000 C 
ATOM     10  O   UNL     1       1.170   3.926  18.656  0.00  0.00    +0.000 OA
ATOM     11  N   UNL     1       3.291   3.769  19.598  0.00  0.00    +0.000 N 
ATOM     12  C   UNL     1       4.705   4.216  19.547  0.00  0.00    +0.000 C 
ATOM     13  C   UNL     1       5.038   5.459  18.687  0.00  0.00    +0.000 C 
ATOM     14  C   UNL     1       6.515   5.852  18.772  0.00  0.00    +0.000 C 
ENDROOT
BRANCH   6  15
ATOM     15  N   UNL     1       1.697   8.453  21.738  0.00  0.00    +0.000 N 
ATOM     16  H   UNL     1       2.276   8.181  22.529  0.00  0.00    +0.000 HD
BRANCH  15  17
ATOM     17  S   UNL     1       0.202   9.142  22.106  0.00  0.00    +0.000 S 
ATOM     18  O   UNL     1      -0.810   8.180  21.711  0.00  0.00    +0.000 OA
ATOM     19  O   UNL     1       0.244   9.701  23.436  0.00  0.00    +0.000 OA
BRANCH  17  20
ATOM     20  C   UNL     1       0.102  10.489  20.945  0.00  0.00    +0.000 A 
ATOM     21  C   UNL     1       0.958  11.587  21.101  0.00  0.00    +0.000 A 
ATOM     22  C   UNL     1       0.807  12.695  20.269  0.00  0.00    +0.000 A 
ATOM     23  C   UNL     1      -0.172  12.695  19.278  0.00  0.00    +0.000 A 
ATOM     24 CL   UNL     1      -0.391  14.087  18.293  0.00  0.00    +0.000 Cl
ATOM     25  C   UNL     1      -0.988  11.576  19.090  0.00  0.00    +0.000 A 
ATOM     26  C   UNL     1      -0.853  10.464  19.921  0.00  0.00    +0.000 A 
ENDBRANCH  17  20
ENDBRANCH  15  17
ENDBRANCH   6  15
BRANCH  11  27
ATOM     27  C   UNL     1       3.017   2.468  20.247  0.00  0.00    +0.000 C 
ATOM     28  C   UNL     1       2.281   1.487  19.333  0.00  0.00    +0.000 C 
BRANCH  27  29
ATOM     29  C   UNL     1       2.257   2.630  21.590  0.00  0.00    +0.000 C 
BRANCH  29  30
ATOM     30  O   UNL     1       0.850   2.779  21.395  0.00  0.00    +0.000 OA
ATOM     31  H   UNL     1       0.393   2.111  21.934  0.00  0.00    +0.000 HD
ENDBRANCH  29  30
ENDBRANCH  27  29
ENDBRANCH  11  27
BRANCH   1  32
ATOM     32  C   UNL     1       5.412   5.384  16.060  0.00  0.00    +0.000 C 
BRANCH  32  34
ATOM     33  C   UNL     1       6.228   4.100  14.144  0.00  0.00    +0.000 C 
ATOM     34  N   UNL     1       5.972   4.117  15.574  0.00  0.00    +0.000 NA
ATOM     35  H   UNL     1       6.834   3.914  16.080  0.00  0.00    +0.000 HD
ENDBRANCH  32  34
ENDBRANCH   1  32
TORSDOF 8
ENDMDL
MODEL 6
REMARK VINA RESULT:      -7.3      2.577      4.450
REMARK  Name = 
REMARK  11 active torsions:
REMARK  status: ('A' for Active; 'I' for Inactive)
REMARK    1  A    between atoms: C_1  and  N_2
REMARK    2  A    between atoms: N_2  and  C_3
REMARK    3  A    between atoms: C_3  and  C_4
REMARK    4  A    between atoms: C_9  and  N_10
REMARK    5  A    between atoms: N_10  and  S_11
REMARK    6  A    between atoms: S_11  and  C_14
REMARK    7  A    between atoms: N_25  and  C_26
REMARK    8  A    between atoms: C_26  and  C_27
REMARK    9  A    between atoms: C_26  and  C_28
REMARK   10  A    between atoms: C_28  and  O_29
REMARK   11  A    between atoms: C_31  and  C_32
REMARK                            x       y       z     vdW  Elec       q    Type
REMARK                         _______ _______ _______ _____ _____    ______ ____
ROOT
ATOM      1  C   UNL     1       4.148   3.472  18.952  0.00  0.00    +0.000 C 
ATOM      2  O   UNL     1       4.067   4.479  20.008  0.00  0.00    +0.000 OA
ATOM      3  C   UNL     1       3.646   5.718  19.605  0.00  0.00    +0.000 A 
ATOM      4  C   UNL     1       2.555   6.228  20.310  0.00  0.00    +0.000 A 
ATOM      5  C   UNL     1       1.823   7.298  19.788  0.00  0.00    +0.000 A 
ATOM      6  C   UNL     1       2.194   7.867  18.566  0.00  0.00    +0.000 A 
ATOM      7  C   UNL     1       3.346   7.439  17.915  0.00  0.00    +0.000 A 
ATOM      8  C   UNL     1       4.076   6.371  18.446  0.00  0.00    +0.000 A 
ATOM      9  C   UNL     1       5.236   5.930  17.669  0.00  0.00    +0.000 C 
ATOM     10  O   UNL     1       6.326   6.420  17.964  0.00  0.00    +0.000 OA
ATOM     11  N   UNL     1       5.013   5.105  16.562  0.00  0.00    +0.000 N 
ATOM     12  C   UNL     1       3.967   4.056  16.469  0.00  0.00    +0.000 C 
ATOM     13  C   UNL     1       3.161   3.726  17.748  0.00  0.00    +0.000 C 
ATOM     14  C   UNL     1       2.074   2.678  17.499  0.00  0.00    +0.000 C 
ENDROOT
BRANCH   6  15
ATOM     15  N   UNL     1       1.390   8.851  17.944  0.00  0.00    +0.000 N 
ATOM     16  H   UNL     1       1.285   8.863  16.932  0.00  0.00    +0.000 HD
BRANCH  15  17
ATOM     17  S   UNL     1       1.037  10.290  18.750  0.00  0.00    +0.000 S 
ATOM     18  O   UNL     1       1.094   9.997  20.170  0.00  0.00    +0.000 OA
ATOM     19  O   UNL     1       1.792  11.369  18.162  0.00  0.00    +0.000 OA
BRANCH  17  20
ATOM     20  C   UNL     1      -0.682  10.540  18.354  0.00  0.00    +0.000 A 
ATOM     21  C   UNL     1      -1.264   9.775  17.335  0.00  0.00    +0.000 A 
ATOM     22  C   UNL     1      -2.572  10.045  16.938  0.00  0.00    +0.000 A 
ATOM     23  C   UNL     1      -3.298  11.053  17.571  0.00  0.00    +0.000 A 
ATOM     24 CL   UNL     1      -4.892  11.420  17.040  0.00  0.00    +0.000 Cl
ATOM     25  C   UNL     1      -2.733  11.777  18.624  0.00  0.00    +0.000 A 
ATOM     26  C   UNL     1      -1.422  11.522  19.024  0.00  0.00    +0.000 A 
ENDBRANCH  17  20
ENDBRANCH  15  17
ENDBRANCH   6  15
BRANCH  11  27
ATOM     27  C   UNL     1       5.915   5.267  15.400  0.00  0.00    +0.000 C 
ATOM     28  C   UNL     1       5.599   4.299  14.260  0.00  0.00    +0.000 C 
BRANCH  27  29
ATOM     29  C   UNL     1       7.411   5.166  15.798  0.00  0.00    +0.000 C 
BRANCH  29  30
ATOM     30  O   UNL     1       7.677   4.005  16.588  0.00  0.00    +0.000 OA
ATOM     31  H   UNL     1       6.983   3.928  17.263  0.00  0.00    +0.000 HD
ENDBRANCH  29  30
ENDBRANCH  27  29
ENDBRANCH  11  27
BRANCH   1  32
ATOM     32  C   UNL     1       4.020   2.098  19.660  0.00  0.00    +0.000 C 
BRANCH  32  34
ATOM     33  C   UNL     1       5.356   1.091  21.445  0.00  0.00    +0.000 C 
ATOM     34  N   UNL     1       5.273   1.433  20.035  0.00  0.00    +0.000 NA
ATOM     35  H   UNL     1       5.390   0.591  19.471  0.00  0.00    +0.000 HD
ENDBRANCH  32  34
ENDBRANCH   1  32
TORSDOF 8
ENDMDL
MODEL 7
REMARK VINA RESULT:      -7.2      1.977      2.282
REMARK  Name = 
REMARK  11 active torsions:
REMARK  status: ('A' for Active; 'I' for Inactive)
REMARK    1  A    between atoms: C_1  and  N_2
REMARK    2  A    between atoms: N_2  and  C_3
REMARK    3  A    between atoms: C_3  and  C_4
REMARK    4  A    between atoms: C_9  and  N_10
REMARK    5  A    between atoms: N_10  and  S_11
REMARK    6  A    between atoms: S_11  and  C_14
REMARK    7  A    between atoms: N_25  and  C_26
REMARK    8  A    between atoms: C_26  and  C_27
REMARK    9  A    between atoms: C_26  and  C_28
REMARK   10  A    between atoms: C_28  and  O_29
REMARK   11  A    between atoms: C_31  and  C_32
REMARK                            x       y       z     vdW  Elec       q    Type
REMARK                         _______ _______ _______ _____ _____    ______ ____
ROOT
ATOM      1  C   UNL     1       5.445   4.744  17.301  0.00  0.00    +0.000 C 
ATOM      2  O   UNL     1       4.727   5.690  16.449  0.00  0.00    +0.000 OA
ATOM      3  C   UNL     1       3.725   6.390  17.067  0.00  0.00    +0.000 A 
ATOM      4  C   UNL     1       3.817   7.777  16.949  0.00  0.00    +0.000 A 
ATOM      5  C   UNL     1       3.078   8.603  17.801  0.00  0.00    +0.000 A 
ATOM      6  C   UNL     1       2.235   8.037  18.762  0.00  0.00    +0.000 A 
ATOM      7  C   UNL     1       2.053   6.659  18.811  0.00  0.00    +0.000 A 
ATOM      8  C   UNL     1       2.792   5.840  17.950  0.00  0.00    +0.000 A 
ATOM      9  C   UNL     1       2.598   4.397  18.106  0.00  0.00    +0.000 C 
ATOM     10  O   UNL     1       1.754   3.865  17.387  0.00  0.00    +0.000 OA
ATOM     11  N   UNL     1       3.271   3.751  19.148  0.00  0.00    +0.000 N 
ATOM     12  C   UNL     1       4.631   4.092  19.635  0.00  0.00    +0.000 C 
ATOM     13  C   UNL     1       5.446   5.132  18.830  0.00  0.00    +0.000 C 
ATOM     14  C   UNL     1       6.800   5.440  19.475  0.00  0.00    +0.000 C 
ENDROOT
BRANCH   6  15
ATOM     15  N   UNL     1       1.589   8.840  19.731  0.00  0.00    +0.000 N 
ATOM     16  H   UNL     1       1.579   8.557  20.709  0.00  0.00    +0.000 HD
BRANCH  15  17
ATOM     17  S   UNL     1       0.407   9.948  19.262  0.00  0.00    +0.000 S 
ATOM     18  O   UNL     1       0.147   9.709  17.854  0.00  0.00    +0.000 OA
ATOM     19  O   UNL     1      -0.652   9.966  20.241  0.00  0.00    +0.000 OA
BRANCH  17  20
ATOM     20  C   UNL     1       1.275  11.501  19.360  0.00  0.00    +0.000 A 
ATOM     21  C   UNL     1       1.953  11.974  18.229  0.00  0.00    +0.000 A 
ATOM     22  C   UNL     1       2.731  13.126  18.330  0.00  0.00    +0.000 A 
ATOM     23  C   UNL     1       2.809  13.809  19.541  0.00  0.00    +0.000 A 
ATOM     24 CL   UNL     1       3.815  15.197  19.675  0.00  0.00    +0.000 Cl
ATOM     25  C   UNL     1       2.089  13.365  20.653  0.00  0.00    +0.000 A 
ATOM     26  C   UNL     1       1.313  12.209  20.567  0.00  0.00    +0.000 A 
ENDBRANCH  17  20
ENDBRANCH  15  17
ENDBRANCH   6  15
BRANCH  11  27
ATOM     27  C   UNL     1       2.585   2.612  19.797  0.00  0.00    +0.000 C 
ATOM     28  C   UNL     1       2.598   2.698  21.324  0.00  0.00    +0.000 C 
BRANCH  27  29
ATOM     29  C   UNL     1       3.146   1.244  19.328  0.00  0.00    +0.000 C 
BRANCH  29  30
ATOM     30  O   UNL     1       3.453   1.241  17.933  0.00  0.00    +0.000 OA
ATOM     31  H   UNL     1       3.956   0.434  17.731  0.00  0.00    +0.000 HD
ENDBRANCH  29  30
ENDBRANCH  27  29
ENDBRANCH  11  27
BRANCH   1  32
ATOM     32  C   UNL     1       6.838   4.551  16.646  0.00  0.00    +0.000 C 
BRANCH  32  34
ATOM     33  C   UNL     1       7.215   4.843  14.247  0.00  0.00    +0.000 C 
ATOM     34  N   UNL     1       7.186   5.470  15.557  0.00  0.00    +0.000 NA
ATOM     35  H   UNL     1       6.527   6.249  15.550  0.00  0.00    +0.000 HD
ENDBRANCH  32  34
ENDBRANCH   1  32
TORSDOF 8
ENDMDL
MODEL 8
REMARK VINA RESULT:      -7.2      2.348      2.719
REMARK  Name = 
REMARK  11 active torsions:
REMARK  status: ('A' for Active; 'I' for Inactive)
REMARK    1  A    between atoms: C_1  and  N_2
REMARK    2  A    between atoms: N_2  and  C_3
REMARK    3  A    between atoms: C_3  and  C_4
REMARK    4  A    between atoms: C_9  and  N_10
REMARK    5  A    between atoms: N_10  and  S_11
REMARK    6  A    between atoms: S_11  and  C_14
REMARK    7  A    between atoms: N_25  and  C_26
REMARK    8  A    between atoms: C_26  and  C_27
REMARK    9  A    between atoms: C_26  and  C_28
REMARK   10  A    between atoms: C_28  and  O_29
REMARK   11  A    between atoms: C_31  and  C_32
REMARK                            x       y       z     vdW  Elec       q    Type
REMARK                         _______ _______ _______ _____ _____    ______ ____
ROOT
ATOM      1  C   UNL     1       5.633   4.670  17.376  0.00  0.00    +0.000 C 
ATOM      2  O   UNL     1       4.907   5.527  16.441  0.00  0.00    +0.000 OA
ATOM      3  C   UNL     1       3.878   6.248  16.986  0.00  0.00    +0.000 A 
ATOM      4  C   UNL     1       3.938   7.623  16.761  0.00  0.00    +0.000 A 
ATOM      5  C   UNL     1       3.164   8.494  17.535  0.00  0.00    +0.000 A 
ATOM      6  C   UNL     1       2.318   7.983  18.524  0.00  0.00    +0.000 A 
ATOM      7  C   UNL     1       2.169   6.609  18.677  0.00  0.00    +0.000 A 
ATOM      8  C   UNL     1       2.943   5.744  17.895  0.00  0.00    +0.000 A 
ATOM      9  C   UNL     1       2.782   4.313  18.162  0.00  0.00    +0.000 C 
ATOM     10  O   UNL     1       1.964   3.705  17.473  0.00  0.00    +0.000 OA
ATOM     11  N   UNL     1       3.452   3.768  19.261  0.00  0.00    +0.000 N 
ATOM     12  C   UNL     1       4.794   4.181  19.741  0.00  0.00    +0.000 C 
ATOM     13  C   UNL     1       5.598   5.176  18.870  0.00  0.00    +0.000 C 
ATOM     14  C   UNL     1       6.932   5.568  19.509  0.00  0.00    +0.000 C 
ENDROOT
BRANCH   6  15
ATOM     15  N   UNL     1       1.636   8.842  19.416  0.00  0.00    +0.000 N 
ATOM     16  H   UNL     1       1.368   8.513  20.342  0.00  0.00    +0.000 HD
BRANCH  15  17
ATOM     17  S   UNL     1       0.800  10.184  18.828  0.00  0.00    +0.000 S 
ATOM     18  O   UNL     1       1.780  11.237  18.643  0.00  0.00    +0.000 OA
ATOM     19  O   UNL     1      -0.087   9.771  17.767  0.00  0.00    +0.000 OA
BRANCH  17  20
ATOM     20  C   UNL     1      -0.197  10.659  20.226  0.00  0.00    +0.000 A 
ATOM     21  C   UNL     1      -1.162  11.662  20.063  0.00  0.00    +0.000 A 
ATOM     22  C   UNL     1      -1.863  12.123  21.176  0.00  0.00    +0.000 A 
ATOM     23  C   UNL     1      -1.620  11.569  22.431  0.00  0.00    +0.000 A 
ATOM     24 CL   UNL     1      -2.447  12.180  23.810  0.00  0.00    +0.000 Cl
ATOM     25  C   UNL     1      -0.697  10.531  22.580  0.00  0.00    +0.000 A 
ATOM     26  C   UNL     1       0.018  10.067  21.476  0.00  0.00    +0.000 A 
ENDBRANCH  17  20
ENDBRANCH  15  17
ENDBRANCH   6  15
BRANCH  11  27
ATOM     27  C   UNL     1       2.783   2.666  19.987  0.00  0.00    +0.000 C 
ATOM     28  C   UNL     1       2.355   1.520  19.070  0.00  0.00    +0.000 C 
BRANCH  27  29
ATOM     29  C   UNL     1       1.580   3.163  20.831  0.00  0.00    +0.000 C 
BRANCH  29  30
ATOM     30  O   UNL     1       0.347   3.065  20.115  0.00  0.00    +0.000 OA
ATOM     31  H   UNL     1       0.182   2.129  19.914  0.00  0.00    +0.000 HD
ENDBRANCH  29  30
ENDBRANCH  27  29
ENDBRANCH  11  27
BRANCH   1  32
ATOM     32  C   UNL     1       7.042   4.462  16.760  0.00  0.00    +0.000 C 
BRANCH  32  34
ATOM     33  C   UNL     1       7.123   4.817  14.341  0.00  0.00    +0.000 C 
ATOM     34  N   UNL     1       7.416   5.356  15.659  0.00  0.00    +0.000 NA
ATOM     35  H   UNL     1       6.943   6.252  15.776  0.00  0.00    +0.000 HD
ENDBRANCH  32  34
ENDBRANCH   1  32
TORSDOF 8
ENDMDL
MODEL 9
REMARK VINA RESULT:      -7.1      1.990      2.447
REMARK  Name = 
REMARK  11 active torsions:
REMARK  status: ('A' for Active; 'I' for Inactive)
REMARK    1  A    between atoms: C_1  and  N_2
REMARK    2  A    between atoms: N_2  and  C_3
REMARK    3  A    between atoms: C_3  and  C_4
REMARK    4  A    between atoms: C_9  and  N_10
REMARK    5  A    between atoms: N_10  and  S_11
REMARK    6  A    between atoms: S_11  and  C_14
REMARK    7  A    between atoms: N_25  and  C_26
REMARK    8  A    between atoms: C_26  and  C_27
REMARK    9  A    between atoms: C_26  and  C_28
REMARK   10  A    between atoms: C_28  and  O_29
REMARK   11  A    between atoms: C_31  and  C_32
REMARK                            x       y       z     vdW  Elec       q    Type
REMARK                         _______ _______ _______ _____ _____    ______ ____
ROOT
ATOM      1  C   UNL     1       5.637   4.814  17.296  0.00  0.00    +0.000 C 
ATOM      2  O   UNL     1       4.888   5.739  16.449  0.00  0.00    +0.000 OA
ATOM      3  C   UNL     1       3.857   6.395  17.067  0.00  0.00    +0.000 A 
ATOM      4  C   UNL     1       3.896   7.786  16.962  0.00  0.00    +0.000 A 
ATOM      5  C   UNL     1       3.122   8.575  17.818  0.00  0.00    +0.000 A 
ATOM      6  C   UNL     1       2.295   7.968  18.768  0.00  0.00    +0.000 A 
ATOM      7  C   UNL     1       2.166   6.584  18.803  0.00  0.00    +0.000 A 
ATOM      8  C   UNL     1       2.941   5.801  17.940  0.00  0.00    +0.000 A 
ATOM      9  C   UNL     1       2.801   4.351  18.082  0.00  0.00    +0.000 C 
ATOM     10  O   UNL     1       1.982   3.794  17.353  0.00  0.00    +0.000 OA
ATOM     11  N   UNL     1       3.492   3.722  19.122  0.00  0.00    +0.000 N 
ATOM     12  C   UNL     1       4.835   4.110  19.620  0.00  0.00    +0.000 C 
ATOM     13  C   UNL     1       5.614   5.187  18.829  0.00  0.00    +0.000 C 
ATOM     14  C   UNL     1       6.952   5.541  19.485  0.00  0.00    +0.000 C 
ENDROOT
BRANCH   6  15
ATOM     15  N   UNL     1       1.614   8.737  19.741  0.00  0.00    +0.000 N 
ATOM     16  H   UNL     1       1.595   8.436  20.713  0.00  0.00    +0.000 HD
BRANCH  15  17
ATOM     17  S   UNL     1       0.412   9.824  19.271  0.00  0.00    +0.000 S 
ATOM     18  O   UNL     1       0.167   9.590  17.860  0.00  0.00    +0.000 OA
ATOM     19  O   UNL     1      -0.654   9.813  20.243  0.00  0.00    +0.000 OA
BRANCH  17  20
ATOM     20  C   UNL     1       1.247  11.393  19.386  0.00  0.00    +0.000 A 
ATOM     21  C   UNL     1       1.938  11.880  18.269  0.00  0.00    +0.000 A 
ATOM     22  C   UNL     1       2.692  13.047  18.386  0.00  0.00    +0.000 A 
ATOM     23  C   UNL     1       2.732  13.732  19.598  0.00  0.00    +0.000 A 
ATOM     24 CL   UNL     1       3.708  15.139  19.752  0.00  0.00    +0.000 Cl
ATOM     25  C   UNL     1       1.998  13.273  20.695  0.00  0.00    +0.000 A 
ATOM     26  C   UNL     1       1.247  12.102  20.594  0.00  0.00    +0.000 A 
ENDBRANCH  17  20
ENDBRANCH  15  17
ENDBRANCH   6  15
BRANCH  11  27
ATOM     27  C   UNL     1       2.847   2.551  19.757  0.00  0.00    +0.000 C 
ATOM     28  C   UNL     1       2.426   1.481  18.749  0.00  0.00    +0.000 C 
BRANCH  27  29
ATOM     29  C   UNL     1       1.646   2.955  20.651  0.00  0.00    +0.000 C 
BRANCH  29  30
ATOM     30  O   UNL     1       0.410   2.918  19.936  0.00  0.00    +0.000 OA
ATOM     31  H   UNL     1       0.514   2.326  19.173  0.00  0.00    +0.000 HD
ENDBRANCH  29  30
ENDBRANCH  27  29
ENDBRANCH  11  27
BRANCH   1  32
ATOM     32  C   UNL     1       7.040   4.680  16.648  0.00  0.00    +0.000 C 
BRANCH  32  34
ATOM     33  C   UNL     1       6.761   4.378  14.237  0.00  0.00    +0.000 C 
ATOM     34  N   UNL     1       7.203   5.255  15.308  0.00  0.00    +0.000 NA
ATOM     35  H   UNL     1       6.698   6.139  15.257  0.00  0.00    +0.000 HD
ENDBRANCH  32  34
ENDBRANCH   1  32
TORSDOF 8
ENDMDL
