MODEL 1
REMARK VINA RESULT:      -6.7      0.000      0.000
REMARK  Name = 
REMARK  4 active torsions:
REMARK  status: ('A' for Active; 'I' for Inactive)
REMARK    1  A    between atoms: C_1  and  O_2
REMARK    2  A    between atoms: O_2  and  C_3
REMARK    3  A    between atoms: C_6  and  C_7
REMARK    4  A    between atoms: N_9  and  C_10
REMARK                            x       y       z     vdW  Elec       q    Type
REMARK                         _______ _______ _______ _____ _____    ______ ____
ROOT
ATOM      1  C   UNL     1       4.788   4.536  18.212  0.00  0.00    +0.000 C 
ATOM      2  O   UNL     1       5.155   5.280  19.117  0.00  0.00    +0.000 OA
ATOM      3  N   UNL     1       3.809   3.562  18.305  0.00  0.00    +0.000 N 
ATOM      4  H   UNL     1       3.732   2.901  17.542  0.00  0.00    +0.000 HD
ENDROOT
BRANCH   1   8
ATOM      5  C   UNL     1       6.769   4.648  14.407  0.00  0.00    +0.000 A 
ATOM      6  C   UNL     1       5.421   4.306  14.511  0.00  0.00    +0.000 A 
ATOM      7  C   UNL     1       4.788   4.307  15.753  0.00  0.00    +0.000 A 
ATOM      8  C   UNL     1       5.501   4.643  16.911  0.00  0.00    +0.000 A 
ATOM      9  C   UNL     1       6.855   4.975  16.814  0.00  0.00    +0.000 A 
ATOM     10  C   UNL     1       7.488   4.976  15.561  0.00  0.00    +0.000 A 
BRANCH   5  12
ATOM     11  C   UNL     1       6.627   3.670  12.256  0.00  0.00    +0.000 C 
ATOM     12  O   UNL     1       7.282   4.567  13.143  0.00  0.00    +0.000 OA
ENDBRANCH   5  12
ENDBRANCH   1   8
BRANCH   3  13
ATOM     13  C   UNL     1       3.034   3.294  19.461  0.00  0.00    +0.000 A 
ATOM     14  C   UNL     1       1.694   3.653  19.603  0.00  0.00    +0.000 A 
ATOM     15  C   UNL     1       1.017   3.381  20.792  0.00  0.00    +0.000 A 
ATOM     16  C   UNL     1       1.701   2.742  21.809  0.00  0.00    +0.000 A 
ATOM     17  N   UNL     1       2.989   2.349  21.709  0.00  0.00    +0.000 NA
ATOM     18  C   UNL     1       3.618   2.630  20.539  0.00  0.00    +0.000 A 
ENDBRANCH   3  13
TORSDOF 3
ENDMDL
MODEL 2
REMARK VINA RESULT:      -6.7      2.476      7.096
REMARK  Name = 
REMARK  4 active torsions:
REMARK  status: ('A' for Active; 'I' for Inactive)
REMARK    1  A    between atoms: C_1  and  O_2
REMARK    2  A    between atoms: O_2  and  C_3
REMARK    3  A    between atoms: C_6  and  C_7
REMARK    4  A    between atoms: N_9  and  C_10
REMARK                            x       y       z     vdW  Elec       q    Type
REMARK                         _______ _______ _______ _____ _____    ______ ____
ROOT
ATOM      1  C   UNL     1       4.850   4.486  16.466  0.00  0.00    +0.000 C 
ATOM      2  O   UNL     1       4.797   5.712  16.426  0.00  0.00    +0.000 OA
ATOM      3  N   UNL     1       5.500   3.669  15.557  0.00  0.00    +0.000 N 
ATOM      4  H   UNL     1       5.312   2.675  15.604  0.00  0.00    +0.000 HD
ENDROOT
BRANCH   1   8
ATOM      5  C   UNL     1       2.497   2.646  19.547  0.00  0.00    +0.000 A 
ATOM      6  C   UNL     1       2.025   2.747  18.239  0.00  0.00    +0.000 A 
ATOM      7  C   UNL     1       2.817   3.320  17.245  0.00  0.00    +0.000 A 
ATOM      8  C   UNL     1       4.094   3.807  17.553  0.00  0.00    +0.000 A 
ATOM      9  C   UNL     1       4.569   3.718  18.865  0.00  0.00    +0.000 A 
ATOM     10  C   UNL     1       3.768   3.138  19.861  0.00  0.00    +0.000 A 
BRANCH   5  12
ATOM     11  C   UNL     1       1.526   2.739  21.703  0.00  0.00    +0.000 C 
ATOM     12  O   UNL     1       1.609   2.105  20.434  0.00  0.00    +0.000 OA
ENDBRANCH   5  12
ENDBRANCH   1   8
BRANCH   3  13
ATOM     13  C   UNL     1       6.253   4.124  14.446  0.00  0.00    +0.000 A 
ATOM     14  C   UNL     1       6.080   3.659  13.143  0.00  0.00    +0.000 A 
ATOM     15  C   UNL     1       6.892   4.135  12.115  0.00  0.00    +0.000 A 
ATOM     16  C   UNL     1       7.855   5.081  12.418  0.00  0.00    +0.000 A 
ATOM     17  N   UNL     1       8.042   5.582  13.657  0.00  0.00    +0.000 NA
ATOM     18  C   UNL     1       7.234   5.096  14.635  0.00  0.00    +0.000 A 
ENDBRANCH   3  13
TORSDOF 3
ENDMDL
MODEL 3
REMARK VINA RESULT:      -6.6      0.535      1.287
REMARK  Name = 
REMARK  4 active torsions:
REMARK  status: ('A' for Active; 'I' for Inactive)
REMARK    1  A    between atoms: C_1  and  O_2
REMARK    2  A    between atoms: O_2  and  C_3
REMARK    3  A    between atoms: C_6  and  C_7
REMARK    4  A    between atoms: N_9  and  C_10
REMARK                            x       y       z     vdW  Elec       q    Type
REMARK                         _______ _______ _______ _____ _____    ______ ____
ROOT
ATOM      1  C   UNL     1       5.025   3.993  18.298  0.00  0.00    +0.000 C 
ATOM      2  O   UNL     1       5.747   4.087  19.286  0.00  0.00    +0.000 OA
ATOM      3  N   UNL     1       3.692   3.621  18.296  0.00  0.00    +0.000 N 
ATOM      4  H   UNL     1       3.267   3.408  17.401  0.00  0.00    +0.000 HD
ENDROOT
BRANCH   1   8
ATOM      5  C   UNL     1       6.897   4.901  14.545  0.00  0.00    +0.000 A 
ATOM      6  C   UNL     1       7.572   5.077  15.752  0.00  0.00    +0.000 A 
ATOM      7  C   UNL     1       6.958   4.746  16.959  0.00  0.00    +0.000 A 
ATOM      8  C   UNL     1       5.651   4.241  16.971  0.00  0.00    +0.000 A 
ATOM      9  C   UNL     1       4.965   4.072  15.765  0.00  0.00    +0.000 A 
ATOM     10  C   UNL     1       5.590   4.404  14.553  0.00  0.00    +0.000 A 
BRANCH   5  12
ATOM     11  C   UNL     1       7.310   4.603  12.234  0.00  0.00    +0.000 C 
ATOM     12  O   UNL     1       7.591   5.303  13.439  0.00  0.00    +0.000 OA
ENDBRANCH   5  12
ENDBRANCH   1   8
BRANCH   3  13
ATOM     13  C   UNL     1       2.926   3.326  19.451  0.00  0.00    +0.000 A 
ATOM     14  C   UNL     1       1.575   3.638  19.592  0.00  0.00    +0.000 A 
ATOM     15  C   UNL     1       0.907   3.344  20.780  0.00  0.00    +0.000 A 
ATOM     16  C   UNL     1       1.612   2.729  21.799  0.00  0.00    +0.000 A 
ATOM     17  N   UNL     1       2.913   2.381  21.700  0.00  0.00    +0.000 NA
ATOM     18  C   UNL     1       3.533   2.683  20.530  0.00  0.00    +0.000 A 
ENDBRANCH   3  13
TORSDOF 3
ENDMDL
MODEL 4
REMARK VINA RESULT:      -6.5      1.320      1.719
REMARK  Name = 
REMARK  4 active torsions:
REMARK  status: ('A' for Active; 'I' for Inactive)
REMARK    1  A    between atoms: C_1  and  O_2
REMARK    2  A    between atoms: O_2  and  C_3
REMARK    3  A    between atoms: C_6  and  C_7
REMARK    4  A    between atoms: N_9  and  C_10
REMARK                            x       y       z     vdW  Elec       q    Type
REMARK                         _______ _______ _______ _____ _____    ______ ____
ROOT
ATOM      1  C   UNL     1       4.018   3.712  17.229  0.00  0.00    +0.000 C 
ATOM      2  O   UNL     1       2.991   3.279  16.713  0.00  0.00    +0.000 OA
ATOM      3  N   UNL     1       4.223   3.920  18.581  0.00  0.00    +0.000 N 
ATOM      4  H   UNL     1       5.043   4.449  18.854  0.00  0.00    +0.000 HD
ENDROOT
BRANCH   1   8
ATOM      5  C   UNL     1       7.196   5.062  14.682  0.00  0.00    +0.000 A 
ATOM      6  C   UNL     1       7.217   5.305  16.054  0.00  0.00    +0.000 A 
ATOM      7  C   UNL     1       6.190   4.830  16.869  0.00  0.00    +0.000 A 
ATOM      8  C   UNL     1       5.123   4.111  16.316  0.00  0.00    +0.000 A 
ATOM      9  C   UNL     1       5.091   3.874  14.939  0.00  0.00    +0.000 A 
ATOM     10  C   UNL     1       6.129   4.351  14.123  0.00  0.00    +0.000 A 
BRANCH   5  12
ATOM     11  C   UNL     1       8.122   5.604  12.572  0.00  0.00    +0.000 C 
ATOM     12  O   UNL     1       8.236   5.616  13.989  0.00  0.00    +0.000 OA
ENDBRANCH   5  12
ENDBRANCH   1   8
BRANCH   3  13
ATOM     13  C   UNL     1       3.287   3.624  19.604  0.00  0.00    +0.000 A 
ATOM     14  C   UNL     1       1.996   4.147  19.655  0.00  0.00    +0.000 A 
ATOM     15  C   UNL     1       1.153   3.830  20.719  0.00  0.00    +0.000 A 
ATOM     16  C   UNL     1       1.624   2.982  21.705  0.00  0.00    +0.000 A 
ATOM     17  N   UNL     1       2.855   2.428  21.685  0.00  0.00    +0.000 NA
ATOM     18  C   UNL     1       3.651   2.758  20.635  0.00  0.00    +0.000 A 
ENDBRANCH   3  13
TORSDOF 3
ENDMDL
MODEL 5
REMARK VINA RESULT:      -6.4      2.411      7.155
REMARK  Name = 
REMARK  4 active torsions:
REMARK  status: ('A' for Active; 'I' for Inactive)
REMARK    1  A    between atoms: C_1  and  O_2
REMARK    2  A    between atoms: O_2  and  C_3
REMARK    3  A    between atoms: C_6  and  C_7
REMARK    4  A    between atoms: N_9  and  C_10
REMARK                            x       y       z     vdW  Elec       q    Type
REMARK                         _______ _______ _______ _____ _____    ______ ____
ROOT
ATOM      1  C   UNL     1       4.748   4.696  16.490  0.00  0.00    +0.000 C 
ATOM      2  O   UNL     1       4.710   5.918  16.372  0.00  0.00    +0.000 OA
ATOM      3  N   UNL     1       5.403   3.817  15.645  0.00  0.00    +0.000 N 
ATOM      4  H   UNL     1       5.203   2.830  15.752  0.00  0.00    +0.000 HD
ENDROOT
BRANCH   1   8
ATOM      5  C   UNL     1       2.637   2.798  19.707  0.00  0.00    +0.000 A 
ATOM      6  C   UNL     1       4.020   2.969  19.751  0.00  0.00    +0.000 A 
ATOM      7  C   UNL     1       4.683   3.617  18.710  0.00  0.00    +0.000 A 
ATOM      8  C   UNL     1       3.967   4.096  17.605  0.00  0.00    +0.000 A 
ATOM      9  C   UNL     1       2.582   3.917  17.550  0.00  0.00    +0.000 A 
ATOM     10  C   UNL     1       1.918   3.267  18.603  0.00  0.00    +0.000 A 
BRANCH   5  12
ATOM     11  C   UNL     1       1.319   2.864  21.672  0.00  0.00    +0.000 C 
ATOM     12  O   UNL     1       2.113   2.111  20.766  0.00  0.00    +0.000 OA
ENDBRANCH   5  12
ENDBRANCH   1   8
BRANCH   3  13
ATOM     13  C   UNL     1       6.179   4.192  14.521  0.00  0.00    +0.000 A 
ATOM     14  C   UNL     1       6.002   3.670  13.241  0.00  0.00    +0.000 A 
ATOM     15  C   UNL     1       6.837   4.068  12.198  0.00  0.00    +0.000 A 
ATOM     16  C   UNL     1       7.828   4.997  12.464  0.00  0.00    +0.000 A 
ATOM     17  N   UNL     1       8.021   5.552  13.679  0.00  0.00    +0.000 NA
ATOM     18  C   UNL     1       7.190   5.141  14.672  0.00  0.00    +0.000 A 
ENDBRANCH   3  13
TORSDOF 3
ENDMDL
MODEL 6
REMARK VINA RESULT:      -6.3      0.743      1.176
REMARK  Name = 
REMARK  4 active torsions:
REMARK  status: ('A' for Active; 'I' for Inactive)
REMARK    1  A    between atoms: C_1  and  O_2
REMARK    2  A    between atoms: O_2  and  C_3
REMARK    3  A    between atoms: C_6  and  C_7
REMARK    4  A    between atoms: N_9  and  C_10
REMARK                            x       y       z     vdW  Elec       q    Type
REMARK                         _______ _______ _______ _____ _____    ______ ____
ROOT
ATOM      1  C   UNL     1       4.757   4.684  18.123  0.00  0.00    +0.000 C 
ATOM      2  O   UNL     1       5.095   5.473  19.000  0.00  0.00    +0.000 OA
ATOM      3  N   UNL     1       3.809   3.684  18.250  0.00  0.00    +0.000 N 
ATOM      4  H   UNL     1       3.758   2.991  17.512  0.00  0.00    +0.000 HD
ENDROOT
BRANCH   1   8
ATOM      5  C   UNL     1       6.763   4.709  14.330  0.00  0.00    +0.000 A 
ATOM      6  C   UNL     1       5.441   4.283  14.446  0.00  0.00    +0.000 A 
ATOM      7  C   UNL     1       4.797   4.312  15.682  0.00  0.00    +0.000 A 
ATOM      8  C   UNL     1       5.475   4.763  16.822  0.00  0.00    +0.000 A 
ATOM      9  C   UNL     1       6.804   5.181  16.714  0.00  0.00    +0.000 A 
ATOM     10  C   UNL     1       7.447   5.153  15.467  0.00  0.00    +0.000 A 
BRANCH   5  12
ATOM     11  C   UNL     1       6.669   3.643  12.219  0.00  0.00    +0.000 C 
ATOM     12  O   UNL     1       7.293   4.590  13.076  0.00  0.00    +0.000 OA
ENDBRANCH   5  12
ENDBRANCH   1   8
BRANCH   3  13
ATOM     13  C   UNL     1       3.036   3.435  19.411  0.00  0.00    +0.000 A 
ATOM     14  C   UNL     1       3.457   2.634  20.472  0.00  0.00    +0.000 A 
ATOM     15  C   UNL     1       2.615   2.414  21.562  0.00  0.00    +0.000 A 
ATOM     16  C   UNL     1       1.370   3.015  21.566  0.00  0.00    +0.000 A 
ATOM     17  N   UNL     1       0.929   3.821  20.577  0.00  0.00    +0.000 NA
ATOM     18  C   UNL     1       1.773   4.014  19.531  0.00  0.00    +0.000 A 
ENDBRANCH   3  13
TORSDOF 3
ENDMDL
MODEL 7
REMARK VINA RESULT:      -6.3      2.381      7.064
REMARK  Name = 
REMARK  4 active torsions:
REMARK  status: ('A' for Active; 'I' for Inactive)
REMARK    1  A    between atoms: C_1  and  O_2
REMARK    2  A    between atoms: O_2  and  C_3
REMARK    3  A    between atoms: C_6  and  C_7
REMARK    4  A    between atoms: N_9  and  C_10
REMARK                            x       y       z     vdW  Elec       q    Type
REMARK                         _______ _______ _______ _____ _____    ______ ____
ROOT
ATOM      1  C   UNL     1       4.824   5.174  16.556  0.00  0.00    +0.000 C 
ATOM      2  O   UNL     1       4.864   6.374  16.300  0.00  0.00    +0.000 OA
ATOM      3  N   UNL     1       5.361   4.159  15.785  0.00  0.00    +0.000 N 
ATOM      4  H   UNL     1       5.100   3.208  16.015  0.00  0.00    +0.000 HD
ENDROOT
BRANCH   1   8
ATOM      5  C   UNL     1       2.613   4.198  20.101  0.00  0.00    +0.000 A 
ATOM      6  C   UNL     1       2.068   5.014  19.111  0.00  0.00    +0.000 A 
ATOM      7  C   UNL     1       2.790   5.293  17.952  0.00  0.00    +0.000 A 
ATOM      8  C   UNL     1       4.075   4.763  17.774  0.00  0.00    +0.000 A 
ATOM      9  C   UNL     1       4.631   3.953  18.769  0.00  0.00    +0.000 A 
ATOM     10  C   UNL     1       3.898   3.672  19.933  0.00  0.00    +0.000 A 
BRANCH   5  12
ATOM     11  C   UNL     1       1.380   2.712  21.472  0.00  0.00    +0.000 C 
ATOM     12  O   UNL     1       1.823   4.036  21.205  0.00  0.00    +0.000 OA
ENDBRANCH   5  12
ENDBRANCH   1   8
BRANCH   3  13
ATOM     13  C   UNL     1       6.090   4.345  14.584  0.00  0.00    +0.000 A 
ATOM     14  C   UNL     1       5.775   3.726  13.376  0.00  0.00    +0.000 A 
ATOM     15  C   UNL     1       6.570   3.938  12.250  0.00  0.00    +0.000 A 
ATOM     16  C   UNL     1       7.660   4.781  12.361  0.00  0.00    +0.000 A 
ATOM     17  N   UNL     1       7.989   5.426  13.501  0.00  0.00    +0.000 NA
ATOM     18  C   UNL     1       7.195   5.196  14.578  0.00  0.00    +0.000 A 
ENDBRANCH   3  13
TORSDOF 3
ENDMDL
MODEL 8
REMARK VINA RESULT:      -6.2      4.384      7.291
REMARK  Name = 
REMARK  4 active torsions:
REMARK  status: ('A' for Active; 'I' for Inactive)
REMARK    1  A    between atoms: C_1  and  O_2
REMARK    2  A    between atoms: O_2  and  C_3
REMARK    3  A    between atoms: C_6  and  C_7
REMARK    4  A    between atoms: N_9  and  C_10
REMARK                            x       y       z     vdW  Elec       q    Type
REMARK                         _______ _______ _______ _____ _____    ______ ____
ROOT
ATOM      1  C   UNL     1       3.357   6.555  18.453  0.00  0.00    +0.000 C 
ATOM      2  O   UNL     1       3.510   5.586  19.192  0.00  0.00    +0.000 OA
ATOM      3  N   UNL     1       4.062   6.810  17.289  0.00  0.00    +0.000 N 
ATOM      4  H   UNL     1       3.965   7.729  16.876  0.00  0.00    +0.000 HD
ENDROOT
BRANCH   1   8
ATOM      5  C   UNL     1       0.635   9.674  19.578  0.00  0.00    +0.000 A 
ATOM      6  C   UNL     1       1.116   9.570  18.274  0.00  0.00    +0.000 A 
ATOM      7  C   UNL     1       1.975   8.530  17.921  0.00  0.00    +0.000 A 
ATOM      8  C   UNL     1       2.370   7.584  18.875  0.00  0.00    +0.000 A 
ATOM      9  C   UNL     1       1.900   7.690  20.187  0.00  0.00    +0.000 A 
ATOM     10  C   UNL     1       1.033   8.737  20.537  0.00  0.00    +0.000 A 
BRANCH   5  12
ATOM     11  C   UNL     1      -1.370  10.820  19.060  0.00  0.00    +0.000 C 
ATOM     12  O   UNL     1      -0.162  10.760  19.807  0.00  0.00    +0.000 OA
ENDBRANCH   5  12
ENDBRANCH   1   8
BRANCH   3  13
ATOM     13  C   UNL     1       5.054   5.963  16.735  0.00  0.00    +0.000 A 
ATOM     14  C   UNL     1       4.802   4.685  16.239  0.00  0.00    +0.000 A 
ATOM     15  C   UNL     1       5.846   3.905  15.744  0.00  0.00    +0.000 A 
ATOM     16  C   UNL     1       7.124   4.435  15.747  0.00  0.00    +0.000 A 
ATOM     17  N   UNL     1       7.414   5.677  16.189  0.00  0.00    +0.000 NA
ATOM     18  C   UNL     1       6.374   6.409  16.665  0.00  0.00    +0.000 A 
ENDBRANCH   3  13
TORSDOF 3
ENDMDL
MODEL 9
REMARK VINA RESULT:      -6.2      1.512      2.060
REMARK  Name = 
REMARK  4 active torsions:
REMARK  status: ('A' for Active; 'I' for Inactive)
REMARK    1  A    between atoms: C_1  and  O_2
REMARK    2  A    between atoms: O_2  and  C_3
REMARK    3  A    between atoms: C_6  and  C_7
REMARK    4  A    between atoms: N_9  and  C_10
REMARK                            x       y       z     vdW  Elec       q    Type
REMARK                         _______ _______ _______ _____ _____    ______ ____
ROOT
ATOM      1  C   UNL     1       4.027   3.661  17.310  0.00  0.00    +0.000 C 
ATOM      2  O   UNL     1       3.039   3.135  16.805  0.00  0.00    +0.000 OA
ATOM      3  N   UNL     1       4.195   3.956  18.651  0.00  0.00    +0.000 N 
ATOM      4  H   UNL     1       4.974   4.552  18.905  0.00  0.00    +0.000 HD
ENDROOT
BRANCH   1   8
ATOM      5  C   UNL     1       7.160   5.073  14.741  0.00  0.00    +0.000 A 
ATOM      6  C   UNL     1       7.167   5.346  16.108  0.00  0.00    +0.000 A 
ATOM      7  C   UNL     1       6.157   4.851  16.931  0.00  0.00    +0.000 A 
ATOM      8  C   UNL     1       5.119   4.081  16.391  0.00  0.00    +0.000 A 
ATOM      9  C   UNL     1       5.100   3.814  15.019  0.00  0.00    +0.000 A 
ATOM     10  C   UNL     1       6.122   4.311  14.195  0.00  0.00    +0.000 A 
BRANCH   5  12
ATOM     11  C   UNL     1       8.120   5.521  12.624  0.00  0.00    +0.000 C 
ATOM     12  O   UNL     1       8.181   5.650  14.038  0.00  0.00    +0.000 OA
ENDBRANCH   5  12
ENDBRANCH   1   8
BRANCH   3  13
ATOM     13  C   UNL     1       3.263   3.655  19.676  0.00  0.00    +0.000 A 
ATOM     14  C   UNL     1       3.431   2.632  20.608  0.00  0.00    +0.000 A 
ATOM     15  C   UNL     1       2.445   2.382  21.561  0.00  0.00    +0.000 A 
ATOM     16  C   UNL     1       1.313   3.177  21.562  0.00  0.00    +0.000 A 
ATOM     17  N   UNL     1       1.117   4.197  20.700  0.00  0.00    +0.000 NA
ATOM     18  C   UNL     1       2.097   4.412  19.785  0.00  0.00    +0.000 A 
ENDBRANCH   3  13
TORSDOF 3
ENDMDL
