MODEL 1
REMARK VINA RESULT:      -8.2      0.000      0.000
REMARK  Name = 
REMARK  4 active torsions:
REMARK  status: ('A' for Active; 'I' for Inactive)
REMARK    1  A    between atoms: C_1  and  O_2
REMARK    2  A    between atoms: O_2  and  C_3
REMARK    3  A    between atoms: C_5  and  C_6
REMARK    4  A    between atoms: C_19  and  O_20
REMARK                            x       y       z     vdW  Elec       q    Type
REMARK                         _______ _______ _______ _____ _____    ______ ____
ROOT
ATOM      1  C   UNL     1       3.938   3.857  16.765  0.00  0.00    +0.000 C 
ATOM      2  C   UNL     1       5.094   4.547  16.718  0.00  0.00    +0.000 C 
ATOM      3  C   UNL     1       5.544   4.919  15.335  0.00  0.00    +0.000 C 
ATOM      4  O   UNL     1       5.158   4.433  14.282  0.00  0.00    +0.000 OA
ATOM      5  O   UNL     1       6.433   5.974  15.420  0.00  0.00    +0.000 OA
ATOM      6  C   UNL     1       6.717   6.087  16.771  0.00  0.00    +0.000 A 
ATOM      7  C   UNL     1       7.718   6.935  17.218  0.00  0.00    +0.000 A 
ATOM      8  C   UNL     1       8.070   6.865  18.561  0.00  0.00    +0.000 A 
ATOM      9  C   UNL     1       7.423   5.952  19.410  0.00  0.00    +0.000 A 
ATOM     10  C   UNL     1       6.378   5.130  18.937  0.00  0.00    +0.000 A 
ATOM     11  C   UNL     1       6.004   5.233  17.610  0.00  0.00    +0.000 A 
ENDROOT
BRANCH   1  14
ATOM     12  C   UNL     1       1.757   4.331  19.826  0.00  0.00    +0.000 A 
ATOM     13  C   UNL     1       2.545   4.563  18.684  0.00  0.00    +0.000 A 
ATOM     14  C   UNL     1       2.931   3.533  17.799  0.00  0.00    +0.000 A 
ATOM     15  C   UNL     1       2.490   2.243  18.080  0.00  0.00    +0.000 A 
ATOM     16  C   UNL     1       1.687   1.994  19.200  0.00  0.00    +0.000 A 
ATOM     17  C   UNL     1       1.330   3.027  20.075  0.00  0.00    +0.000 A 
BRANCH  12  19
ATOM     18  C   UNL     1       2.093   6.689  20.134  0.00  0.00    +0.000 C 
ATOM     19  O   UNL     1       1.532   5.457  20.573  0.00  0.00    +0.000 OA
ENDBRANCH  12  19
BRANCH  17  20
ATOM     20  O   UNL     1       0.582   2.717  21.176  0.00  0.00    +0.000 OA
ATOM     21  H   UNL     1       0.964   1.943  21.616  0.00  0.00    +0.000 HD
ENDBRANCH  17  20
ENDBRANCH   1  14
TORSDOF 3
ENDMDL
MODEL 2
REMARK VINA RESULT:      -8.1      1.837      6.126
REMARK  Name = 
REMARK  4 active torsions:
REMARK  status: ('A' for Active; 'I' for Inactive)
REMARK    1  A    between atoms: C_1  and  O_2
REMARK    2  A    between atoms: O_2  and  C_3
REMARK    3  A    between atoms: C_5  and  C_6
REMARK    4  A    between atoms: C_19  and  O_20
REMARK                            x       y       z     vdW  Elec       q    Type
REMARK                         _______ _______ _______ _____ _____    ______ ____
ROOT
ATOM      1  C   UNL     1       3.544   5.072  18.704  0.00  0.00    +0.000 C 
ATOM      2  C   UNL     1       2.685   6.023  19.120  0.00  0.00    +0.000 C 
ATOM      3  C   UNL     1       1.953   5.691  20.388  0.00  0.00    +0.000 C 
ATOM      4  O   UNL     1       1.830   4.586  20.897  0.00  0.00    +0.000 OA
ATOM      5  O   UNL     1       1.483   6.861  20.955  0.00  0.00    +0.000 OA
ATOM      6  C   UNL     1       1.682   7.828  19.983  0.00  0.00    +0.000 A 
ATOM      7  C   UNL     1       1.164   9.103  20.134  0.00  0.00    +0.000 A 
ATOM      8  C   UNL     1       1.246   9.966  19.047  0.00  0.00    +0.000 A 
ATOM      9  C   UNL     1       1.832   9.529  17.847  0.00  0.00    +0.000 A 
ATOM     10  C   UNL     1       2.390   8.238  17.735  0.00  0.00    +0.000 A 
ATOM     11  C   UNL     1       2.342   7.399  18.833  0.00  0.00    +0.000 A 
ENDROOT
BRANCH   1  14
ATOM     12  C   UNL     1       6.548   6.253  16.720  0.00  0.00    +0.000 A 
ATOM     13  C   UNL     1       5.556   6.113  17.708  0.00  0.00    +0.000 A 
ATOM     14  C   UNL     1       4.684   5.004  17.764  0.00  0.00    +0.000 A 
ATOM     15  C   UNL     1       4.840   4.012  16.800  0.00  0.00    +0.000 A 
ATOM     16  C   UNL     1       5.836   4.122  15.820  0.00  0.00    +0.000 A 
ATOM     17  C   UNL     1       6.678   5.240  15.772  0.00  0.00    +0.000 A 
BRANCH  12  19
ATOM     18  C   UNL     1       7.974   7.684  18.020  0.00  0.00    +0.000 C 
ATOM     19  O   UNL     1       7.256   7.422  16.819  0.00  0.00    +0.000 OA
ENDBRANCH  12  19
BRANCH  17  20
ATOM     20  O   UNL     1       7.602   5.315  14.768  0.00  0.00    +0.000 OA
ATOM     21  H   UNL     1       7.630   4.470  14.294  0.00  0.00    +0.000 HD
ENDBRANCH  17  20
ENDBRANCH   1  14
TORSDOF 3
ENDMDL
MODEL 3
REMARK VINA RESULT:      -7.9      1.502      5.891
REMARK  Name = 
REMARK  4 active torsions:
REMARK  status: ('A' for Active; 'I' for Inactive)
REMARK    1  A    between atoms: C_1  and  O_2
REMARK    2  A    between atoms: O_2  and  C_3
REMARK    3  A    between atoms: C_5  and  C_6
REMARK    4  A    between atoms: C_19  and  O_20
REMARK                            x       y       z     vdW  Elec       q    Type
REMARK                         _______ _______ _______ _____ _____    ______ ____
ROOT
ATOM      1  C   UNL     1       4.059   3.664  17.584  0.00  0.00    +0.000 C 
ATOM      2  C   UNL     1       3.226   4.362  18.380  0.00  0.00    +0.000 C 
ATOM      3  C   UNL     1       2.568   3.551  19.459  0.00  0.00    +0.000 C 
ATOM      4  O   UNL     1       2.475   2.333  19.508  0.00  0.00    +0.000 OA
ATOM      5  O   UNL     1       2.132   4.401  20.457  0.00  0.00    +0.000 OA
ATOM      6  C   UNL     1       2.274   5.672  19.925  0.00  0.00    +0.000 A 
ATOM      7  C   UNL     1       1.767   6.779  20.584  0.00  0.00    +0.000 A 
ATOM      8  C   UNL     1       1.786   7.996  19.911  0.00  0.00    +0.000 A 
ATOM      9  C   UNL     1       2.301   8.068  18.607  0.00  0.00    +0.000 A 
ATOM     10  C   UNL     1       2.851   6.933  17.975  0.00  0.00    +0.000 A 
ATOM     11  C   UNL     1       2.867   5.734  18.665  0.00  0.00    +0.000 A 
ENDROOT
BRANCH   1  14
ATOM     12  C   UNL     1       6.966   5.565  16.072  0.00  0.00    +0.000 A 
ATOM     13  C   UNL     1       6.029   5.032  16.976  0.00  0.00    +0.000 A 
ATOM     14  C   UNL     1       5.143   3.988  16.631  0.00  0.00    +0.000 A 
ATOM     15  C   UNL     1       5.226   3.472  15.341  0.00  0.00    +0.000 A 
ATOM     16  C   UNL     1       6.167   3.975  14.432  0.00  0.00    +0.000 A 
ATOM     17  C   UNL     1       7.025   5.022  14.789  0.00  0.00    +0.000 A 
BRANCH  12  19
ATOM     18  C   UNL     1       7.422   7.030  17.920  0.00  0.00    +0.000 C 
ATOM     19  O   UNL     1       7.700   6.599  16.593  0.00  0.00    +0.000 OA
ENDBRANCH  12  19
BRANCH  17  20
ATOM     20  O   UNL     1       7.891   5.502  13.848  0.00  0.00    +0.000 OA
ATOM     21  H   UNL     1       7.928   4.885  13.102  0.00  0.00    +0.000 HD
ENDBRANCH  17  20
ENDBRANCH   1  14
TORSDOF 3
ENDMDL
MODEL 4
REMARK VINA RESULT:      -7.6      1.858      3.511
REMARK  Name = 
REMARK  4 active torsions:
REMARK  status: ('A' for Active; 'I' for Inactive)
REMARK    1  A    between atoms: C_1  and  O_2
REMARK    2  A    between atoms: O_2  and  C_3
REMARK    3  A    between atoms: C_5  and  C_6
REMARK    4  A    between atoms: C_19  and  O_20
REMARK                            x       y       z     vdW  Elec       q    Type
REMARK                         _______ _______ _______ _____ _____    ______ ____
ROOT
ATOM      1  C   UNL     1       4.992   4.943  16.823  0.00  0.00    +0.000 C 
ATOM      2  C   UNL     1       5.717   5.068  15.695  0.00  0.00    +0.000 C 
ATOM      3  C   UNL     1       6.901   5.985  15.812  0.00  0.00    +0.000 C 
ATOM      4  O   UNL     1       7.099   6.821  16.682  0.00  0.00    +0.000 OA
ATOM      5  O   UNL     1       7.799   5.689  14.804  0.00  0.00    +0.000 OA
ATOM      6  C   UNL     1       7.115   4.828  13.963  0.00  0.00    +0.000 A 
ATOM      7  C   UNL     1       7.647   4.457  12.739  0.00  0.00    +0.000 A 
ATOM      8  C   UNL     1       6.832   3.739  11.872  0.00  0.00    +0.000 A 
ATOM      9  C   UNL     1       5.517   3.420  12.248  0.00  0.00    +0.000 A 
ATOM     10  C   UNL     1       5.014   3.773  13.518  0.00  0.00    +0.000 A 
ATOM     11  C   UNL     1       5.843   4.452  14.392  0.00  0.00    +0.000 A 
ENDROOT
BRANCH   1  14
ATOM     12  C   UNL     1       2.027   3.703  18.829  0.00  0.00    +0.000 A 
ATOM     13  C   UNL     1       2.927   4.518  18.118  0.00  0.00    +0.000 A 
ATOM     14  C   UNL     1       3.982   3.994  17.341  0.00  0.00    +0.000 A 
ATOM     15  C   UNL     1       4.111   2.609  17.278  0.00  0.00    +0.000 A 
ATOM     16  C   UNL     1       3.212   1.780  17.962  0.00  0.00    +0.000 A 
ATOM     17  C   UNL     1       2.183   2.320  18.742  0.00  0.00    +0.000 A 
BRANCH  12  19
ATOM     18  C   UNL     1       1.542   5.116  20.710  0.00  0.00    +0.000 C 
ATOM     19  O   UNL     1       1.104   4.411  19.554  0.00  0.00    +0.000 OA
ENDBRANCH  12  19
BRANCH  17  20
ATOM     20  O   UNL     1       1.364   1.464  19.422  0.00  0.00    +0.000 OA
ATOM     21  H   UNL     1       1.740   1.286  20.296  0.00  0.00    +0.000 HD
ENDBRANCH  17  20
ENDBRANCH   1  14
TORSDOF 3
ENDMDL
MODEL 5
REMARK VINA RESULT:      -7.6      1.829      6.407
REMARK  Name = 
REMARK  4 active torsions:
REMARK  status: ('A' for Active; 'I' for Inactive)
REMARK    1  A    between atoms: C_1  and  O_2
REMARK    2  A    between atoms: O_2  and  C_3
REMARK    3  A    between atoms: C_5  and  C_6
REMARK    4  A    between atoms: C_19  and  O_20
REMARK                            x       y       z     vdW  Elec       q    Type
REMARK                         _______ _______ _______ _____ _____    ______ ____
ROOT
ATOM      1  C   UNL     1       4.010   3.756  16.856  0.00  0.00    +0.000 C 
ATOM      2  C   UNL     1       3.197   4.158  17.852  0.00  0.00    +0.000 C 
ATOM      3  C   UNL     1       2.598   3.041  18.659  0.00  0.00    +0.000 C 
ATOM      4  O   UNL     1       2.530   1.862  18.342  0.00  0.00    +0.000 OA
ATOM      5  O   UNL     1       2.187   3.539  19.880  0.00  0.00    +0.000 OA
ATOM      6  C   UNL     1       2.284   4.915  19.750  0.00  0.00    +0.000 A 
ATOM      7  C   UNL     1       1.782   5.758  20.728  0.00  0.00    +0.000 A 
ATOM      8  C   UNL     1       1.751   7.120  20.452  0.00  0.00    +0.000 A 
ATOM      9  C   UNL     1       2.212   7.596  19.214  0.00  0.00    +0.000 A 
ATOM     10  C   UNL     1       2.757   6.719  18.252  0.00  0.00    +0.000 A 
ATOM     11  C   UNL     1       2.823   5.370  18.548  0.00  0.00    +0.000 A 
ENDROOT
BRANCH   1  14
ATOM     12  C   UNL     1       6.367   4.203  13.924  0.00  0.00    +0.000 A 
ATOM     13  C   UNL     1       5.279   3.828  14.733  0.00  0.00    +0.000 A 
ATOM     14  C   UNL     1       5.049   4.384  16.010  0.00  0.00    +0.000 A 
ATOM     15  C   UNL     1       5.941   5.352  16.462  0.00  0.00    +0.000 A 
ATOM     16  C   UNL     1       7.019   5.755  15.663  0.00  0.00    +0.000 A 
ATOM     17  C   UNL     1       7.239   5.178  14.406  0.00  0.00    +0.000 A 
BRANCH  12  19
ATOM     18  C   UNL     1       5.219   3.218  12.058  0.00  0.00    +0.000 C 
ATOM     19  O   UNL     1       6.431   3.514  12.741  0.00  0.00    +0.000 OA
ENDBRANCH  12  19
BRANCH  17  20
ATOM     20  O   UNL     1       8.331   5.578  13.689  0.00  0.00    +0.000 OA
ATOM     21  H   UNL     1       9.079   4.997  13.893  0.00  0.00    +0.000 HD
ENDBRANCH  17  20
ENDBRANCH   1  14
TORSDOF 3
ENDMDL
MODEL 6
REMARK VINA RESULT:      -7.4      2.937      5.373
REMARK  Name = 
REMARK  4 active torsions:
REMARK  status: ('A' for Active; 'I' for Inactive)
REMARK    1  A    between atoms: C_1  and  O_2
REMARK    2  A    between atoms: O_2  and  C_3
REMARK    3  A    between atoms: C_5  and  C_6
REMARK    4  A    between atoms: C_19  and  O_20
REMARK                            x       y       z     vdW  Elec       q    Type
REMARK                         _______ _______ _______ _____ _____    ______ ____
ROOT
ATOM      1  C   UNL     1       2.913   7.262  18.117  0.00  0.00    +0.000 C 
ATOM      2  C   UNL     1       3.180   5.974  17.825  0.00  0.00    +0.000 C 
ATOM      3  C   UNL     1       4.491   5.751  17.126  0.00  0.00    +0.000 C 
ATOM      4  O   UNL     1       5.169   6.591  16.553  0.00  0.00    +0.000 OA
ATOM      5  O   UNL     1       4.868   4.432  17.290  0.00  0.00    +0.000 OA
ATOM      6  C   UNL     1       3.754   3.811  17.831  0.00  0.00    +0.000 A 
ATOM      7  C   UNL     1       3.705   2.434  17.968  0.00  0.00    +0.000 A 
ATOM      8  C   UNL     1       2.494   1.866  18.348  0.00  0.00    +0.000 A 
ATOM      9  C   UNL     1       1.375   2.684  18.570  0.00  0.00    +0.000 A 
ATOM     10  C   UNL     1       1.464   4.088  18.465  0.00  0.00    +0.000 A 
ATOM     11  C   UNL     1       2.681   4.650  18.127  0.00  0.00    +0.000 A 
ENDROOT
BRANCH   1  14
ATOM     12  C   UNL     1       0.642  10.029  19.357  0.00  0.00    +0.000 A 
ATOM     13  C   UNL     1       1.376   9.156  18.534  0.00  0.00    +0.000 A 
ATOM     14  C   UNL     1       1.988   7.980  19.020  0.00  0.00    +0.000 A 
ATOM     15  C   UNL     1       1.834   7.685  20.372  0.00  0.00    +0.000 A 
ATOM     16  C   UNL     1       1.089   8.531  21.204  0.00  0.00    +0.000 A 
ATOM     17  C   UNL     1       0.505   9.702  20.705  0.00  0.00    +0.000 A 
BRANCH  12  19
ATOM     18  C   UNL     1      -1.165  11.109  18.199  0.00  0.00    +0.000 C 
ATOM     19  O   UNL     1       0.168  11.133  18.697  0.00  0.00    +0.000 OA
ENDBRANCH  12  19
BRANCH  17  20
ATOM     20  O   UNL     1      -0.172  10.512  21.572  0.00  0.00    +0.000 OA
ATOM     21  H   UNL     1      -0.197  10.095  22.447  0.00  0.00    +0.000 HD
ENDBRANCH  17  20
ENDBRANCH   1  14
TORSDOF 3
ENDMDL
MODEL 7
REMARK VINA RESULT:      -7.4      2.019      3.554
REMARK  Name = 
REMARK  4 active torsions:
REMARK  status: ('A' for Active; 'I' for Inactive)
REMARK    1  A    between atoms: C_1  and  O_2
REMARK    2  A    between atoms: O_2  and  C_3
REMARK    3  A    between atoms: C_5  and  C_6
REMARK    4  A    between atoms: C_19  and  O_20
REMARK                            x       y       z     vdW  Elec       q    Type
REMARK                         _______ _______ _______ _____ _____    ______ ____
ROOT
ATOM      1  C   UNL     1       4.918   5.132  17.105  0.00  0.00    +0.000 C 
ATOM      2  C   UNL     1       5.656   5.223  15.981  0.00  0.00    +0.000 C 
ATOM      3  C   UNL     1       6.863   6.109  16.096  0.00  0.00    +0.000 C 
ATOM      4  O   UNL     1       7.075   6.952  16.956  0.00  0.00    +0.000 OA
ATOM      5  O   UNL     1       7.761   5.776  15.100  0.00  0.00    +0.000 OA
ATOM      6  C   UNL     1       7.060   4.922  14.265  0.00  0.00    +0.000 A 
ATOM      7  C   UNL     1       7.593   4.521  13.050  0.00  0.00    +0.000 A 
ATOM      8  C   UNL     1       6.766   3.812  12.186  0.00  0.00    +0.000 A 
ATOM      9  C   UNL     1       5.440   3.533  12.555  0.00  0.00    +0.000 A 
ATOM     10  C   UNL     1       4.936   3.917  13.816  0.00  0.00    +0.000 A 
ATOM     11  C   UNL     1       5.776   4.586  14.688  0.00  0.00    +0.000 A 
ENDROOT
BRANCH   1  14
ATOM     12  C   UNL     1       3.054   2.981  19.604  0.00  0.00    +0.000 A 
ATOM     13  C   UNL     1       3.855   3.977  19.017  0.00  0.00    +0.000 A 
ATOM     14  C   UNL     1       3.880   4.218  17.626  0.00  0.00    +0.000 A 
ATOM     15  C   UNL     1       3.058   3.433  16.822  0.00  0.00    +0.000 A 
ATOM     16  C   UNL     1       2.237   2.449  17.389  0.00  0.00    +0.000 A 
ATOM     17  C   UNL     1       2.241   2.215  18.770  0.00  0.00    +0.000 A 
BRANCH  12  19
ATOM     18  C   UNL     1       2.164   3.353  21.804  0.00  0.00    +0.000 C 
ATOM     19  O   UNL     1       3.211   2.883  20.962  0.00  0.00    +0.000 OA
ENDBRANCH  12  19
BRANCH  17  20
ATOM     20  O   UNL     1       1.453   1.213  19.261  0.00  0.00    +0.000 OA
ATOM     21  H   UNL     1       2.009   0.458  19.507  0.00  0.00    +0.000 HD
ENDBRANCH  17  20
ENDBRANCH   1  14
TORSDOF 3
ENDMDL
MODEL 8
REMARK VINA RESULT:      -7.4      2.570      5.163
REMARK  Name = 
REMARK  4 active torsions:
REMARK  status: ('A' for Active; 'I' for Inactive)
REMARK    1  A    between atoms: C_1  and  O_2
REMARK    2  A    between atoms: O_2  and  C_3
REMARK    3  A    between atoms: C_5  and  C_6
REMARK    4  A    between atoms: C_19  and  O_20
REMARK                            x       y       z     vdW  Elec       q    Type
REMARK                         _______ _______ _______ _____ _____    ______ ____
ROOT
ATOM      1  C   UNL     1       3.470   7.058  17.734  0.00  0.00    +0.000 C 
ATOM      2  C   UNL     1       3.563   5.714  17.692  0.00  0.00    +0.000 C 
ATOM      3  C   UNL     1       4.919   5.194  17.310  0.00  0.00    +0.000 C 
ATOM      4  O   UNL     1       5.819   5.819  16.767  0.00  0.00    +0.000 OA
ATOM      5  O   UNL     1       5.035   3.884  17.736  0.00  0.00    +0.000 OA
ATOM      6  C   UNL     1       3.755   3.527  18.127  0.00  0.00    +0.000 A 
ATOM      7  C   UNL     1       3.451   2.215  18.451  0.00  0.00    +0.000 A 
ATOM      8  C   UNL     1       2.115   1.894  18.659  0.00  0.00    +0.000 A 
ATOM      9  C   UNL     1       1.127   2.885  18.532  0.00  0.00    +0.000 A 
ATOM     10  C   UNL     1       1.469   4.223  18.243  0.00  0.00    +0.000 A 
ATOM     11  C   UNL     1       2.804   4.545  18.077  0.00  0.00    +0.000 A 
ENDROOT
BRANCH   1  14
ATOM     12  C   UNL     1       1.135   8.616  20.278  0.00  0.00    +0.000 A 
ATOM     13  C   UNL     1       2.164   7.872  19.671  0.00  0.00    +0.000 A 
ATOM     14  C   UNL     1       2.535   8.042  18.320  0.00  0.00    +0.000 A 
ATOM     15  C   UNL     1       1.849   9.001  17.579  0.00  0.00    +0.000 A 
ATOM     16  C   UNL     1       0.836   9.767  18.171  0.00  0.00    +0.000 A 
ATOM     17  C   UNL     1       0.472   9.570  19.508  0.00  0.00    +0.000 A 
BRANCH  12  19
ATOM     18  C   UNL     1       1.234   9.200  22.606  0.00  0.00    +0.000 C 
ATOM     19  O   UNL     1       0.906   8.266  21.583  0.00  0.00    +0.000 OA
ENDBRANCH  12  19
BRANCH  17  20
ATOM     20  O   UNL     1      -0.553  10.314  20.019  0.00  0.00    +0.000 OA
ATOM     21  H   UNL     1      -0.487  11.222  19.688  0.00  0.00    +0.000 HD
ENDBRANCH  17  20
ENDBRANCH   1  14
TORSDOF 3
ENDMDL
MODEL 9
REMARK VINA RESULT:      -7.3      2.854      5.081
REMARK  Name = 
REMARK  4 active torsions:
REMARK  status: ('A' for Active; 'I' for Inactive)
REMARK    1  A    between atoms: C_1  and  O_2
REMARK    2  A    between atoms: O_2  and  C_3
REMARK    3  A    between atoms: C_5  and  C_6
REMARK    4  A    between atoms: C_19  and  O_20
REMARK                            x       y       z     vdW  Elec       q    Type
REMARK                         _______ _______ _______ _____ _____    ______ ____
ROOT
ATOM      1  C   UNL     1       2.755   6.404  19.449  0.00  0.00    +0.000 C 
ATOM      2  C   UNL     1       3.518   5.573  18.713  0.00  0.00    +0.000 C 
ATOM      3  C   UNL     1       3.535   4.150  19.194  0.00  0.00    +0.000 C 
ATOM      4  O   UNL     1       3.194   3.744  20.295  0.00  0.00    +0.000 OA
ATOM      5  O   UNL     1       3.937   3.330  18.157  0.00  0.00    +0.000 OA
ATOM      6  C   UNL     1       4.387   4.198  17.175  0.00  0.00    +0.000 A 
ATOM      7  C   UNL     1       5.034   3.721  16.048  0.00  0.00    +0.000 A 
ATOM      8  C   UNL     1       5.616   4.652  15.195  0.00  0.00    +0.000 A 
ATOM      9  C   UNL     1       5.540   6.022  15.495  0.00  0.00    +0.000 A 
ATOM     10  C   UNL     1       4.838   6.483  16.629  0.00  0.00    +0.000 A 
ATOM     11  C   UNL     1       4.226   5.555  17.451  0.00  0.00    +0.000 A 
ENDROOT
BRANCH   1  14
ATOM     12  C   UNL     1       0.699   9.483  20.253  0.00  0.00    +0.000 A 
ATOM     13  C   UNL     1       1.477   8.316  20.362  0.00  0.00    +0.000 A 
ATOM     14  C   UNL     1       2.156   7.744  19.264  0.00  0.00    +0.000 A 
ATOM     15  C   UNL     1       2.047   8.385  18.034  0.00  0.00    +0.000 A 
ATOM     16  C   UNL     1       1.294   9.560  17.908  0.00  0.00    +0.000 A 
ATOM     17  C   UNL     1       0.614  10.101  19.006  0.00  0.00    +0.000 A 
BRANCH  12  19
ATOM     18  C   UNL     1       0.586   9.306  22.645  0.00  0.00    +0.000 C 
ATOM     19  O   UNL     1       0.091   9.846  21.426  0.00  0.00    +0.000 OA
ENDBRANCH  12  19
BRANCH  17  20
ATOM     20  O   UNL     1      -0.141  11.224  18.815  0.00  0.00    +0.000 OA
ATOM     21  H   UNL     1      -0.786  11.061  18.110  0.00  0.00    +0.000 HD
ENDBRANCH  17  20
ENDBRANCH   1  14
TORSDOF 3
ENDMDL
