MODEL 1
REMARK VINA RESULT:      -9.1      0.000      0.000
REMARK  Name = 
REMARK  6 active torsions:
REMARK  status: ('A' for Active; 'I' for Inactive)
REMARK    1  A    between atoms: C_1  and  C_2
REMARK    2  A    between atoms: C_3  and  C_4
REMARK    3  A    between atoms: N_6  and  C_7
REMARK    4  A    between atoms: C_11  and  N_12
REMARK    5  A    between atoms: N_18  and  C_19
REMARK    6  A    between atoms: C_22  and  C_23
REMARK                            x       y       z     vdW  Elec       q    Type
REMARK                         _______ _______ _______ _____ _____    ______ ____
ROOT
ATOM      1  N   UNL     1       4.921   5.928  18.586  0.00  0.00    +0.000 N 
ATOM      2  C   UNL     1       3.801   5.495  19.296  0.00  0.00    +0.000 A 
ATOM      3  N   UNL     1       3.426   4.222  19.308  0.00  0.00    +0.000 NA
ATOM      4  C   UNL     1       2.295   3.965  19.948  0.00  0.00    +0.000 A 
ATOM      5  N   UNL     1       1.529   4.855  20.556  0.00  0.00    +0.000 NA
ATOM      6  C   UNL     1       1.985   6.100  20.491  0.00  0.00    +0.000 A 
ATOM      7  N   UNL     1       1.201   7.074  21.109  0.00  0.00    +0.000 N 
ATOM      8  N   UNL     1       3.118   6.459  19.893  0.00  0.00    +0.000 NA
ATOM      9  H   UNL     1       4.957   6.938  18.628  0.00  0.00    +0.000 HD
ATOM     10  H   UNL     1       0.334   6.635  21.395  0.00  0.00    +0.000 HD
ENDROOT
BRANCH   1  15
ATOM     11  C   UNL     1       5.691   4.450  15.239  0.00  0.00    +0.000 A 
ATOM     12  C   UNL     1       7.041   4.154  15.407  0.00  0.00    +0.000 A 
ATOM     13  C   UNL     1       7.669   4.421  16.621  0.00  0.00    +0.000 A 
ATOM     14  C   UNL     1       6.950   4.988  17.671  0.00  0.00    +0.000 A 
ATOM     15  C   UNL     1       5.599   5.327  17.517  0.00  0.00    +0.000 A 
ATOM     16  C   UNL     1       4.985   5.034  16.293  0.00  0.00    +0.000 A 
BRANCH  11  19
ATOM     17  C   UNL     1       5.491   3.662  12.895  0.00  0.00    +0.000 C 
ATOM     18  O   UNL     1       6.590   3.151  12.730  0.00  0.00    +0.000 OA
ATOM     19  N   UNL     1       4.990   4.232  14.041  0.00  0.00    +0.000 N 
ATOM     20  H   UNL     1       4.005   4.461  14.034  0.00  0.00    +0.000 HD
BRANCH  17  23
ATOM     21  C   UNL     1       2.905   3.756   9.706  0.00  0.00    +0.000 C 
ATOM     22  C   UNL     1       3.805   3.706  10.852  0.00  0.00    +0.000 C 
ATOM     23  C   UNL     1       4.564   3.673  11.785  0.00  0.00    +0.000 C 
ENDBRANCH  17  23
ENDBRANCH  11  19
ENDBRANCH   1  15
BRANCH   7  24
ATOM     24  C   UNL     1       1.031   8.406  20.697  0.00  0.00    +0.000 A 
ATOM     25  C   UNL     1       1.302   8.849  19.395  0.00  0.00    +0.000 A 
ATOM     26  C   UNL     1       1.050  10.173  19.024  0.00  0.00    +0.000 A 
ATOM     27  C   UNL     1       0.511  11.071  19.951  0.00  0.00    +0.000 A 
ATOM     28  C   UNL     1       0.207  10.621  21.241  0.00  0.00    +0.000 A 
ATOM     29  C   UNL     1       0.486   9.308  21.614  0.00  0.00    +0.000 A 
BRANCH  27  30
ATOM     30  C   UNL     1       0.146  12.439  19.494  0.00  0.00    +0.000 C 
ATOM     31  O   UNL     1      -0.895  12.556  18.847  0.00  0.00    +0.000 OA
ATOM     32  N   UNL     1       0.937  13.531  19.849  0.00  0.00    +0.000 N 
ATOM     33  C   UNL     1       0.385  14.875  19.694  0.00  0.00    +0.000 C 
ATOM     34  C   UNL     1       1.209  15.705  18.714  0.00  0.00    +0.000 C 
ATOM     35  C   UNL     1       2.686  15.705  19.101  0.00  0.00    +0.000 C 
ATOM     36  C   UNL     1       3.206  14.278  19.240  0.00  0.00    +0.000 C 
ATOM     37  C   UNL     1       2.354  13.472  20.214  0.00  0.00    +0.000 C 
ENDBRANCH  27  30
ENDBRANCH   7  24
TORSDOF 5
ENDMDL
MODEL 2
REMARK VINA RESULT:      -8.7      1.306      1.962
REMARK  Name = 
REMARK  6 active torsions:
REMARK  status: ('A' for Active; 'I' for Inactive)
REMARK    1  A    between atoms: C_1  and  C_2
REMARK    2  A    between atoms: C_3  and  C_4
REMARK    3  A    between atoms: N_6  and  C_7
REMARK    4  A    between atoms: C_11  and  N_12
REMARK    5  A    between atoms: N_18  and  C_19
REMARK    6  A    between atoms: C_22  and  C_23
REMARK                            x       y       z     vdW  Elec       q    Type
REMARK                         _______ _______ _______ _____ _____    ______ ____
ROOT
ATOM      1  N   UNL     1       4.984   5.703  18.492  0.00  0.00    +0.000 N 
ATOM      2  C   UNL     1       3.806   5.245  19.080  0.00  0.00    +0.000 A 
ATOM      3  N   UNL     1       3.342   4.020  18.862  0.00  0.00    +0.000 NA
ATOM      4  C   UNL     1       2.167   3.747  19.411  0.00  0.00    +0.000 A 
ATOM      5  N   UNL     1       1.438   4.580  20.136  0.00  0.00    +0.000 NA
ATOM      6  C   UNL     1       1.983   5.779  20.300  0.00  0.00    +0.000 A 
ATOM      7  N   UNL     1       1.243   6.693  21.048  0.00  0.00    +0.000 N 
ATOM      8  N   UNL     1       3.165   6.144  19.810  0.00  0.00    +0.000 NA
ATOM      9  H   UNL     1       5.089   6.685  18.706  0.00  0.00    +0.000 HD
ATOM     10  H   UNL     1       0.335   6.280  21.226  0.00  0.00    +0.000 HD
ENDROOT
BRANCH   1  15
ATOM     11  C   UNL     1       5.736   4.515  15.027  0.00  0.00    +0.000 A 
ATOM     12  C   UNL     1       7.116   4.348  15.120  0.00  0.00    +0.000 A 
ATOM     13  C   UNL     1       7.772   4.604  16.322  0.00  0.00    +0.000 A 
ATOM     14  C   UNL     1       7.050   5.031  17.435  0.00  0.00    +0.000 A 
ATOM     15  C   UNL     1       5.667   5.239  17.359  0.00  0.00    +0.000 A 
ATOM     16  C   UNL     1       5.028   4.959  16.146  0.00  0.00    +0.000 A 
BRANCH  11  19
ATOM     17  C   UNL     1       5.420   3.586  12.749  0.00  0.00    +0.000 C 
ATOM     18  O   UNL     1       6.444   2.928  12.625  0.00  0.00    +0.000 OA
ATOM     19  N   UNL     1       5.004   4.298  13.848  0.00  0.00    +0.000 N 
ATOM     20  H   UNL     1       4.057   4.650  13.821  0.00  0.00    +0.000 HD
BRANCH  17  23
ATOM     21  C   UNL     1       2.725   3.719   9.652  0.00  0.00    +0.000 C 
ATOM     22  C   UNL     1       3.702   3.666  10.734  0.00  0.00    +0.000 C 
ATOM     23  C   UNL     1       4.494   3.632  11.639  0.00  0.00    +0.000 C 
ENDBRANCH  17  23
ENDBRANCH  11  19
ENDBRANCH   1  15
BRANCH   7  24
ATOM     24  C   UNL     1       1.185   8.084  20.864  0.00  0.00    +0.000 A 
ATOM     25  C   UNL     1       1.240   8.696  19.605  0.00  0.00    +0.000 A 
ATOM     26  C   UNL     1       1.111  10.082  19.478  0.00  0.00    +0.000 A 
ATOM     27  C   UNL     1       0.914  10.875  20.613  0.00  0.00    +0.000 A 
ATOM     28  C   UNL     1       0.823  10.262  21.867  0.00  0.00    +0.000 A 
ATOM     29  C   UNL     1       0.981   8.883  21.991  0.00  0.00    +0.000 A 
BRANCH  27  30
ATOM     30  C   UNL     1       0.663  12.331  20.434  0.00  0.00    +0.000 C 
ATOM     31  O   UNL     1       1.637  13.082  20.503  0.00  0.00    +0.000 OA
ATOM     32  N   UNL     1      -0.621  12.790  20.144  0.00  0.00    +0.000 N 
ATOM     33  C   UNL     1      -0.780  14.151  19.636  0.00  0.00    +0.000 C 
ATOM     34  C   UNL     1      -1.630  15.000  20.574  0.00  0.00    +0.000 C 
ATOM     35  C   UNL     1      -2.961  14.315  20.879  0.00  0.00    +0.000 C 
ATOM     36  C   UNL     1      -2.731  12.906  21.413  0.00  0.00    +0.000 C 
ATOM     37  C   UNL     1      -1.867  12.089  20.459  0.00  0.00    +0.000 C 
ENDBRANCH  27  30
ENDBRANCH   7  24
TORSDOF 5
ENDMDL
MODEL 3
REMARK VINA RESULT:      -8.6      1.047      1.750
REMARK  Name = 
REMARK  6 active torsions:
REMARK  status: ('A' for Active; 'I' for Inactive)
REMARK    1  A    between atoms: C_1  and  C_2
REMARK    2  A    between atoms: C_3  and  C_4
REMARK    3  A    between atoms: N_6  and  C_7
REMARK    4  A    between atoms: C_11  and  N_12
REMARK    5  A    between atoms: N_18  and  C_19
REMARK    6  A    between atoms: C_22  and  C_23
REMARK                            x       y       z     vdW  Elec       q    Type
REMARK                         _______ _______ _______ _____ _____    ______ ____
ROOT
ATOM      1  N   UNL     1       4.912   5.854  18.658  0.00  0.00    +0.000 N 
ATOM      2  C   UNL     1       3.749   5.423  19.297  0.00  0.00    +0.000 A 
ATOM      3  N   UNL     1       3.325   4.169  19.213  0.00  0.00    +0.000 NA
ATOM      4  C   UNL     1       2.161   3.918  19.792  0.00  0.00    +0.000 A 
ATOM      5  N   UNL     1       1.407   4.798  20.429  0.00  0.00    +0.000 NA
ATOM      6  C   UNL     1       1.913   6.025  20.462  0.00  0.00    +0.000 A 
ATOM      7  N   UNL     1       1.144   6.989  21.113  0.00  0.00    +0.000 N 
ATOM      8  N   UNL     1       3.081   6.374  19.930  0.00  0.00    +0.000 NA
ATOM      9  H   UNL     1       4.985   6.857  18.766  0.00  0.00    +0.000 HD
ATOM     10  H   UNL     1       0.250   6.568  21.339  0.00  0.00    +0.000 HD
ENDROOT
BRANCH   1  15
ATOM     11  C   UNL     1       5.716   4.434  15.293  0.00  0.00    +0.000 A 
ATOM     12  C   UNL     1       7.082   4.210  15.442  0.00  0.00    +0.000 A 
ATOM     13  C   UNL     1       7.711   4.506  16.649  0.00  0.00    +0.000 A 
ATOM     14  C   UNL     1       6.976   5.029  17.712  0.00  0.00    +0.000 A 
ATOM     15  C   UNL     1       5.607   5.295  17.577  0.00  0.00    +0.000 A 
ATOM     16  C   UNL     1       4.994   4.975  16.360  0.00  0.00    +0.000 A 
BRANCH  11  19
ATOM     17  C   UNL     1       5.541   3.707  12.928  0.00  0.00    +0.000 C 
ATOM     18  O   UNL     1       6.682   3.319  12.722  0.00  0.00    +0.000 OA
ATOM     19  N   UNL     1       5.012   4.184  14.104  0.00  0.00    +0.000 N 
ATOM     20  H   UNL     1       4.009   4.310  14.125  0.00  0.00    +0.000 HD
BRANCH  17  23
ATOM     21  C   UNL     1       2.875   3.641   9.804  0.00  0.00    +0.000 C 
ATOM     22  C   UNL     1       3.808   3.645  10.925  0.00  0.00    +0.000 C 
ATOM     23  C   UNL     1       4.591   3.659  11.839  0.00  0.00    +0.000 C 
ENDBRANCH  17  23
ENDBRANCH  11  19
ENDBRANCH   1  15
BRANCH   7  24
ATOM     24  C   UNL     1       1.041   8.350  20.784  0.00  0.00    +0.000 A 
ATOM     25  C   UNL     1       0.995   9.372  21.743  0.00  0.00    +0.000 A 
ATOM     26  C   UNL     1       0.960  10.714  21.355  0.00  0.00    +0.000 A 
ATOM     27  C   UNL     1       0.983  11.053  19.998  0.00  0.00    +0.000 A 
ATOM     28  C   UNL     1       1.065  10.036  19.041  0.00  0.00    +0.000 A 
ATOM     29  C   UNL     1       1.071   8.699  19.432  0.00  0.00    +0.000 A 
BRANCH  27  30
ATOM     30  C   UNL     1       1.063  12.490  19.621  0.00  0.00    +0.000 C 
ATOM     31  O   UNL     1       2.180  12.945  19.371  0.00  0.00    +0.000 OA
ATOM     32  N   UNL     1      -0.100  13.251  19.505  0.00  0.00    +0.000 N 
ATOM     33  C   UNL     1      -0.032  14.533  18.808  0.00  0.00    +0.000 C 
ATOM     34  C   UNL     1      -0.409  15.688  19.729  0.00  0.00    +0.000 C 
ATOM     35  C   UNL     1      -1.759  15.440  20.397  0.00  0.00    +0.000 C 
ATOM     36  C   UNL     1      -1.767  14.094  21.114  0.00  0.00    +0.000 C 
ATOM     37  C   UNL     1      -1.373  12.964  20.170  0.00  0.00    +0.000 C 
ENDBRANCH  27  30
ENDBRANCH   7  24
TORSDOF 5
ENDMDL
MODEL 4
REMARK VINA RESULT:      -8.6      6.523      9.923
REMARK  Name = 
REMARK  6 active torsions:
REMARK  status: ('A' for Active; 'I' for Inactive)
REMARK    1  A    between atoms: C_1  and  C_2
REMARK    2  A    between atoms: C_3  and  C_4
REMARK    3  A    between atoms: N_6  and  C_7
REMARK    4  A    between atoms: C_11  and  N_12
REMARK    5  A    between atoms: N_18  and  C_19
REMARK    6  A    between atoms: C_22  and  C_23
REMARK                            x       y       z     vdW  Elec       q    Type
REMARK                         _______ _______ _______ _____ _____    ______ ____
ROOT
ATOM      1  N   UNL     1       1.902  13.044  20.321  0.00  0.00    +0.000 N 
ATOM      2  C   UNL     1       1.844  14.338  19.804  0.00  0.00    +0.000 A 
ATOM      3  N   UNL     1       0.716  14.858  19.335  0.00  0.00    +0.000 NA
ATOM      4  C   UNL     1       0.823  16.061  18.793  0.00  0.00    +0.000 A 
ATOM      5  N   UNL     1       1.937  16.766  18.682  0.00  0.00    +0.000 NA
ATOM      6  C   UNL     1       3.012  16.166  19.179  0.00  0.00    +0.000 A 
ATOM      7  N   UNL     1       4.212  16.868  19.072  0.00  0.00    +0.000 N 
ATOM      8  N   UNL     1       3.006  14.970  19.762  0.00  0.00    +0.000 NA
ATOM      9  H   UNL     1       2.868  12.820  20.517  0.00  0.00    +0.000 HD
ATOM     10  H   UNL     1       4.039  17.686  18.499  0.00  0.00    +0.000 HD
ENDROOT
BRANCH   1  15
ATOM     11  C   UNL     1      -0.472  10.619  18.751  0.00  0.00    +0.000 A 
ATOM     12  C   UNL     1      -0.643   9.726  19.806  0.00  0.00    +0.000 A 
ATOM     13  C   UNL     1       0.002   9.948  21.020  0.00  0.00    +0.000 A 
ATOM     14  C   UNL     1       0.824  11.061  21.183  0.00  0.00    +0.000 A 
ATOM     15  C   UNL     1       1.041  11.956  20.127  0.00  0.00    +0.000 A 
ATOM     16  C   UNL     1       0.368  11.722  18.921  0.00  0.00    +0.000 A 
BRANCH  11  19
ATOM     17  C   UNL     1      -2.302  10.928  17.104  0.00  0.00    +0.000 C 
ATOM     18  O   UNL     1      -3.057  11.654  17.735  0.00  0.00    +0.000 OA
ATOM     19  N   UNL     1      -1.069  10.456  17.490  0.00  0.00    +0.000 N 
ATOM     20  H   UNL     1      -0.522   9.998  16.775  0.00  0.00    +0.000 HD
BRANCH  17  23
ATOM     21  C   UNL     1      -3.412   9.808  13.311  0.00  0.00    +0.000 C 
ATOM     22  C   UNL     1      -3.028  10.182  14.668  0.00  0.00    +0.000 C 
ATOM     23  C   UNL     1      -2.699  10.506  15.779  0.00  0.00    +0.000 C 
ENDBRANCH  17  23
ENDBRANCH  11  19
ENDBRANCH   1  15
BRANCH   7  24
ATOM     24  C   UNL     1       5.493  16.325  18.880  0.00  0.00    +0.000 A 
ATOM     25  C   UNL     1       5.771  15.326  17.937  0.00  0.00    +0.000 A 
ATOM     26  C   UNL     1       7.078  14.871  17.743  0.00  0.00    +0.000 A 
ATOM     27  C   UNL     1       8.129  15.419  18.486  0.00  0.00    +0.000 A 
ATOM     28  C   UNL     1       7.858  16.441  19.403  0.00  0.00    +0.000 A 
ATOM     29  C   UNL     1       6.549  16.871  19.612  0.00  0.00    +0.000 A 
BRANCH  27  30
ATOM     30  C   UNL     1       9.522  14.998  18.175  0.00  0.00    +0.000 C 
ATOM     31  O   UNL     1      10.100  15.594  17.265  0.00  0.00    +0.000 OA
ATOM     32  N   UNL     1      10.141  14.007  18.936  0.00  0.00    +0.000 N 
ATOM     33  C   UNL     1      11.591  13.859  18.846  0.00  0.00    +0.000 C 
ATOM     34  C   UNL     1      11.978  12.479  18.326  0.00  0.00    +0.000 C 
ATOM     35  C   UNL     1      11.313  11.376  19.147  0.00  0.00    +0.000 C 
ATOM     36  C   UNL     1       9.803  11.580  19.198  0.00  0.00    +0.000 C 
ATOM     37  C   UNL     1       9.451  12.972  19.709  0.00  0.00    +0.000 C 
ENDBRANCH  27  30
ENDBRANCH   7  24
TORSDOF 5
ENDMDL
MODEL 5
REMARK VINA RESULT:      -8.2      3.917     10.786
REMARK  Name = 
REMARK  6 active torsions:
REMARK  status: ('A' for Active; 'I' for Inactive)
REMARK    1  A    between atoms: C_1  and  C_2
REMARK    2  A    between atoms: C_3  and  C_4
REMARK    3  A    between atoms: N_6  and  C_7
REMARK    4  A    between atoms: C_11  and  N_12
REMARK    5  A    between atoms: N_18  and  C_19
REMARK    6  A    between atoms: C_22  and  C_23
REMARK                            x       y       z     vdW  Elec       q    Type
REMARK                         _______ _______ _______ _____ _____    ______ ____
ROOT
ATOM      1  N   UNL     1       3.340  14.094  19.256  0.00  0.00    +0.000 N 
ATOM      2  C   UNL     1       2.194  13.684  19.938  0.00  0.00    +0.000 A 
ATOM      3  N   UNL     1       1.669  14.401  20.924  0.00  0.00    +0.000 NA
ATOM      4  C   UNL     1       0.635  13.851  21.543  0.00  0.00    +0.000 A 
ATOM      5  N   UNL     1       0.102  12.673  21.265  0.00  0.00    +0.000 NA
ATOM      6  C   UNL     1       0.693  12.031  20.265  0.00  0.00    +0.000 A 
ATOM      7  N   UNL     1       0.171  10.778  19.946  0.00  0.00    +0.000 N 
ATOM      8  N   UNL     1       1.721  12.505  19.567  0.00  0.00    +0.000 NA
ATOM      9  H   UNL     1       3.621  13.354  18.628  0.00  0.00    +0.000 HD
ATOM     10  H   UNL     1      -0.514  10.541  20.654  0.00  0.00    +0.000 HD
ENDROOT
BRANCH   1  15
ATOM     11  C   UNL     1       6.082  15.774  21.165  0.00  0.00    +0.000 A 
ATOM     12  C   UNL     1       6.360  16.837  20.310  0.00  0.00    +0.000 A 
ATOM     13  C   UNL     1       5.629  16.998  19.136  0.00  0.00    +0.000 A 
ATOM     14  C   UNL     1       4.618  16.095  18.811  0.00  0.00    +0.000 A 
ATOM     15  C   UNL     1       4.341  14.998  19.637  0.00  0.00    +0.000 A 
ATOM     16  C   UNL     1       5.078  14.866  20.820  0.00  0.00    +0.000 A 
BRANCH  11  19
ATOM     17  C   UNL     1       7.734  14.553  22.557  0.00  0.00    +0.000 C 
ATOM     18  O   UNL     1       8.213  13.792  21.728  0.00  0.00    +0.000 OA
ATOM     19  N   UNL     1       6.786  15.529  22.356  0.00  0.00    +0.000 N 
ATOM     20  H   UNL     1       6.627  16.164  23.126  0.00  0.00    +0.000 HD
BRANCH  17  23
ATOM     21  C   UNL     1       9.042  14.236  26.437  0.00  0.00    +0.000 C 
ATOM     22  C   UNL     1       8.582  14.376  25.061  0.00  0.00    +0.000 C 
ATOM     23  C   UNL     1       8.204  14.470  23.922  0.00  0.00    +0.000 C 
ENDBRANCH  17  23
ENDBRANCH  11  19
ENDBRANCH   1  15
BRANCH   7  24
ATOM     24  C   UNL     1       0.882   9.662  19.475  0.00  0.00    +0.000 A 
ATOM     25  C   UNL     1       1.287   9.515  18.141  0.00  0.00    +0.000 A 
ATOM     26  C   UNL     1       2.051   8.414  17.744  0.00  0.00    +0.000 A 
ATOM     27  C   UNL     1       2.431   7.449  18.682  0.00  0.00    +0.000 A 
ATOM     28  C   UNL     1       2.057   7.612  20.021  0.00  0.00    +0.000 A 
ATOM     29  C   UNL     1       1.272   8.697  20.406  0.00  0.00    +0.000 A 
BRANCH  27  30
ATOM     30  C   UNL     1       3.341   6.353  18.253  0.00  0.00    +0.000 C 
ATOM     31  O   UNL     1       4.314   6.665  17.567  0.00  0.00    +0.000 OA
ATOM     32  N   UNL     1       3.108   5.044  18.675  0.00  0.00    +0.000 N 
ATOM     33  C   UNL     1       4.183   4.063  18.539  0.00  0.00    +0.000 C 
ATOM     34  C   UNL     1       3.776   2.915  17.622  0.00  0.00    +0.000 C 
ATOM     35  C   UNL     1       2.454   2.296  18.070  0.00  0.00    +0.000 C 
ATOM     36  C   UNL     1       1.371   3.364  18.185  0.00  0.00    +0.000 C 
ATOM     37  C   UNL     1       1.815   4.503  19.097  0.00  0.00    +0.000 C 
ENDBRANCH  27  30
ENDBRANCH   7  24
TORSDOF 5
ENDMDL
MODEL 6
REMARK VINA RESULT:      -8.2      2.319     10.308
REMARK  Name = 
REMARK  6 active torsions:
REMARK  status: ('A' for Active; 'I' for Inactive)
REMARK    1  A    between atoms: C_1  and  C_2
REMARK    2  A    between atoms: C_3  and  C_4
REMARK    3  A    between atoms: N_6  and  C_7
REMARK    4  A    between atoms: C_11  and  N_12
REMARK    5  A    between atoms: N_18  and  C_19
REMARK    6  A    between atoms: C_22  and  C_23
REMARK                            x       y       z     vdW  Elec       q    Type
REMARK                         _______ _______ _______ _____ _____    ______ ____
ROOT
ATOM      1  N   UNL     1       0.657  11.311  19.126  0.00  0.00    +0.000 N 
ATOM      2  C   UNL     1       0.702  10.329  20.115  0.00  0.00    +0.000 A 
ATOM      3  N   UNL     1       0.341  10.577  21.368  0.00  0.00    +0.000 NA
ATOM      4  C   UNL     1       0.518   9.581  22.222  0.00  0.00    +0.000 A 
ATOM      5  N   UNL     1       1.018   8.391  21.932  0.00  0.00    +0.000 NA
ATOM      6  C   UNL     1       1.349   8.236  20.656  0.00  0.00    +0.000 A 
ATOM      7  N   UNL     1       1.892   7.000  20.308  0.00  0.00    +0.000 N 
ATOM      8  N   UNL     1       1.191   9.165  19.718  0.00  0.00    +0.000 NA
ATOM      9  H   UNL     1       1.073  10.938  18.284  0.00  0.00    +0.000 HD
ATOM     10  H   UNL     1       2.046   6.480  21.164  0.00  0.00    +0.000 HD
ENDROOT
BRANCH   1  15
ATOM     11  C   UNL     1       1.753  14.874  19.424  0.00  0.00    +0.000 A 
ATOM     12  C   UNL     1       0.515  15.511  19.434  0.00  0.00    +0.000 A 
ATOM     13  C   UNL     1      -0.657  14.762  19.368  0.00  0.00    +0.000 A 
ATOM     14  C   UNL     1      -0.595  13.371  19.288  0.00  0.00    +0.000 A 
ATOM     15  C   UNL     1       0.638  12.708  19.241  0.00  0.00    +0.000 A 
ATOM     16  C   UNL     1       1.802  13.482  19.326  0.00  0.00    +0.000 A 
BRANCH  11  19
ATOM     17  C   UNL     1       3.669  16.064  18.390  0.00  0.00    +0.000 C 
ATOM     18  O   UNL     1       3.307  16.109  17.222  0.00  0.00    +0.000 OA
ATOM     19  N   UNL     1       2.980  15.557  19.466  0.00  0.00    +0.000 N 
ATOM     20  H   UNL     1       3.371  15.749  20.378  0.00  0.00    +0.000 HD
BRANCH  17  23
ATOM     21  C   UNL     1       7.331  17.599  19.438  0.00  0.00    +0.000 C 
ATOM     22  C   UNL     1       6.031  17.070  19.043  0.00  0.00    +0.000 C 
ATOM     23  C   UNL     1       4.960  16.616  18.732  0.00  0.00    +0.000 C 
ENDBRANCH  17  23
ENDBRANCH  11  19
ENDBRANCH   1  15
BRANCH   7  24
ATOM     24  C   UNL     1       2.872   6.753  19.333  0.00  0.00    +0.000 A 
ATOM     25  C   UNL     1       2.955   7.467  18.129  0.00  0.00    +0.000 A 
ATOM     26  C   UNL     1       3.993   7.223  17.225  0.00  0.00    +0.000 A 
ATOM     27  C   UNL     1       4.970   6.266  17.519  0.00  0.00    +0.000 A 
ATOM     28  C   UNL     1       4.908   5.578  18.736  0.00  0.00    +0.000 A 
ATOM     29  C   UNL     1       3.856   5.805  19.621  0.00  0.00    +0.000 A 
BRANCH  27  30
ATOM     30  C   UNL     1       6.124   6.113  16.593  0.00  0.00    +0.000 C 
ATOM     31  O   UNL     1       6.988   6.990  16.620  0.00  0.00    +0.000 OA
ATOM     32  N   UNL     1       6.227   4.983  15.782  0.00  0.00    +0.000 N 
ATOM     33  C   UNL     1       7.511   4.686  15.154  0.00  0.00    +0.000 C 
ATOM     34  C   UNL     1       7.403   4.697  13.633  0.00  0.00    +0.000 C 
ATOM     35  C   UNL     1       6.277   3.782  13.156  0.00  0.00    +0.000 C 
ATOM     36  C   UNL     1       4.963   4.144  13.838  0.00  0.00    +0.000 C 
ATOM     37  C   UNL     1       5.109   4.138  15.356  0.00  0.00    +0.000 C 
ENDBRANCH  27  30
ENDBRANCH   7  24
TORSDOF 5
ENDMDL
MODEL 7
REMARK VINA RESULT:      -8.2      4.088     10.126
REMARK  Name = 
REMARK  6 active torsions:
REMARK  status: ('A' for Active; 'I' for Inactive)
REMARK    1  A    between atoms: C_1  and  C_2
REMARK    2  A    between atoms: C_3  and  C_4
REMARK    3  A    between atoms: N_6  and  C_7
REMARK    4  A    between atoms: C_11  and  N_12
REMARK    5  A    between atoms: N_18  and  C_19
REMARK    6  A    between atoms: C_22  and  C_23
REMARK                            x       y       z     vdW  Elec       q    Type
REMARK                         _______ _______ _______ _____ _____    ______ ____
ROOT
ATOM      1  N   UNL     1       3.246  13.598  18.044  0.00  0.00    +0.000 N 
ATOM      2  C   UNL     1       1.980  13.259  18.520  0.00  0.00    +0.000 A 
ATOM      3  N   UNL     1       1.162  14.163  19.046  0.00  0.00    +0.000 NA
ATOM      4  C   UNL     1       0.028  13.690  19.540  0.00  0.00    +0.000 A 
ATOM      5  N   UNL     1      -0.342  12.420  19.553  0.00  0.00    +0.000 NA
ATOM      6  C   UNL     1       0.539  11.591  19.006  0.00  0.00    +0.000 A 
ATOM      7  N   UNL     1       0.196  10.240  19.009  0.00  0.00    +0.000 N 
ATOM      8  N   UNL     1       1.694  11.968  18.464  0.00  0.00    +0.000 NA
ATOM      9  H   UNL     1       3.732  12.748  17.791  0.00  0.00    +0.000 HD
ATOM     10  H   UNL     1      -0.646  10.138  19.565  0.00  0.00    +0.000 HD
ENDROOT
BRANCH   1  15
ATOM     11  C   UNL     1       6.209  15.851  18.404  0.00  0.00    +0.000 A 
ATOM     12  C   UNL     1       5.588  16.995  18.898  0.00  0.00    +0.000 A 
ATOM     13  C   UNL     1       4.214  17.000  19.128  0.00  0.00    +0.000 A 
ATOM     14  C   UNL     1       3.455  15.862  18.861  0.00  0.00    +0.000 A 
ATOM     15  C   UNL     1       4.050  14.709  18.331  0.00  0.00    +0.000 A 
ATOM     16  C   UNL     1       5.435  14.722  18.125  0.00  0.00    +0.000 A 
BRANCH  11  19
ATOM     17  C   UNL     1       8.316  14.620  17.957  0.00  0.00    +0.000 C 
ATOM     18  O   UNL     1       7.904  13.469  17.914  0.00  0.00    +0.000 OA
ATOM     19  N   UNL     1       7.583  15.771  18.125  0.00  0.00    +0.000 N 
ATOM     20  H   UNL     1       8.076  16.641  17.977  0.00  0.00    +0.000 HD
BRANCH  17  23
ATOM     21  C   UNL     1      12.331  15.296  17.412  0.00  0.00    +0.000 C 
ATOM     22  C   UNL     1      10.911  15.044  17.630  0.00  0.00    +0.000 C 
ATOM     23  C   UNL     1       9.734  14.850  17.793  0.00  0.00    +0.000 C 
ENDBRANCH  17  23
ENDBRANCH  11  19
ENDBRANCH   1  15
BRANCH   7  24
ATOM     24  C   UNL     1       1.070   9.147  19.133  0.00  0.00    +0.000 A 
ATOM     25  C   UNL     1       1.256   8.444  20.331  0.00  0.00    +0.000 A 
ATOM     26  C   UNL     1       2.089   7.322  20.378  0.00  0.00    +0.000 A 
ATOM     27  C   UNL     1       2.739   6.882  19.221  0.00  0.00    +0.000 A 
ATOM     28  C   UNL     1       2.526   7.561  18.017  0.00  0.00    +0.000 A 
ATOM     29  C   UNL     1       1.717   8.696  17.981  0.00  0.00    +0.000 A 
BRANCH  27  30
ATOM     30  C   UNL     1       3.523   5.619  19.277  0.00  0.00    +0.000 C 
ATOM     31  O   UNL     1       4.742   5.706  19.123  0.00  0.00    +0.000 OA
ATOM     32  N   UNL     1       2.886   4.410  19.554  0.00  0.00    +0.000 N 
ATOM     33  C   UNL     1       3.701   3.262  19.945  0.00  0.00    +0.000 C 
ATOM     34  C   UNL     1       3.554   2.112  18.954  0.00  0.00    +0.000 C 
ATOM     35  C   UNL     1       2.085   1.757  18.738  0.00  0.00    +0.000 C 
ATOM     36  C   UNL     1       1.289   2.990  18.324  0.00  0.00    +0.000 C 
ATOM     37  C   UNL     1       1.468   4.125  19.327  0.00  0.00    +0.000 C 
ENDBRANCH  27  30
ENDBRANCH   7  24
TORSDOF 5
ENDMDL
MODEL 8
REMARK VINA RESULT:      -8.2      3.751      9.934
REMARK  Name = 
REMARK  6 active torsions:
REMARK  status: ('A' for Active; 'I' for Inactive)
REMARK    1  A    between atoms: C_1  and  C_2
REMARK    2  A    between atoms: C_3  and  C_4
REMARK    3  A    between atoms: N_6  and  C_7
REMARK    4  A    between atoms: C_11  and  N_12
REMARK    5  A    between atoms: N_18  and  C_19
REMARK    6  A    between atoms: C_22  and  C_23
REMARK                            x       y       z     vdW  Elec       q    Type
REMARK                         _______ _______ _______ _____ _____    ______ ____
ROOT
ATOM      1  N   UNL     1       3.044  14.074  18.903  0.00  0.00    +0.000 N 
ATOM      2  C   UNL     1       2.061  13.643  19.792  0.00  0.00    +0.000 A 
ATOM      3  N   UNL     1       1.678  14.380  20.828  0.00  0.00    +0.000 NA
ATOM      4  C   UNL     1       0.801  13.811  21.642  0.00  0.00    +0.000 A 
ATOM      5  N   UNL     1       0.294  12.597  21.508  0.00  0.00    +0.000 NA
ATOM      6  C   UNL     1       0.734  11.937  20.444  0.00  0.00    +0.000 A 
ATOM      7  N   UNL     1       0.235  10.647  20.271  0.00  0.00    +0.000 N 
ATOM      8  N   UNL     1       1.596  12.426  19.557  0.00  0.00    +0.000 NA
ATOM      9  H   UNL     1       3.252  13.320  18.263  0.00  0.00    +0.000 HD
ATOM     10  H   UNL     1      -0.301  10.411  21.098  0.00  0.00    +0.000 HD
ENDROOT
BRANCH   1  15
ATOM     11  C   UNL     1       6.378  15.766  19.011  0.00  0.00    +0.000 A 
ATOM     12  C   UNL     1       5.987  17.053  19.374  0.00  0.00    +0.000 A 
ATOM     13  C   UNL     1       4.643  17.337  19.600  0.00  0.00    +0.000 A 
ATOM     14  C   UNL     1       3.683  16.336  19.461  0.00  0.00    +0.000 A 
ATOM     15  C   UNL     1       4.045  15.043  19.064  0.00  0.00    +0.000 A 
ATOM     16  C   UNL     1       5.404  14.776  18.859  0.00  0.00    +0.000 A 
BRANCH  11  19
ATOM     17  C   UNL     1       8.127  14.311  18.023  0.00  0.00    +0.000 C 
ATOM     18  O   UNL     1       7.438  13.517  17.397  0.00  0.00    +0.000 OA
ATOM     19  N   UNL     1       7.708  15.403  18.745  0.00  0.00    +0.000 N 
ATOM     20  H   UNL     1       8.432  16.032  19.064  0.00  0.00    +0.000 HD
BRANCH  17  23
ATOM     21  C   UNL     1      12.192  13.724  18.018  0.00  0.00    +0.000 C 
ATOM     22  C   UNL     1      10.753  13.959  18.018  0.00  0.00    +0.000 C 
ATOM     23  C   UNL     1       9.562  14.133  18.013  0.00  0.00    +0.000 C 
ENDBRANCH  17  23
ENDBRANCH  11  19
ENDBRANCH   1  15
BRANCH   7  24
ATOM     24  C   UNL     1       0.913   9.545  19.725  0.00  0.00    +0.000 A 
ATOM     25  C   UNL     1       1.231   9.436  18.364  0.00  0.00    +0.000 A 
ATOM     26  C   UNL     1       1.968   8.347  17.888  0.00  0.00    +0.000 A 
ATOM     27  C   UNL     1       2.406   7.356  18.772  0.00  0.00    +0.000 A 
ATOM     28  C   UNL     1       2.120   7.482  20.136  0.00  0.00    +0.000 A 
ATOM     29  C   UNL     1       1.362   8.555  20.601  0.00  0.00    +0.000 A 
BRANCH  27  30
ATOM     30  C   UNL     1       3.286   6.274  18.255  0.00  0.00    +0.000 C 
ATOM     31  O   UNL     1       4.223   6.608  17.530  0.00  0.00    +0.000 OA
ATOM     32  N   UNL     1       3.069   4.951  18.639  0.00  0.00    +0.000 N 
ATOM     33  C   UNL     1       4.128   3.972  18.410  0.00  0.00    +0.000 C 
ATOM     34  C   UNL     1       3.667   2.861  17.473  0.00  0.00    +0.000 C 
ATOM     35  C   UNL     1       2.367   2.231  17.968  0.00  0.00    +0.000 C 
ATOM     36  C   UNL     1       1.298   3.298  18.180  0.00  0.00    +0.000 C 
ATOM     37  C   UNL     1       1.796   4.399  19.109  0.00  0.00    +0.000 C 
ENDBRANCH  27  30
ENDBRANCH   7  24
TORSDOF 5
ENDMDL
MODEL 9
REMARK VINA RESULT:      -8.1      3.358      6.288
REMARK  Name = 
REMARK  6 active torsions:
REMARK  status: ('A' for Active; 'I' for Inactive)
REMARK    1  A    between atoms: C_1  and  C_2
REMARK    2  A    between atoms: C_3  and  C_4
REMARK    3  A    between atoms: N_6  and  C_7
REMARK    4  A    between atoms: C_11  and  N_12
REMARK    5  A    between atoms: N_18  and  C_19
REMARK    6  A    between atoms: C_22  and  C_23
REMARK                            x       y       z     vdW  Elec       q    Type
REMARK                         _______ _______ _______ _____ _____    ______ ____
ROOT
ATOM      1  N   UNL     1       1.621   9.435  20.232  0.00  0.00    +0.000 N 
ATOM      2  C   UNL     1       0.723  10.311  19.623  0.00  0.00    +0.000 A 
ATOM      3  N   UNL     1      -0.366   9.880  19.000  0.00  0.00    +0.000 NA
ATOM      4  C   UNL     1      -1.083  10.811  18.389  0.00  0.00    +0.000 A 
ATOM      5  N   UNL     1      -0.801  12.103  18.349  0.00  0.00    +0.000 NA
ATOM      6  C   UNL     1       0.306  12.440  19.000  0.00  0.00    +0.000 A 
ATOM      7  N   UNL     1       0.647  13.791  18.974  0.00  0.00    +0.000 N 
ATOM      8  N   UNL     1       1.081  11.585  19.662  0.00  0.00    +0.000 NA
ATOM      9  H   UNL     1       2.423   9.963  20.547  0.00  0.00    +0.000 HD
ATOM     10  H   UNL     1       0.017  14.255  18.330  0.00  0.00    +0.000 HD
ENDROOT
BRANCH   1  15
ATOM     11  C   UNL     1       2.757   6.187  18.766  0.00  0.00    +0.000 A 
ATOM     12  C   UNL     1       2.224   5.299  19.696  0.00  0.00    +0.000 A 
ATOM     13  C   UNL     1       1.482   5.777  20.773  0.00  0.00    +0.000 A 
ATOM     14  C   UNL     1       1.272   7.147  20.926  0.00  0.00    +0.000 A 
ATOM     15  C   UNL     1       1.826   8.064  20.023  0.00  0.00    +0.000 A 
ATOM     16  C   UNL     1       2.554   7.558  18.939  0.00  0.00    +0.000 A 
BRANCH  11  19
ATOM     17  C   UNL     1       4.839   5.357  17.701  0.00  0.00    +0.000 C 
ATOM     18  O   UNL     1       5.530   5.143  18.687  0.00  0.00    +0.000 OA
ATOM     19  N   UNL     1       3.534   5.788  17.666  0.00  0.00    +0.000 N 
ATOM     20  H   UNL     1       3.077   5.758  16.764  0.00  0.00    +0.000 HD
BRANCH  17  23
ATOM     21  C   UNL     1       6.521   4.638  14.024  0.00  0.00    +0.000 C 
ATOM     22  C   UNL     1       5.910   4.914  15.319  0.00  0.00    +0.000 C 
ATOM     23  C   UNL     1       5.411   5.123  16.394  0.00  0.00    +0.000 C 
ENDBRANCH  17  23
ENDBRANCH  11  19
ENDBRANCH   1  15
BRANCH   7  24
ATOM     24  C   UNL     1       1.942  14.334  18.960  0.00  0.00    +0.000 A 
ATOM     25  C   UNL     1       2.713  14.453  17.795  0.00  0.00    +0.000 A 
ATOM     26  C   UNL     1       3.970  15.064  17.830  0.00  0.00    +0.000 A 
ATOM     27  C   UNL     1       4.469  15.575  19.032  0.00  0.00    +0.000 A 
ATOM     28  C   UNL     1       3.685  15.488  20.189  0.00  0.00    +0.000 A 
ATOM     29  C   UNL     1       2.445  14.854  20.154  0.00  0.00    +0.000 A 
BRANCH  27  30
ATOM     30  C   UNL     1       5.755  16.321  19.014  0.00  0.00    +0.000 C 
ATOM     31  O   UNL     1       5.702  17.529  18.782  0.00  0.00    +0.000 OA
ATOM     32  N   UNL     1       6.950  15.666  19.310  0.00  0.00    +0.000 N 
ATOM     33  C   UNL     1       8.129  16.468  19.626  0.00  0.00    +0.000 C 
ATOM     34  C   UNL     1       9.254  16.222  18.627  0.00  0.00    +0.000 C 
ATOM     35  C   UNL     1       9.561  14.731  18.501  0.00  0.00    +0.000 C 
ATOM     36  C   UNL     1       8.296  13.949  18.163  0.00  0.00    +0.000 C 
ATOM     37  C   UNL     1       7.188  14.228  19.172  0.00  0.00    +0.000 C 
ENDBRANCH  27  30
ENDBRANCH   7  24
TORSDOF 5
ENDMDL
