MODEL 1
REMARK VINA RESULT:      -6.8      0.000      0.000
REMARK  Name = 
REMARK  9 active torsions:
REMARK  status: ('A' for Active; 'I' for Inactive)
REMARK    1  A    between atoms: C_1  and  C_2
REMARK    2  A    between atoms: C_3  and  C_4
REMARK    3  A    between atoms: C_7  and  C_8
REMARK    4  A    between atoms: C_8  and  N_9
REMARK    5  A    between atoms: C_12  and  C_13
REMARK    6  A    between atoms: C_13  and  O_15
REMARK    7  A    between atoms: C_19  and  C_20
REMARK    8  A    between atoms: C_20  and  C_21
REMARK    9  A    between atoms: C_20  and  O_22
REMARK                            x       y       z     vdW  Elec       q    Type
REMARK                         _______ _______ _______ _____ _____    ______ ____
ROOT
ATOM      1  C   UNL     1       2.365   9.875  17.812  0.00  0.00    +0.000 C 
ATOM      2  C   UNL     1       1.106   9.346  18.494  0.00  0.00    +0.000 C 
ATOM      3  C   UNL     1       1.388   8.694  19.827  0.00  0.00    +0.000 C 
ATOM      4  C   UNL     1       0.975   9.470  20.847  0.00  0.00    +0.000 C 
ATOM      5  N   UNL     1       0.266  10.562  20.393  0.00  0.00    +0.000 N 
ATOM      6  C   UNL     1       0.774  11.826  20.408  0.00  0.00    +0.000 C 
ATOM      7  O   UNL     1       1.324  12.413  21.310  0.00  0.00    +0.000 OA
ATOM      8  C   UNL     1       0.458  12.036  18.914  0.00  0.00    +0.000 C 
ATOM      9  C   UNL     1       0.163  10.494  18.903  0.00  0.00    +0.000 C 
ENDROOT
BRANCH   3  10
ATOM     10  C   UNL     1       1.944   7.345  19.899  0.00  0.00    +0.000 A 
ATOM     11  C   UNL     1       3.013   7.007  19.061  0.00  0.00    +0.000 A 
ATOM     12  C   UNL     1       3.538   5.711  19.060  0.00  0.00    +0.000 A 
ATOM     13  C   UNL     1       3.006   4.728  19.902  0.00  0.00    +0.000 A 
ATOM     14  C   UNL     1       1.946   5.078  20.754  0.00  0.00    +0.000 A 
ATOM     15  C   UNL     1       1.416   6.373  20.752  0.00  0.00    +0.000 A 
BRANCH  13  16
ATOM     16  C   UNL     1       3.524   3.313  19.853  0.00  0.00    +0.000 C 
BRANCH  16  17
ATOM     17  N   UNL     1       4.913   3.254  19.410  0.00  0.00    +0.000 NA
ATOM     18  H   UNL     1       5.216   2.281  19.420  0.00  0.00    +0.000 HD
ATOM     19  H   UNL     1       5.495   3.743  20.088  0.00  0.00    +0.000 HD
ENDBRANCH  16  17
ENDBRANCH  13  16
ENDBRANCH   3  10
BRANCH   4  20
ATOM     20  C   UNL     1       1.141   9.202  22.303  0.00  0.00    +0.000 C 
ATOM     21  O   UNL     1       0.216   8.976  23.070  0.00  0.00    +0.000 OA
BRANCH  20  22
ATOM     22  O   UNL     1       2.424   9.247  22.725  0.00  0.00    +0.000 OA
ATOM     23  H   UNL     1       2.664   8.556  23.381  0.00  0.00    +0.000 HD
ENDBRANCH  20  22
ENDBRANCH   4  20
BRANCH   8  24
ATOM     24  C   UNL     1      -0.761  12.893  18.608  0.00  0.00    +0.000 C 
ATOM     25  C   UNL     1      -0.494  14.372  18.836  0.00  0.00    +0.000 C 
BRANCH  24  26
ATOM     26  O   UNL     1      -1.127  12.672  17.247  0.00  0.00    +0.000 OA
ATOM     27  H   UNL     1      -1.675  11.867  17.198  0.00  0.00    +0.000 HD
ENDBRANCH  24  26
ENDBRANCH   8  24
TORSDOF 7
ENDMDL
MODEL 2
REMARK VINA RESULT:      -6.5      0.276      1.034
REMARK  Name = 
REMARK  9 active torsions:
REMARK  status: ('A' for Active; 'I' for Inactive)
REMARK    1  A    between atoms: C_1  and  C_2
REMARK    2  A    between atoms: C_3  and  C_4
REMARK    3  A    between atoms: C_7  and  C_8
REMARK    4  A    between atoms: C_8  and  N_9
REMARK    5  A    between atoms: C_12  and  C_13
REMARK    6  A    between atoms: C_13  and  O_15
REMARK    7  A    between atoms: C_19  and  C_20
REMARK    8  A    between atoms: C_20  and  C_21
REMARK    9  A    between atoms: C_20  and  O_22
REMARK                            x       y       z     vdW  Elec       q    Type
REMARK                         _______ _______ _______ _____ _____    ______ ____
ROOT
ATOM      1  C   UNL     1       2.304   9.871  17.832  0.00  0.00    +0.000 C 
ATOM      2  C   UNL     1       1.033   9.402  18.536  0.00  0.00    +0.000 C 
ATOM      3  C   UNL     1       1.308   8.742  19.867  0.00  0.00    +0.000 C 
ATOM      4  C   UNL     1       0.946   9.539  20.891  0.00  0.00    +0.000 C 
ATOM      5  N   UNL     1       0.280  10.661  20.444  0.00  0.00    +0.000 N 
ATOM      6  C   UNL     1       0.845  11.900  20.446  0.00  0.00    +0.000 C 
ATOM      7  O   UNL     1       1.435  12.465  21.336  0.00  0.00    +0.000 OA
ATOM      8  C   UNL     1       0.514  12.120  18.956  0.00  0.00    +0.000 C 
ATOM      9  C   UNL     1       0.150  10.592  18.957  0.00  0.00    +0.000 C 
ENDROOT
BRANCH   3  10
ATOM     10  C   UNL     1       1.803   7.370  19.936  0.00  0.00    +0.000 A 
ATOM     11  C   UNL     1       1.092   6.430  20.692  0.00  0.00    +0.000 A 
ATOM     12  C   UNL     1       1.561   5.120  20.828  0.00  0.00    +0.000 A 
ATOM     13  C   UNL     1       2.751   4.723  20.208  0.00  0.00    +0.000 A 
ATOM     14  C   UNL     1       3.451   5.665  19.437  0.00  0.00    +0.000 A 
ATOM     15  C   UNL     1       2.985   6.978  19.304  0.00  0.00    +0.000 A 
BRANCH  13  16
ATOM     16  C   UNL     1       3.295   3.332  20.411  0.00  0.00    +0.000 C 
BRANCH  16  17
ATOM     17  N   UNL     1       4.268   2.970  19.386  0.00  0.00    +0.000 NA
ATOM     18  H   UNL     1       3.952   3.344  18.492  0.00  0.00    +0.000 HD
ATOM     19  H   UNL     1       4.280   1.957  19.286  0.00  0.00    +0.000 HD
ENDBRANCH  16  17
ENDBRANCH  13  16
ENDBRANCH   3  10
BRANCH   4  20
ATOM     20  C   UNL     1       1.124   9.270  22.346  0.00  0.00    +0.000 C 
ATOM     21  O   UNL     1       0.202   9.124  23.135  0.00  0.00    +0.000 OA
BRANCH  20  22
ATOM     22  O   UNL     1       2.416   9.215  22.738  0.00  0.00    +0.000 OA
ATOM     23  H   UNL     1       3.065   9.484  22.051  0.00  0.00    +0.000 HD
ENDBRANCH  20  22
ENDBRANCH   4  20
BRANCH   8  24
ATOM     24  C   UNL     1      -0.670  13.030  18.666  0.00  0.00    +0.000 C 
ATOM     25  C   UNL     1      -0.308  14.500  18.796  0.00  0.00    +0.000 C 
BRANCH  24  26
ATOM     26  O   UNL     1      -1.123  12.758  17.341  0.00  0.00    +0.000 OA
ATOM     27  H   UNL     1      -0.922  13.529  16.779  0.00  0.00    +0.000 HD
ENDBRANCH  24  26
ENDBRANCH   8  24
TORSDOF 7
ENDMDL
MODEL 3
REMARK VINA RESULT:      -6.5      4.905      7.849
REMARK  Name = 
REMARK  9 active torsions:
REMARK  status: ('A' for Active; 'I' for Inactive)
REMARK    1  A    between atoms: C_1  and  C_2
REMARK    2  A    between atoms: C_3  and  C_4
REMARK    3  A    between atoms: C_7  and  C_8
REMARK    4  A    between atoms: C_8  and  N_9
REMARK    5  A    between atoms: C_12  and  C_13
REMARK    6  A    between atoms: C_13  and  O_15
REMARK    7  A    between atoms: C_19  and  C_20
REMARK    8  A    between atoms: C_20  and  C_21
REMARK    9  A    between atoms: C_20  and  O_22
REMARK                            x       y       z     vdW  Elec       q    Type
REMARK                         _______ _______ _______ _____ _____    ______ ____
ROOT
ATOM      1  C   UNL     1       3.409   1.955  17.559  0.00  0.00    +0.000 C 
ATOM      2  C   UNL     1       4.377   2.900  18.267  0.00  0.00    +0.000 C 
ATOM      3  C   UNL     1       4.512   4.233  17.571  0.00  0.00    +0.000 C 
ATOM      4  C   UNL     1       3.889   5.209  18.260  0.00  0.00    +0.000 C 
ATOM      5  N   UNL     1       3.443   4.754  19.483  0.00  0.00    +0.000 N 
ATOM      6  C   UNL     1       2.126   4.531  19.750  0.00  0.00    +0.000 C 
ATOM      7  O   UNL     1       1.177   5.249  19.542  0.00  0.00    +0.000 OA
ATOM      8  C   UNL     1       2.407   3.099  20.245  0.00  0.00    +0.000 C 
ATOM      9  C   UNL     1       3.842   3.323  19.648  0.00  0.00    +0.000 C 
ENDROOT
BRANCH   3  10
ATOM     10  C   UNL     1       5.323   4.372  16.364  0.00  0.00    +0.000 A 
ATOM     11  C   UNL     1       6.659   4.772  16.489  0.00  0.00    +0.000 A 
ATOM     12  C   UNL     1       7.455   4.968  15.357  0.00  0.00    +0.000 A 
ATOM     13  C   UNL     1       6.930   4.765  14.075  0.00  0.00    +0.000 A 
ATOM     14  C   UNL     1       5.595   4.346  13.957  0.00  0.00    +0.000 A 
ATOM     15  C   UNL     1       4.796   4.154  15.090  0.00  0.00    +0.000 A 
BRANCH  13  16
ATOM     16  C   UNL     1       7.765   5.044  12.851  0.00  0.00    +0.000 C 
BRANCH  16  17
ATOM     17  N   UNL     1       8.876   5.943  13.140  0.00  0.00    +0.000 NA
ATOM     18  H   UNL     1       8.657   6.468  13.986  0.00  0.00    +0.000 HD
ATOM     19  H   UNL     1       8.950   6.626  12.389  0.00  0.00    +0.000 HD
ENDBRANCH  16  17
ENDBRANCH  13  16
ENDBRANCH   3  10
BRANCH   4  20
ATOM     20  C   UNL     1       3.741   6.637  17.862  0.00  0.00    +0.000 C 
ATOM     21  O   UNL     1       4.674   7.362  17.545  0.00  0.00    +0.000 OA
BRANCH  20  22
ATOM     22  O   UNL     1       2.467   7.085  17.894  0.00  0.00    +0.000 OA
ATOM     23  H   UNL     1       2.338   7.920  18.397  0.00  0.00    +0.000 HD
ENDBRANCH  20  22
ENDBRANCH   4  20
BRANCH   8  24
ATOM     24  C   UNL     1       2.396   2.904  21.754  0.00  0.00    +0.000 C 
ATOM     25  C   UNL     1       1.051   2.406  22.257  0.00  0.00    +0.000 C 
BRANCH  24  26
ATOM     26  O   UNL     1       3.415   1.962  22.086  0.00  0.00    +0.000 OA
ATOM     27  H   UNL     1       4.143   2.435  22.530  0.00  0.00    +0.000 HD
ENDBRANCH  24  26
ENDBRANCH   8  24
TORSDOF 7
ENDMDL
MODEL 4
REMARK VINA RESULT:      -6.3      1.567      1.852
REMARK  Name = 
REMARK  9 active torsions:
REMARK  status: ('A' for Active; 'I' for Inactive)
REMARK    1  A    between atoms: C_1  and  C_2
REMARK    2  A    between atoms: C_3  and  C_4
REMARK    3  A    between atoms: C_7  and  C_8
REMARK    4  A    between atoms: C_8  and  N_9
REMARK    5  A    between atoms: C_12  and  C_13
REMARK    6  A    between atoms: C_13  and  O_15
REMARK    7  A    between atoms: C_19  and  C_20
REMARK    8  A    between atoms: C_20  and  C_21
REMARK    9  A    between atoms: C_20  and  O_22
REMARK                            x       y       z     vdW  Elec       q    Type
REMARK                         _______ _______ _______ _____ _____    ______ ____
ROOT
ATOM      1  C   UNL     1       2.655  10.488  17.462  0.00  0.00    +0.000 C 
ATOM      2  C   UNL     1       1.486   9.543  17.727  0.00  0.00    +0.000 C 
ATOM      3  C   UNL     1       1.827   8.445  18.707  0.00  0.00    +0.000 C 
ATOM      4  C   UNL     1       1.238   8.656  19.900  0.00  0.00    +0.000 C 
ATOM      5  N   UNL     1       0.362   9.719  19.847  0.00  0.00    +0.000 N 
ATOM      6  C   UNL     1       0.631  10.922  20.427  0.00  0.00    +0.000 C 
ATOM      7  O   UNL     1       1.028  11.156  21.544  0.00  0.00    +0.000 OA
ATOM      8  C   UNL     1       0.343  11.685  19.119  0.00  0.00    +0.000 C 
ATOM      9  C   UNL     1       0.335  10.262  18.455  0.00  0.00    +0.000 C 
ENDROOT
BRANCH   3  10
ATOM     10  C   UNL     1       2.615   7.287  18.293  0.00  0.00    +0.000 A 
ATOM     11  C   UNL     1       3.952   7.476  17.923  0.00  0.00    +0.000 A 
ATOM     12  C   UNL     1       4.726   6.403  17.469  0.00  0.00    +0.000 A 
ATOM     13  C   UNL     1       4.177   5.119  17.379  0.00  0.00    +0.000 A 
ATOM     14  C   UNL     1       2.841   4.933  17.768  0.00  0.00    +0.000 A 
ATOM     15  C   UNL     1       2.064   6.006  18.218  0.00  0.00    +0.000 A 
BRANCH  13  16
ATOM     16  C   UNL     1       4.987   3.975  16.823  0.00  0.00    +0.000 C 
BRANCH  16  17
ATOM     17  N   UNL     1       6.396   4.075  17.188  0.00  0.00    +0.000 NA
ATOM     18  H   UNL     1       6.841   3.175  17.013  0.00  0.00    +0.000 HD
ATOM     19  H   UNL     1       6.464   4.239  18.190  0.00  0.00    +0.000 HD
ENDBRANCH  16  17
ENDBRANCH  13  16
ENDBRANCH   3  10
BRANCH   4  20
ATOM     20  C   UNL     1       1.390   7.835  21.134  0.00  0.00    +0.000 C 
ATOM     21  O   UNL     1       1.045   6.666  21.229  0.00  0.00    +0.000 OA
BRANCH  20  22
ATOM     22  O   UNL     1       1.938   8.505  22.173  0.00  0.00    +0.000 OA
ATOM     23  H   UNL     1       1.865   8.048  23.040  0.00  0.00    +0.000 HD
ENDBRANCH  20  22
ENDBRANCH   4  20
BRANCH   8  24
ATOM     24  C   UNL     1      -0.997  12.401  19.049  0.00  0.00    +0.000 C 
ATOM     25  C   UNL     1      -1.012  13.672  19.881  0.00  0.00    +0.000 C 
BRANCH  24  26
ATOM     26  O   UNL     1      -1.260  12.714  17.682  0.00  0.00    +0.000 OA
ATOM     27  H   UNL     1      -1.740  13.562  17.643  0.00  0.00    +0.000 HD
ENDBRANCH  24  26
ENDBRANCH   8  24
TORSDOF 7
ENDMDL
MODEL 5
REMARK VINA RESULT:      -6.3      3.496      7.856
REMARK  Name = 
REMARK  9 active torsions:
REMARK  status: ('A' for Active; 'I' for Inactive)
REMARK    1  A    between atoms: C_1  and  C_2
REMARK    2  A    between atoms: C_3  and  C_4
REMARK    3  A    between atoms: C_7  and  C_8
REMARK    4  A    between atoms: C_8  and  N_9
REMARK    5  A    between atoms: C_12  and  C_13
REMARK    6  A    between atoms: C_13  and  O_15
REMARK    7  A    between atoms: C_19  and  C_20
REMARK    8  A    between atoms: C_20  and  C_21
REMARK    9  A    between atoms: C_20  and  O_22
REMARK                            x       y       z     vdW  Elec       q    Type
REMARK                         _______ _______ _______ _____ _____    ______ ____
ROOT
ATOM      1  C   UNL     1       2.239   5.223  20.771  0.00  0.00    +0.000 C 
ATOM      2  C   UNL     1       2.031   5.317  19.262  0.00  0.00    +0.000 C 
ATOM      3  C   UNL     1       2.761   6.484  18.639  0.00  0.00    +0.000 C 
ATOM      4  C   UNL     1       3.830   6.070  17.931  0.00  0.00    +0.000 C 
ATOM      5  N   UNL     1       3.867   4.694  17.837  0.00  0.00    +0.000 N 
ATOM      6  C   UNL     1       4.764   3.935  18.526  0.00  0.00    +0.000 C 
ATOM      7  O   UNL     1       5.960   4.075  18.627  0.00  0.00    +0.000 OA
ATOM      8  C   UNL     1       3.651   3.041  19.108  0.00  0.00    +0.000 C 
ATOM      9  C   UNL     1       2.672   4.124  18.530  0.00  0.00    +0.000 C 
ENDROOT
BRANCH   3  10
ATOM     10  C   UNL     1       2.239   7.844  18.754  0.00  0.00    +0.000 A 
ATOM     11  C   UNL     1       1.668   8.250  19.966  0.00  0.00    +0.000 A 
ATOM     12  C   UNL     1       1.109   9.524  20.101  0.00  0.00    +0.000 A 
ATOM     13  C   UNL     1       1.114  10.420  19.026  0.00  0.00    +0.000 A 
ATOM     14  C   UNL     1       1.703  10.013  17.818  0.00  0.00    +0.000 A 
ATOM     15  C   UNL     1       2.259   8.736  17.680  0.00  0.00    +0.000 A 
BRANCH  13  16
ATOM     16  C   UNL     1       0.449  11.768  19.147  0.00  0.00    +0.000 C 
BRANCH  16  17
ATOM     17  N   UNL     1      -0.365  12.083  17.978  0.00  0.00    +0.000 NA
ATOM     18  H   UNL     1       0.202  12.617  17.322  0.00  0.00    +0.000 HD
ATOM     19  H   UNL     1      -1.127  12.694  18.263  0.00  0.00    +0.000 HD
ENDBRANCH  16  17
ENDBRANCH  13  16
ENDBRANCH   3  10
BRANCH   4  20
ATOM     20  C   UNL     1       4.831   6.924  17.234  0.00  0.00    +0.000 C 
ATOM     21  O   UNL     1       5.710   7.556  17.802  0.00  0.00    +0.000 OA
BRANCH  20  22
ATOM     22  O   UNL     1       4.680   6.959  15.891  0.00  0.00    +0.000 OA
ATOM     23  H   UNL     1       5.267   7.597  15.429  0.00  0.00    +0.000 HD
ENDBRANCH  20  22
ENDBRANCH   4  20
BRANCH   8  24
ATOM     24  C   UNL     1       3.496   1.671  18.466  0.00  0.00    +0.000 C 
ATOM     25  C   UNL     1       4.394   0.629  19.113  0.00  0.00    +0.000 C 
BRANCH  24  26
ATOM     26  O   UNL     1       2.131   1.276  18.589  0.00  0.00    +0.000 OA
ATOM     27  H   UNL     1       1.880   0.768  17.796  0.00  0.00    +0.000 HD
ENDBRANCH  24  26
ENDBRANCH   8  24
TORSDOF 7
ENDMDL
MODEL 6
REMARK VINA RESULT:      -6.3      3.966      6.862
REMARK  Name = 
REMARK  9 active torsions:
REMARK  status: ('A' for Active; 'I' for Inactive)
REMARK    1  A    between atoms: C_1  and  C_2
REMARK    2  A    between atoms: C_3  and  C_4
REMARK    3  A    between atoms: C_7  and  C_8
REMARK    4  A    between atoms: C_8  and  N_9
REMARK    5  A    between atoms: C_12  and  C_13
REMARK    6  A    between atoms: C_13  and  O_15
REMARK    7  A    between atoms: C_19  and  C_20
REMARK    8  A    between atoms: C_20  and  C_21
REMARK    9  A    between atoms: C_20  and  O_22
REMARK                            x       y       z     vdW  Elec       q    Type
REMARK                         _______ _______ _______ _____ _____    ______ ____
ROOT
ATOM      1  C   UNL     1       2.247   7.808  17.565  0.00  0.00    +0.000 C 
ATOM      2  C   UNL     1       3.085   7.354  18.758  0.00  0.00    +0.000 C 
ATOM      3  C   UNL     1       2.254   6.743  19.862  0.00  0.00    +0.000 C 
ATOM      4  C   UNL     1       2.418   5.407  19.914  0.00  0.00    +0.000 C 
ATOM      5  N   UNL     1       3.416   4.990  19.059  0.00  0.00    +0.000 N 
ATOM      6  C   UNL     1       3.159   4.324  17.899  0.00  0.00    +0.000 C 
ATOM      7  O   UNL     1       2.442   3.369  17.713  0.00  0.00    +0.000 OA
ATOM      8  C   UNL     1       4.000   5.316  17.072  0.00  0.00    +0.000 C 
ATOM      9  C   UNL     1       4.011   6.182  18.382  0.00  0.00    +0.000 C 
ENDROOT
BRANCH   3  10
ATOM     10  C   UNL     1       1.484   7.584  20.775  0.00  0.00    +0.000 A 
ATOM     11  C   UNL     1       0.087   7.510  20.749  0.00  0.00    +0.000 A 
ATOM     12  C   UNL     1      -0.688   8.337  21.568  0.00  0.00    +0.000 A 
ATOM     13  C   UNL     1      -0.079   9.253  22.433  0.00  0.00    +0.000 A 
ATOM     14  C   UNL     1       1.324   9.310  22.469  0.00  0.00    +0.000 A 
ATOM     15  C   UNL     1       2.100   8.486  21.646  0.00  0.00    +0.000 A 
BRANCH  13  16
ATOM     16  C   UNL     1      -0.913  10.194  23.266  0.00  0.00    +0.000 C 
BRANCH  16  17
ATOM     17  N   UNL     1      -0.570  11.590  23.020  0.00  0.00    +0.000 NA
ATOM     18  H   UNL     1      -0.354  11.702  22.030  0.00  0.00    +0.000 HD
ATOM     19  H   UNL     1       0.284  11.813  23.527  0.00  0.00    +0.000 HD
ENDBRANCH  16  17
ENDBRANCH  13  16
ENDBRANCH   3  10
BRANCH   4  20
ATOM     20  C   UNL     1       1.718   4.451  20.817  0.00  0.00    +0.000 C 
ATOM     21  O   UNL     1       2.175   4.046  21.876  0.00  0.00    +0.000 OA
BRANCH  20  22
ATOM     22  O   UNL     1       0.516   4.042  20.355  0.00  0.00    +0.000 OA
ATOM     23  H   UNL     1      -0.228   4.161  20.986  0.00  0.00    +0.000 HD
ENDBRANCH  20  22
ENDBRANCH   4  20
BRANCH   8  24
ATOM     24  C   UNL     1       5.378   4.828  16.651  0.00  0.00    +0.000 C 
ATOM     25  C   UNL     1       5.411   4.396  15.194  0.00  0.00    +0.000 C 
BRANCH  24  26
ATOM     26  O   UNL     1       6.307   5.890  16.861  0.00  0.00    +0.000 OA
ATOM     27  H   UNL     1       6.252   6.172  17.793  0.00  0.00    +0.000 HD
ENDBRANCH  24  26
ENDBRANCH   8  24
TORSDOF 7
ENDMDL
MODEL 7
REMARK VINA RESULT:      -6.3      3.565      7.094
REMARK  Name = 
REMARK  9 active torsions:
REMARK  status: ('A' for Active; 'I' for Inactive)
REMARK    1  A    between atoms: C_1  and  C_2
REMARK    2  A    between atoms: C_3  and  C_4
REMARK    3  A    between atoms: C_7  and  C_8
REMARK    4  A    between atoms: C_8  and  N_9
REMARK    5  A    between atoms: C_12  and  C_13
REMARK    6  A    between atoms: C_13  and  O_15
REMARK    7  A    between atoms: C_19  and  C_20
REMARK    8  A    between atoms: C_20  and  C_21
REMARK    9  A    between atoms: C_20  and  O_22
REMARK                            x       y       z     vdW  Elec       q    Type
REMARK                         _______ _______ _______ _____ _____    ______ ____
ROOT
ATOM      1  C   UNL     1       3.273   7.682  16.751  0.00  0.00    +0.000 C 
ATOM      2  C   UNL     1       3.869   7.285  18.099  0.00  0.00    +0.000 C 
ATOM      3  C   UNL     1       2.829   6.799  19.082  0.00  0.00    +0.000 C 
ATOM      4  C   UNL     1       2.906   5.465  19.253  0.00  0.00    +0.000 C 
ATOM      5  N   UNL     1       4.009   4.939  18.615  0.00  0.00    +0.000 N 
ATOM      6  C   UNL     1       3.915   4.198  17.476  0.00  0.00    +0.000 C 
ATOM      7  O   UNL     1       3.187   3.264  17.235  0.00  0.00    +0.000 OA
ATOM      8  C   UNL     1       4.940   5.085  16.742  0.00  0.00    +0.000 C 
ATOM      9  C   UNL     1       4.777   6.048  17.971  0.00  0.00    +0.000 C 
ENDROOT
BRANCH   3  10
ATOM     10  C   UNL     1       1.965   7.742  19.787  0.00  0.00    +0.000 A 
ATOM     11  C   UNL     1       1.382   8.793  19.071  0.00  0.00    +0.000 A 
ATOM     12  C   UNL     1       0.592   9.748  19.718  0.00  0.00    +0.000 A 
ATOM     13  C   UNL     1       0.367   9.667  21.097  0.00  0.00    +0.000 A 
ATOM     14  C   UNL     1       0.939   8.600  21.808  0.00  0.00    +0.000 A 
ATOM     15  C   UNL     1       1.734   7.647  21.162  0.00  0.00    +0.000 A 
BRANCH  13  16
ATOM     16  C   UNL     1      -0.426  10.734  21.809  0.00  0.00    +0.000 C 
BRANCH  16  17
ATOM     17  N   UNL     1      -0.356  10.590  23.259  0.00  0.00    +0.000 NA
ATOM     18  H   UNL     1       0.285   9.829  23.480  0.00  0.00    +0.000 HD
ATOM     19  H   UNL     1      -1.270  10.306  23.606  0.00  0.00    +0.000 HD
ENDBRANCH  16  17
ENDBRANCH  13  16
ENDBRANCH   3  10
BRANCH   4  20
ATOM     20  C   UNL     1       2.010   4.613  20.085  0.00  0.00    +0.000 C 
ATOM     21  O   UNL     1       2.167   4.413  21.280  0.00  0.00    +0.000 OA
BRANCH  20  22
ATOM     22  O   UNL     1       0.993   4.052  19.394  0.00  0.00    +0.000 OA
ATOM     23  H   UNL     1       0.761   3.139  19.675  0.00  0.00    +0.000 HD
ENDBRANCH  20  22
ENDBRANCH   4  20
BRANCH   8  24
ATOM     24  C   UNL     1       6.339   4.505  16.600  0.00  0.00    +0.000 C 
ATOM     25  C   UNL     1       6.547   3.831  15.254  0.00  0.00    +0.000 C 
BRANCH  24  26
ATOM     26  O   UNL     1       7.277   5.568  16.759  0.00  0.00    +0.000 OA
ATOM     27  H   UNL     1       8.144   5.271  16.427  0.00  0.00    +0.000 HD
ENDBRANCH  24  26
ENDBRANCH   8  24
TORSDOF 7
ENDMDL
MODEL 8
REMARK VINA RESULT:      -6.2      5.104      7.905
REMARK  Name = 
REMARK  9 active torsions:
REMARK  status: ('A' for Active; 'I' for Inactive)
REMARK    1  A    between atoms: C_1  and  C_2
REMARK    2  A    between atoms: C_3  and  C_4
REMARK    3  A    between atoms: C_7  and  C_8
REMARK    4  A    between atoms: C_8  and  N_9
REMARK    5  A    between atoms: C_12  and  C_13
REMARK    6  A    between atoms: C_13  and  O_15
REMARK    7  A    between atoms: C_19  and  C_20
REMARK    8  A    between atoms: C_20  and  C_21
REMARK    9  A    between atoms: C_20  and  O_22
REMARK                            x       y       z     vdW  Elec       q    Type
REMARK                         _______ _______ _______ _____ _____    ______ ____
ROOT
ATOM      1  C   UNL     1       2.730   2.566  17.067  0.00  0.00    +0.000 C 
ATOM      2  C   UNL     1       4.046   2.994  17.712  0.00  0.00    +0.000 C 
ATOM      3  C   UNL     1       4.603   4.268  17.123  0.00  0.00    +0.000 C 
ATOM      4  C   UNL     1       4.463   5.302  17.976  0.00  0.00    +0.000 C 
ATOM      5  N   UNL     1       4.001   4.880  19.205  0.00  0.00    +0.000 N 
ATOM      6  C   UNL     1       2.730   5.115  19.633  0.00  0.00    +0.000 C 
ATOM      7  O   UNL     1       2.104   6.149  19.624  0.00  0.00    +0.000 OA
ATOM      8  C   UNL     1       2.499   3.626  19.957  0.00  0.00    +0.000 C 
ATOM      9  C   UNL     1       3.847   3.394  19.186  0.00  0.00    +0.000 C 
ENDROOT
BRANCH   3  10
ATOM     10  C   UNL     1       5.285   4.263  15.832  0.00  0.00    +0.000 A 
ATOM     11  C   UNL     1       4.552   3.953  14.680  0.00  0.00    +0.000 A 
ATOM     12  C   UNL     1       5.178   3.884  13.432  0.00  0.00    +0.000 A 
ATOM     13  C   UNL     1       6.551   4.128  13.311  0.00  0.00    +0.000 A 
ATOM     14  C   UNL     1       7.277   4.457  14.466  0.00  0.00    +0.000 A 
ATOM     15  C   UNL     1       6.653   4.521  15.717  0.00  0.00    +0.000 A 
BRANCH  13  16
ATOM     16  C   UNL     1       7.241   3.985  11.978  0.00  0.00    +0.000 C 
BRANCH  16  17
ATOM     17  N   UNL     1       7.249   2.603  11.512  0.00  0.00    +0.000 NA
ATOM     18  H   UNL     1       7.877   2.534  10.712  0.00  0.00    +0.000 HD
ATOM     19  H   UNL     1       6.320   2.366  11.169  0.00  0.00    +0.000 HD
ENDBRANCH  16  17
ENDBRANCH  13  16
ENDBRANCH   3  10
BRANCH   4  20
ATOM     20  C   UNL     1       4.824   6.726  17.729  0.00  0.00    +0.000 C 
ATOM     21  O   UNL     1       5.970   7.154  17.728  0.00  0.00    +0.000 OA
BRANCH  20  22
ATOM     22  O   UNL     1       3.760   7.532  17.517  0.00  0.00    +0.000 OA
ATOM     23  H   UNL     1       3.806   8.401  17.974  0.00  0.00    +0.000 HD
ENDBRANCH  20  22
ENDBRANCH   4  20
BRANCH   8  24
ATOM     24  C   UNL     1       2.563   3.249  21.429  0.00  0.00    +0.000 C 
ATOM     25  C   UNL     1       1.235   2.716  21.942  0.00  0.00    +0.000 C 
BRANCH  24  26
ATOM     26  O   UNL     1       3.576   2.257  21.588  0.00  0.00    +0.000 OA
ATOM     27  H   UNL     1       4.151   2.515  22.332  0.00  0.00    +0.000 HD
ENDBRANCH  24  26
ENDBRANCH   8  24
TORSDOF 7
ENDMDL
MODEL 9
REMARK VINA RESULT:      -6.2      4.830      7.823
REMARK  Name = 
REMARK  9 active torsions:
REMARK  status: ('A' for Active; 'I' for Inactive)
REMARK    1  A    between atoms: C_1  and  C_2
REMARK    2  A    between atoms: C_3  and  C_4
REMARK    3  A    between atoms: C_7  and  C_8
REMARK    4  A    between atoms: C_8  and  N_9
REMARK    5  A    between atoms: C_12  and  C_13
REMARK    6  A    between atoms: C_13  and  O_15
REMARK    7  A    between atoms: C_19  and  C_20
REMARK    8  A    between atoms: C_20  and  C_21
REMARK    9  A    between atoms: C_20  and  O_22
REMARK                            x       y       z     vdW  Elec       q    Type
REMARK                         _______ _______ _______ _____ _____    ______ ____
ROOT
ATOM      1  C   UNL     1       3.381   2.059  17.528  0.00  0.00    +0.000 C 
ATOM      2  C   UNL     1       4.355   2.984  18.252  0.00  0.00    +0.000 C 
ATOM      3  C   UNL     1       4.488   4.334  17.588  0.00  0.00    +0.000 C 
ATOM      4  C   UNL     1       3.872   5.294  18.306  0.00  0.00    +0.000 C 
ATOM      5  N   UNL     1       3.435   4.810  19.521  0.00  0.00    +0.000 N 
ATOM      6  C   UNL     1       2.119   4.582  19.791  0.00  0.00    +0.000 C 
ATOM      7  O   UNL     1       1.170   5.306  19.608  0.00  0.00    +0.000 OA
ATOM      8  C   UNL     1       2.401   3.138  20.249  0.00  0.00    +0.000 C 
ATOM      9  C   UNL     1       3.832   3.374  19.647  0.00  0.00    +0.000 C 
ENDROOT
BRANCH   3  10
ATOM     10  C   UNL     1       5.291   4.501  16.379  0.00  0.00    +0.000 A 
ATOM     11  C   UNL     1       4.706   4.234  15.136  0.00  0.00    +0.000 A 
ATOM     12  C   UNL     1       5.455   4.329  13.959  0.00  0.00    +0.000 A 
ATOM     13  C   UNL     1       6.805   4.697  14.003  0.00  0.00    +0.000 A 
ATOM     14  C   UNL     1       7.381   4.981  15.252  0.00  0.00    +0.000 A 
ATOM     15  C   UNL     1       6.634   4.882  16.431  0.00  0.00    +0.000 A 
BRANCH  13  16
ATOM     16  C   UNL     1       7.633   4.731  12.743  0.00  0.00    +0.000 C 
BRANCH  16  17
ATOM     17  N   UNL     1       8.439   5.943  12.652  0.00  0.00    +0.000 NA
ATOM     18  H   UNL     1       7.858   6.740  12.910  0.00  0.00    +0.000 HD
ATOM     19  H   UNL     1       8.708   6.087  11.681  0.00  0.00    +0.000 HD
ENDBRANCH  16  17
ENDBRANCH  13  16
ENDBRANCH   3  10
BRANCH   4  20
ATOM     20  C   UNL     1       3.724   6.731  17.944  0.00  0.00    +0.000 C 
ATOM     21  O   UNL     1       4.660   7.474  17.686  0.00  0.00    +0.000 OA
BRANCH  20  22
ATOM     22  O   UNL     1       2.445   7.166  17.939  0.00  0.00    +0.000 OA
ATOM     23  H   UNL     1       2.116   7.465  17.063  0.00  0.00    +0.000 HD
ENDBRANCH  20  22
ENDBRANCH   4  20
BRANCH   8  24
ATOM     24  C   UNL     1       2.401   2.905  21.752  0.00  0.00    +0.000 C 
ATOM     25  C   UNL     1       1.056   2.406  22.255  0.00  0.00    +0.000 C 
BRANCH  24  26
ATOM     26  O   UNL     1       3.415   1.948  22.052  0.00  0.00    +0.000 OA
ATOM     27  H   UNL     1       3.444   1.816  23.018  0.00  0.00    +0.000 HD
ENDBRANCH  24  26
ENDBRANCH   8  24
TORSDOF 7
ENDMDL
