MODEL 1
REMARK VINA RESULT:      -8.2      0.000      0.000
REMARK  Name = 
REMARK  5 active torsions:
REMARK  status: ('A' for Active; 'I' for Inactive)
REMARK    1  A    between atoms: C_1  and  C_2
REMARK    2  A    between atoms: C_2  and  C_3
REMARK    3  A    between atoms: C_2  and  C_6
REMARK    4  A    between atoms: C_3  and  O_5
REMARK    5  A    between atoms: C_18  and  C_20
REMARK                            x       y       z     vdW  Elec       q    Type
REMARK                         _______ _______ _______ _____ _____    ______ ____
ROOT
ATOM      1  C   UNL     1       5.482   4.884  15.194  0.00  0.00    +0.000 A 
ATOM      2  C   UNL     1       5.399   6.277  15.134  0.00  0.00    +0.000 A 
ATOM      3  C   UNL     1       4.635   6.991  16.063  0.00  0.00    +0.000 A 
ATOM      4  C   UNL     1       3.926   6.306  17.073  0.00  0.00    +0.000 A 
ATOM      5  C   UNL     1       3.105   6.749  18.149  0.00  0.00    +0.000 A 
ATOM      6  C   UNL     1       2.701   8.031  18.587  0.00  0.00    +0.000 A 
ATOM      7  C   UNL     1       1.859   8.152  19.692  0.00  0.00    +0.000 A 
ATOM      8 CL   UNL     1       1.372   9.714  20.229  0.00  0.00    +0.000 Cl
ATOM      9  C   UNL     1       1.394   7.028  20.353  0.00  0.00    +0.000 A 
ATOM     10  C   UNL     1       1.764   5.752  19.921  0.00  0.00    +0.000 A 
ATOM     11  C   UNL     1       2.655   5.617  18.835  0.00  0.00    +0.000 A 
ATOM     12  N   UNL     1       3.209   4.487  18.210  0.00  0.00    +0.000 N 
ATOM     13  C   UNL     1       3.025   3.132  18.602  0.00  0.00    +0.000 C 
ATOM     14  O   UNL     1       3.099   2.275  17.719  0.00  0.00    +0.000 OA
ATOM     15  C   UNL     1       3.968   4.913  17.108  0.00  0.00    +0.000 A 
ATOM     16  C   UNL     1       4.736   4.189  16.168  0.00  0.00    +0.000 A 
ENDROOT
BRANCH  13  17
ATOM     17  C   UNL     1       2.762   2.741  19.980  0.00  0.00    +0.000 A 
ATOM     18  C   UNL     1       3.700   2.495  20.958  0.00  0.00    +0.000 A 
ATOM     19  O   UNL     1       3.045   2.133  22.099  0.00  0.00    +0.000 OA
ATOM     20  C   UNL     1       1.730   2.217  21.764  0.00  0.00    +0.000 A 
ATOM     21  N   UNL     1       1.498   2.591  20.526  0.00  0.00    +0.000 NA
ENDBRANCH  13  17
BRANCH   1  23
ATOM     22  C   UNL     1       5.476   3.406  13.167  0.00  0.00    +0.000 C 
ATOM     23  C   UNL     1       6.349   4.099  14.213  0.00  0.00    +0.000 C 
BRANCH  23  24
ATOM     24  C   UNL     1       7.448   4.929  13.546  0.00  0.00    +0.000 C 
ATOM     25  O   UNL     1       8.210   5.681  14.136  0.00  0.00    +0.000 OA
BRANCH  24  26
ATOM     26  O   UNL     1       7.485   4.805  12.196  0.00  0.00    +0.000 OA
ATOM     27  H   UNL     1       7.743   5.627  11.735  0.00  0.00    +0.000 HD
ENDBRANCH  24  26
ENDBRANCH  23  24
ENDBRANCH   1  23
TORSDOF 4
ENDMDL
MODEL 2
REMARK VINA RESULT:      -7.8      4.019      6.568
REMARK  Name = 
REMARK  5 active torsions:
REMARK  status: ('A' for Active; 'I' for Inactive)
REMARK    1  A    between atoms: C_1  and  C_2
REMARK    2  A    between atoms: C_2  and  C_3
REMARK    3  A    between atoms: C_2  and  C_6
REMARK    4  A    between atoms: C_3  and  O_5
REMARK    5  A    between atoms: C_18  and  C_20
REMARK                            x       y       z     vdW  Elec       q    Type
REMARK                         _______ _______ _______ _____ _____    ______ ____
ROOT
ATOM      1  C   UNL     1       0.817  10.088  18.824  0.00  0.00    +0.000 A 
ATOM      2  C   UNL     1       1.657  10.384  17.747  0.00  0.00    +0.000 A 
ATOM      3  C   UNL     1       2.627   9.471  17.323  0.00  0.00    +0.000 A 
ATOM      4  C   UNL     1       2.776   8.235  17.988  0.00  0.00    +0.000 A 
ATOM      5  C   UNL     1       3.635   7.118  17.776  0.00  0.00    +0.000 A 
ATOM      6  C   UNL     1       4.651   6.851  16.828  0.00  0.00    +0.000 A 
ATOM      7  C   UNL     1       5.348   5.645  16.881  0.00  0.00    +0.000 A 
ATOM      8 CL   UNL     1       6.579   5.318  15.724  0.00  0.00    +0.000 Cl
ATOM      9  C   UNL     1       5.073   4.712  17.867  0.00  0.00    +0.000 A 
ATOM     10  C   UNL     1       4.089   4.968  18.826  0.00  0.00    +0.000 A 
ATOM     11  C   UNL     1       3.342   6.164  18.754  0.00  0.00    +0.000 A 
ATOM     12  N   UNL     1       2.298   6.667  19.548  0.00  0.00    +0.000 N 
ATOM     13  C   UNL     1       1.680   6.007  20.645  0.00  0.00    +0.000 C 
ATOM     14  O   UNL     1       1.202   6.716  21.533  0.00  0.00    +0.000 OA
ATOM     15  C   UNL     1       1.972   7.955  19.091  0.00  0.00    +0.000 A 
ATOM     16  C   UNL     1       0.993   8.878  19.525  0.00  0.00    +0.000 A 
ENDROOT
BRANCH  13  17
ATOM     17  C   UNL     1       1.596   4.556  20.743  0.00  0.00    +0.000 A 
ATOM     18  C   UNL     1       0.923   3.712  19.888  0.00  0.00    +0.000 A 
ATOM     19  O   UNL     1       1.070   2.434  20.343  0.00  0.00    +0.000 OA
ATOM     20  C   UNL     1       1.865   2.565  21.439  0.00  0.00    +0.000 A 
ATOM     21  N   UNL     1       2.225   3.797  21.717  0.00  0.00    +0.000 NA
ENDBRANCH  13  17
BRANCH   1  23
ATOM     22  C   UNL     1       0.343  12.371  19.750  0.00  0.00    +0.000 C 
ATOM     23  C   UNL     1      -0.275  11.059  19.265  0.00  0.00    +0.000 C 
BRANCH  23  24
ATOM     24  C   UNL     1      -1.349  11.318  18.207  0.00  0.00    +0.000 C 
ATOM     25  O   UNL     1      -2.196  10.508  17.859  0.00  0.00    +0.000 OA
BRANCH  24  26
ATOM     26  O   UNL     1      -1.261  12.539  17.624  0.00  0.00    +0.000 OA
ATOM     27  H   UNL     1      -1.119  12.502  16.658  0.00  0.00    +0.000 HD
ENDBRANCH  24  26
ENDBRANCH  23  24
ENDBRANCH   1  23
TORSDOF 4
ENDMDL
MODEL 3
REMARK VINA RESULT:      -7.8      3.834      6.604
REMARK  Name = 
REMARK  5 active torsions:
REMARK  status: ('A' for Active; 'I' for Inactive)
REMARK    1  A    between atoms: C_1  and  C_2
REMARK    2  A    between atoms: C_2  and  C_3
REMARK    3  A    between atoms: C_2  and  C_6
REMARK    4  A    between atoms: C_3  and  O_5
REMARK    5  A    between atoms: C_18  and  C_20
REMARK                            x       y       z     vdW  Elec       q    Type
REMARK                         _______ _______ _______ _____ _____    ______ ____
ROOT
ATOM      1  C   UNL     1       1.059   9.984  18.945  0.00  0.00    +0.000 A 
ATOM      2  C   UNL     1       1.861  10.245  17.831  0.00  0.00    +0.000 A 
ATOM      3  C   UNL     1       2.764   9.289  17.357  0.00  0.00    +0.000 A 
ATOM      4  C   UNL     1       2.883   8.042  18.007  0.00  0.00    +0.000 A 
ATOM      5  C   UNL     1       3.674   6.887  17.749  0.00  0.00    +0.000 A 
ATOM      6  C   UNL     1       4.630   6.577  16.754  0.00  0.00    +0.000 A 
ATOM      7  C   UNL     1       5.269   5.338  16.767  0.00  0.00    +0.000 A 
ATOM      8 CL   UNL     1       6.426   4.959  15.551  0.00  0.00    +0.000 Cl
ATOM      9  C   UNL     1       4.995   4.413  17.761  0.00  0.00    +0.000 A 
ATOM     10  C   UNL     1       4.071   4.709  18.766  0.00  0.00    +0.000 A 
ATOM     11  C   UNL     1       3.381   5.941  18.735  0.00  0.00    +0.000 A 
ATOM     12  N   UNL     1       2.402   6.489  19.580  0.00  0.00    +0.000 N 
ATOM     13  C   UNL     1       1.805   5.852  20.703  0.00  0.00    +0.000 C 
ATOM     14  O   UNL     1       1.404   6.577  21.616  0.00  0.00    +0.000 OA
ATOM     15  C   UNL     1       2.118   7.795  19.147  0.00  0.00    +0.000 A 
ATOM     16  C   UNL     1       1.208   8.761  19.631  0.00  0.00    +0.000 A 
ENDROOT
BRANCH  13  17
ATOM     17  C   UNL     1       1.654   4.406  20.798  0.00  0.00    +0.000 A 
ATOM     18  C   UNL     1       0.956   3.594  19.932  0.00  0.00    +0.000 A 
ATOM     19  O   UNL     1       1.039   2.310  20.387  0.00  0.00    +0.000 OA
ATOM     20  C   UNL     1       1.823   2.405  21.494  0.00  0.00    +0.000 A 
ATOM     21  N   UNL     1       2.234   3.619  21.779  0.00  0.00    +0.000 NA
ENDBRANCH  13  17
BRANCH   1  23
ATOM     22  C   UNL     1      -1.363  10.637  18.955  0.00  0.00    +0.000 C 
ATOM     23  C   UNL     1       0.039  11.003  19.443  0.00  0.00    +0.000 C 
BRANCH  23  24
ATOM     24  C   UNL     1       0.053  11.215  20.959  0.00  0.00    +0.000 C 
ATOM     25  O   UNL     1      -0.826  10.845  21.723  0.00  0.00    +0.000 OA
BRANCH  24  26
ATOM     26  O   UNL     1       1.127  11.912  21.404  0.00  0.00    +0.000 OA
ATOM     27  H   UNL     1       1.297  12.733  20.902  0.00  0.00    +0.000 HD
ENDBRANCH  24  26
ENDBRANCH  23  24
ENDBRANCH   1  23
TORSDOF 4
ENDMDL
MODEL 4
REMARK VINA RESULT:      -7.7      3.894      6.991
REMARK  Name = 
REMARK  5 active torsions:
REMARK  status: ('A' for Active; 'I' for Inactive)
REMARK    1  A    between atoms: C_1  and  C_2
REMARK    2  A    between atoms: C_2  and  C_3
REMARK    3  A    between atoms: C_2  and  C_6
REMARK    4  A    between atoms: C_3  and  O_5
REMARK    5  A    between atoms: C_18  and  C_20
REMARK                            x       y       z     vdW  Elec       q    Type
REMARK                         _______ _______ _______ _____ _____    ______ ____
ROOT
ATOM      1  C   UNL     1       1.318   9.793  19.446  0.00  0.00    +0.000 A 
ATOM      2  C   UNL     1       0.706   9.168  20.536  0.00  0.00    +0.000 A 
ATOM      3  C   UNL     1       0.968   7.827  20.834  0.00  0.00    +0.000 A 
ATOM      4  C   UNL     1       1.852   7.081  20.025  0.00  0.00    +0.000 A 
ATOM      5  C   UNL     1       2.325   5.740  20.090  0.00  0.00    +0.000 A 
ATOM      6  C   UNL     1       2.072   4.672  20.982  0.00  0.00    +0.000 A 
ATOM      7  C   UNL     1       2.684   3.436  20.776  0.00  0.00    +0.000 A 
ATOM      8 CL   UNL     1       2.382   2.139  21.866  0.00  0.00    +0.000 Cl
ATOM      9  C   UNL     1       3.521   3.234  19.691  0.00  0.00    +0.000 A 
ATOM     10  C   UNL     1       3.765   4.271  18.786  0.00  0.00    +0.000 A 
ATOM     11  C   UNL     1       3.190   5.541  19.011  0.00  0.00    +0.000 A 
ATOM     12  N   UNL     1       3.276   6.748  18.299  0.00  0.00    +0.000 N 
ATOM     13  C   UNL     1       4.066   6.991  17.142  0.00  0.00    +0.000 C 
ATOM     14  O   UNL     1       3.661   7.846  16.352  0.00  0.00    +0.000 OA
ATOM     15  C   UNL     1       2.428   7.687  18.910  0.00  0.00    +0.000 A 
ATOM     16  C   UNL     1       2.162   9.041  18.604  0.00  0.00    +0.000 A 
ENDROOT
BRANCH  13  17
ATOM     17  C   UNL     1       5.308   6.277  16.874  0.00  0.00    +0.000 A 
ATOM     18  C   UNL     1       6.511   6.453  17.519  0.00  0.00    +0.000 A 
ATOM     19  O   UNL     1       7.426   5.612  16.955  0.00  0.00    +0.000 OA
ATOM     20  C   UNL     1       6.715   4.936  16.015  0.00  0.00    +0.000 A 
ATOM     21  N   UNL     1       5.448   5.272  15.931  0.00  0.00    +0.000 NA
ENDBRANCH  13  17
BRANCH   1  23
ATOM     22  C   UNL     1       2.143  11.798  18.185  0.00  0.00    +0.000 C 
ATOM     23  C   UNL     1       1.073  11.268  19.140  0.00  0.00    +0.000 C 
BRANCH  23  24
ATOM     24  C   UNL     1      -0.331  11.574  18.614  0.00  0.00    +0.000 C 
ATOM     25  O   UNL     1      -1.058  12.461  19.039  0.00  0.00    +0.000 OA
BRANCH  24  26
ATOM     26  O   UNL     1      -0.748  10.728  17.640  0.00  0.00    +0.000 OA
ATOM     27  H   UNL     1      -0.021  10.226  17.220  0.00  0.00    +0.000 HD
ENDBRANCH  24  26
ENDBRANCH  23  24
ENDBRANCH   1  23
TORSDOF 4
ENDMDL
MODEL 5
REMARK VINA RESULT:      -7.7      3.864      6.819
REMARK  Name = 
REMARK  5 active torsions:
REMARK  status: ('A' for Active; 'I' for Inactive)
REMARK    1  A    between atoms: C_1  and  C_2
REMARK    2  A    between atoms: C_2  and  C_3
REMARK    3  A    between atoms: C_2  and  C_6
REMARK    4  A    between atoms: C_3  and  O_5
REMARK    5  A    between atoms: C_18  and  C_20
REMARK                            x       y       z     vdW  Elec       q    Type
REMARK                         _______ _______ _______ _____ _____    ______ ____
ROOT
ATOM      1  C   UNL     1       1.220   9.905  19.002  0.00  0.00    +0.000 A 
ATOM      2  C   UNL     1       0.606   9.333  20.119  0.00  0.00    +0.000 A 
ATOM      3  C   UNL     1       0.905   8.025  20.511  0.00  0.00    +0.000 A 
ATOM      4  C   UNL     1       1.830   7.258  19.772  0.00  0.00    +0.000 A 
ATOM      5  C   UNL     1       2.346   5.941  19.936  0.00  0.00    +0.000 A 
ATOM      6  C   UNL     1       2.109   4.926  20.893  0.00  0.00    +0.000 A 
ATOM      7  C   UNL     1       2.766   3.702  20.782  0.00  0.00    +0.000 A 
ATOM      8 CL   UNL     1       2.483   2.470  21.951  0.00  0.00    +0.000 Cl
ATOM      9  C   UNL     1       3.633   3.457  19.729  0.00  0.00    +0.000 A 
ATOM     10  C   UNL     1       3.862   4.438  18.762  0.00  0.00    +0.000 A 
ATOM     11  C   UNL     1       3.241   5.700  18.889  0.00  0.00    +0.000 A 
ATOM     12  N   UNL     1       3.302   6.860  18.100  0.00  0.00    +0.000 N 
ATOM     13  C   UNL     1       4.108   7.052  16.944  0.00  0.00    +0.000 C 
ATOM     14  O   UNL     1       3.693   7.838  16.091  0.00  0.00    +0.000 OA
ATOM     15  C   UNL     1       2.410   7.808  18.629  0.00  0.00    +0.000 A 
ATOM     16  C   UNL     1       2.106   9.129  18.229  0.00  0.00    +0.000 A 
ENDROOT
BRANCH  13  17
ATOM     17  C   UNL     1       5.378   6.365  16.749  0.00  0.00    +0.000 A 
ATOM     18  C   UNL     1       6.558   6.617  17.412  0.00  0.00    +0.000 A 
ATOM     19  O   UNL     1       7.514   5.776  16.921  0.00  0.00    +0.000 OA
ATOM     20  C   UNL     1       6.849   5.022  16.005  0.00  0.00    +0.000 A 
ATOM     21  N   UNL     1       5.575   5.312  15.871  0.00  0.00    +0.000 NA
ENDBRANCH  13  17
BRANCH   1  23
ATOM     22  C   UNL     1      -0.207  11.922  19.431  0.00  0.00    +0.000 C 
ATOM     23  C   UNL     1       0.934  11.347  18.592  0.00  0.00    +0.000 C 
BRANCH  23  24
ATOM     24  C   UNL     1       2.158  12.264  18.631  0.00  0.00    +0.000 C 
ATOM     25  O   UNL     1       2.521  12.903  19.608  0.00  0.00    +0.000 OA
BRANCH  24  26
ATOM     26  O   UNL     1       2.808  12.361  17.445  0.00  0.00    +0.000 OA
ATOM     27  H   UNL     1       3.522  11.702  17.335  0.00  0.00    +0.000 HD
ENDBRANCH  24  26
ENDBRANCH  23  24
ENDBRANCH   1  23
TORSDOF 4
ENDMDL
MODEL 6
REMARK VINA RESULT:      -7.6      4.112      6.498
REMARK  Name = 
REMARK  5 active torsions:
REMARK  status: ('A' for Active; 'I' for Inactive)
REMARK    1  A    between atoms: C_1  and  C_2
REMARK    2  A    between atoms: C_2  and  C_3
REMARK    3  A    between atoms: C_2  and  C_6
REMARK    4  A    between atoms: C_3  and  O_5
REMARK    5  A    between atoms: C_18  and  C_20
REMARK                            x       y       z     vdW  Elec       q    Type
REMARK                         _______ _______ _______ _____ _____    ______ ____
ROOT
ATOM      1  C   UNL     1       0.966   9.988  18.907  0.00  0.00    +0.000 A 
ATOM      2  C   UNL     1       1.780  10.259  17.803  0.00  0.00    +0.000 A 
ATOM      3  C   UNL     1       2.709   9.318  17.349  0.00  0.00    +0.000 A 
ATOM      4  C   UNL     1       2.844   8.079  18.010  0.00  0.00    +0.000 A 
ATOM      5  C   UNL     1       3.662   6.938  17.771  0.00  0.00    +0.000 A 
ATOM      6  C   UNL     1       4.639   6.641  16.792  0.00  0.00    +0.000 A 
ATOM      7  C   UNL     1       5.303   5.416  16.824  0.00  0.00    +0.000 A 
ATOM      8 CL   UNL     1       6.486   5.053  15.627  0.00  0.00    +0.000 Cl
ATOM      9  C   UNL     1       5.034   4.492  17.820  0.00  0.00    +0.000 A 
ATOM     10  C   UNL     1       4.089   4.776  18.809  0.00  0.00    +0.000 A 
ATOM     11  C   UNL     1       3.374   5.993  18.760  0.00  0.00    +0.000 A 
ATOM     12  N   UNL     1       2.372   6.526  19.587  0.00  0.00    +0.000 N 
ATOM     13  C   UNL     1       1.771   5.885  20.704  0.00  0.00    +0.000 C 
ATOM     14  O   UNL     1       1.343   6.607  21.606  0.00  0.00    +0.000 OA
ATOM     15  C   UNL     1       2.068   7.823  19.139  0.00  0.00    +0.000 A 
ATOM     16  C   UNL     1       1.131   8.774  19.603  0.00  0.00    +0.000 A 
ENDROOT
BRANCH  13  17
ATOM     17  C   UNL     1       1.649   4.436  20.808  0.00  0.00    +0.000 A 
ATOM     18  C   UNL     1       0.956   3.608  19.954  0.00  0.00    +0.000 A 
ATOM     19  O   UNL     1       1.069   2.328  20.413  0.00  0.00    +0.000 OA
ATOM     20  C   UNL     1       1.864   2.442  21.510  0.00  0.00    +0.000 A 
ATOM     21  N   UNL     1       2.256   3.665  21.785  0.00  0.00    +0.000 NA
ENDBRANCH  13  17
BRANCH   1  23
ATOM     22  C   UNL     1      -0.204  10.949  20.906  0.00  0.00    +0.000 C 
ATOM     23  C   UNL     1      -0.082  10.990  19.383  0.00  0.00    +0.000 C 
BRANCH  23  24
ATOM     24  C   UNL     1       0.150  12.420  18.890  0.00  0.00    +0.000 C 
ATOM     25  O   UNL     1       0.913  13.222  19.408  0.00  0.00    +0.000 OA
BRANCH  24  26
ATOM     26  O   UNL     1      -0.618  12.764  17.827  0.00  0.00    +0.000 OA
ATOM     27  H   UNL     1      -1.214  12.050  17.527  0.00  0.00    +0.000 HD
ENDBRANCH  24  26
ENDBRANCH  23  24
ENDBRANCH   1  23
TORSDOF 4
ENDMDL
MODEL 7
REMARK VINA RESULT:      -7.6      3.841      6.468
REMARK  Name = 
REMARK  5 active torsions:
REMARK  status: ('A' for Active; 'I' for Inactive)
REMARK    1  A    between atoms: C_1  and  C_2
REMARK    2  A    between atoms: C_2  and  C_3
REMARK    3  A    between atoms: C_2  and  C_6
REMARK    4  A    between atoms: C_3  and  O_5
REMARK    5  A    between atoms: C_18  and  C_20
REMARK                            x       y       z     vdW  Elec       q    Type
REMARK                         _______ _______ _______ _____ _____    ______ ____
ROOT
ATOM      1  C   UNL     1       1.115   9.829  19.106  0.00  0.00    +0.000 A 
ATOM      2  C   UNL     1       1.887  10.200  18.002  0.00  0.00    +0.000 A 
ATOM      3  C   UNL     1       2.778   9.297  17.414  0.00  0.00    +0.000 A 
ATOM      4  C   UNL     1       2.917   7.994  17.940  0.00  0.00    +0.000 A 
ATOM      5  C   UNL     1       3.703   6.872  17.551  0.00  0.00    +0.000 A 
ATOM      6  C   UNL     1       4.632   6.663  16.506  0.00  0.00    +0.000 A 
ATOM      7  C   UNL     1       5.273   5.431  16.384  0.00  0.00    +0.000 A 
ATOM      8 CL   UNL     1       6.398   5.175  15.107  0.00  0.00    +0.000 Cl
ATOM      9  C   UNL     1       5.028   4.414  17.291  0.00  0.00    +0.000 A 
ATOM     10  C   UNL     1       4.130   4.609  18.344  0.00  0.00    +0.000 A 
ATOM     11  C   UNL     1       3.437   5.835  18.450  0.00  0.00    +0.000 A 
ATOM     12  N   UNL     1       2.481   6.296  19.369  0.00  0.00    +0.000 N 
ATOM     13  C   UNL     1       1.914   5.552  20.441  0.00  0.00    +0.000 C 
ATOM     14  O   UNL     1       1.537   6.185  21.429  0.00  0.00    +0.000 OA
ATOM     15  C   UNL     1       2.183   7.636  19.070  0.00  0.00    +0.000 A 
ATOM     16  C   UNL     1       1.284   8.548  19.668  0.00  0.00    +0.000 A 
ENDROOT
BRANCH  13  17
ATOM     17  C   UNL     1       1.768   4.103  20.401  0.00  0.00    +0.000 A 
ATOM     18  C   UNL     1       2.302   3.199  21.292  0.00  0.00    +0.000 A 
ATOM     19  O   UNL     1       1.954   1.943  20.888  0.00  0.00    +0.000 OA
ATOM     20  C   UNL     1       1.187   2.153  19.786  0.00  0.00    +0.000 A 
ATOM     21  N   UNL     1       1.024   3.414  19.457  0.00  0.00    +0.000 NA
ENDBRANCH  13  17
BRANCH   1  23
ATOM     22  C   UNL     1       0.825  11.999  20.330  0.00  0.00    +0.000 C 
ATOM     23  C   UNL     1       0.107  10.793  19.726  0.00  0.00    +0.000 C 
BRANCH  23  24
ATOM     24  C   UNL     1      -1.004  11.238  18.771  0.00  0.00    +0.000 C 
ATOM     25  O   UNL     1      -1.156  12.380  18.362  0.00  0.00    +0.000 OA
BRANCH  24  26
ATOM     26  O   UNL     1      -1.868  10.249  18.437  0.00  0.00    +0.000 OA
ATOM     27  H   UNL     1      -1.509   9.619  17.782  0.00  0.00    +0.000 HD
ENDBRANCH  24  26
ENDBRANCH  23  24
ENDBRANCH   1  23
TORSDOF 4
ENDMDL
MODEL 8
REMARK VINA RESULT:      -7.6      4.070      7.447
REMARK  Name = 
REMARK  5 active torsions:
REMARK  status: ('A' for Active; 'I' for Inactive)
REMARK    1  A    between atoms: C_1  and  C_2
REMARK    2  A    between atoms: C_2  and  C_3
REMARK    3  A    between atoms: C_2  and  C_6
REMARK    4  A    between atoms: C_3  and  O_5
REMARK    5  A    between atoms: C_18  and  C_20
REMARK                            x       y       z     vdW  Elec       q    Type
REMARK                         _______ _______ _______ _____ _____    ______ ____
ROOT
ATOM      1  C   UNL     1       0.921   9.842  19.955  0.00  0.00    +0.000 A 
ATOM      2  C   UNL     1       0.393   9.118  21.027  0.00  0.00    +0.000 A 
ATOM      3  C   UNL     1       0.733   7.776  21.223  0.00  0.00    +0.000 A 
ATOM      4  C   UNL     1       1.613   7.130  20.329  0.00  0.00    +0.000 A 
ATOM      5  C   UNL     1       2.153   5.813  20.283  0.00  0.00    +0.000 A 
ATOM      6  C   UNL     1       1.995   4.678  21.113  0.00  0.00    +0.000 A 
ATOM      7  C   UNL     1       2.655   3.492  20.798  0.00  0.00    +0.000 A 
ATOM      8 CL   UNL     1       2.469   2.114  21.812  0.00  0.00    +0.000 Cl
ATOM      9  C   UNL     1       3.449   3.403  19.666  0.00  0.00    +0.000 A 
ATOM     10  C   UNL     1       3.599   4.507  18.822  0.00  0.00    +0.000 A 
ATOM     11  C   UNL     1       2.975   5.728  19.156  0.00  0.00    +0.000 A 
ATOM     12  N   UNL     1       2.968   6.982  18.523  0.00  0.00    +0.000 N 
ATOM     13  C   UNL     1       3.689   7.338  17.350  0.00  0.00    +0.000 C 
ATOM     14  O   UNL     1       3.206   8.221  16.637  0.00  0.00    +0.000 OA
ATOM     15  C   UNL     1       2.105   7.835  19.231  0.00  0.00    +0.000 A 
ATOM     16  C   UNL     1       1.760   9.190  19.029  0.00  0.00    +0.000 A 
ENDROOT
BRANCH  13  17
ATOM     17  C   UNL     1       4.950   6.709  16.981  0.00  0.00    +0.000 A 
ATOM     18  C   UNL     1       5.189   5.944  15.861  0.00  0.00    +0.000 A 
ATOM     19  O   UNL     1       6.486   5.523  15.899  0.00  0.00    +0.000 OA
ATOM     20  C   UNL     1       6.983   6.091  17.030  0.00  0.00    +0.000 A 
ATOM     21  N   UNL     1       6.125   6.821  17.705  0.00  0.00    +0.000 NA
ENDBRANCH  13  17
BRANCH   1  23
ATOM     22  C   UNL     1      -0.905  11.501  19.503  0.00  0.00    +0.000 C 
ATOM     23  C   UNL     1       0.591  11.319  19.759  0.00  0.00    +0.000 C 
BRANCH  23  24
ATOM     24  C   UNL     1       1.067  12.224  20.898  0.00  0.00    +0.000 C 
ATOM     25  O   UNL     1       2.176  12.733  20.969  0.00  0.00    +0.000 OA
BRANCH  24  26
ATOM     26  O   UNL     1       0.152  12.387  21.885  0.00  0.00    +0.000 OA
ATOM     27  H   UNL     1       0.462  12.082  22.760  0.00  0.00    +0.000 HD
ENDBRANCH  24  26
ENDBRANCH  23  24
ENDBRANCH   1  23
TORSDOF 4
ENDMDL
MODEL 9
REMARK VINA RESULT:      -7.6      3.896      6.468
REMARK  Name = 
REMARK  5 active torsions:
REMARK  status: ('A' for Active; 'I' for Inactive)
REMARK    1  A    between atoms: C_1  and  C_2
REMARK    2  A    between atoms: C_2  and  C_3
REMARK    3  A    between atoms: C_2  and  C_6
REMARK    4  A    between atoms: C_3  and  O_5
REMARK    5  A    between atoms: C_18  and  C_20
REMARK                            x       y       z     vdW  Elec       q    Type
REMARK                         _______ _______ _______ _____ _____    ______ ____
ROOT
ATOM      1  C   UNL     1       1.182   9.749  19.168  0.00  0.00    +0.000 A 
ATOM      2  C   UNL     1       1.953  10.171  18.082  0.00  0.00    +0.000 A 
ATOM      3  C   UNL     1       2.836   9.294  17.446  0.00  0.00    +0.000 A 
ATOM      4  C   UNL     1       2.967   7.965  17.902  0.00  0.00    +0.000 A 
ATOM      5  C   UNL     1       3.744   6.859  17.454  0.00  0.00    +0.000 A 
ATOM      6  C   UNL     1       4.669   6.698  16.395  0.00  0.00    +0.000 A 
ATOM      7  C   UNL     1       5.300   5.470  16.208  0.00  0.00    +0.000 A 
ATOM      8 CL   UNL     1       6.420   5.272  14.915  0.00  0.00    +0.000 Cl
ATOM      9  C   UNL     1       5.051   4.408  17.062  0.00  0.00    +0.000 A 
ATOM     10  C   UNL     1       4.158   4.555  18.127  0.00  0.00    +0.000 A 
ATOM     11  C   UNL     1       3.474   5.778  18.298  0.00  0.00    +0.000 A 
ATOM     12  N   UNL     1       2.524   6.197  19.243  0.00  0.00    +0.000 N 
ATOM     13  C   UNL     1       1.956   5.403  20.277  0.00  0.00    +0.000 C 
ATOM     14  O   UNL     1       1.586   5.986  21.298  0.00  0.00    +0.000 OA
ATOM     15  C   UNL     1       2.235   7.553  19.015  0.00  0.00    +0.000 A 
ATOM     16  C   UNL     1       1.344   8.439  19.663  0.00  0.00    +0.000 A 
ENDROOT
BRANCH  13  17
ATOM     17  C   UNL     1       1.799   3.959  20.163  0.00  0.00    +0.000 A 
ATOM     18  C   UNL     1       2.313   3.007  21.015  0.00  0.00    +0.000 A 
ATOM     19  O   UNL     1       1.962   1.775  20.544  0.00  0.00    +0.000 OA
ATOM     20  C   UNL     1       1.212   2.047  19.442  0.00  0.00    +0.000 A 
ATOM     21  N   UNL     1       1.064   3.324  19.175  0.00  0.00    +0.000 NA
ENDBRANCH  13  17
BRANCH   1  23
ATOM     22  C   UNL     1      -0.341  10.065  21.136  0.00  0.00    +0.000 C 
ATOM     23  C   UNL     1       0.183  10.686  19.841  0.00  0.00    +0.000 C 
BRANCH  23  24
ATOM     24  C   UNL     1       0.717  12.099  20.088  0.00  0.00    +0.000 C 
ATOM     25  O   UNL     1       0.476  13.069  19.384  0.00  0.00    +0.000 OA
BRANCH  24  26
ATOM     26  O   UNL     1       1.547  12.192  21.155  0.00  0.00    +0.000 OA
ATOM     27  H   UNL     1       1.178  11.805  21.973  0.00  0.00    +0.000 HD
ENDBRANCH  24  26
ENDBRANCH  23  24
ENDBRANCH   1  23
TORSDOF 4
ENDMDL
