MODEL 1
REMARK VINA RESULT:      -5.7      0.000      0.000
REMARK  Name = 
REMARK  5 active torsions:
REMARK  status: ('A' for Active; 'I' for Inactive)
REMARK    1  A    between atoms: C_1  and  C_2
REMARK    2  A    between atoms: C_2  and  N_3
REMARK    3  A    between atoms: C_4  and  S_5
REMARK    4  A    between atoms: N_6  and  C_7
REMARK    5  A    between atoms: C_10  and  C_11
REMARK                            x       y       z     vdW  Elec       q    Type
REMARK                         _______ _______ _______ _____ _____    ______ ____
ROOT
ATOM      1  N   UNL     1       5.718   5.924  17.287  0.00  0.00    +0.000 NA
ATOM      2  C   UNL     1       5.731   4.943  16.462  0.00  0.00    +0.000 C 
ATOM      3  N   UNL     1       4.875   3.869  16.506  0.00  0.00    +0.000 N 
ATOM      4  H   UNL     1       5.121   3.092  15.910  0.00  0.00    +0.000 HD
ENDROOT
BRANCH   3   5
ATOM      5  C   UNL     1       3.833   3.650  17.423  0.00  0.00    +0.000 A 
ATOM      6  C   UNL     1       2.522   4.077  17.189  0.00  0.00    +0.000 A 
ATOM      7  C   UNL     1       1.530   3.954  18.166  0.00  0.00    +0.000 A 
ATOM      8  C   UNL     1       1.827   3.408  19.418  0.00  0.00    +0.000 A 
ATOM      9  C   UNL     1       0.754   3.350  20.467  0.00  0.00    +0.000 C 
ATOM     10  C   UNL     1       3.133   2.955  19.652  0.00  0.00    +0.000 A 
ATOM     11 CL   UNL     1       3.584   2.258  21.168  0.00  0.00    +0.000 Cl
ATOM     12  C   UNL     1       4.121   3.073  18.666  0.00  0.00    +0.000 A 
ENDBRANCH   3   5
BRANCH   1  14
ATOM     13  C   UNL     1       7.733   6.793  18.257  0.00  0.00    +0.000 C 
ATOM     14  C   UNL     1       6.623   7.055  17.250  0.00  0.00    +0.000 C 
ENDBRANCH   1  14
BRANCH   2  15
ATOM     15  S   UNL     1       6.878   4.776  15.138  0.00  0.00    +0.000 S 
ATOM     16  H   UNL     1       6.515   3.556  14.732  0.00  0.00    +0.000 HD
ENDBRANCH   2  15
TORSDOF 3
ENDMDL
MODEL 2
REMARK VINA RESULT:      -5.7      2.866      5.354
REMARK  Name = 
REMARK  5 active torsions:
REMARK  status: ('A' for Active; 'I' for Inactive)
REMARK    1  A    between atoms: C_1  and  C_2
REMARK    2  A    between atoms: C_2  and  N_3
REMARK    3  A    between atoms: C_4  and  S_5
REMARK    4  A    between atoms: N_6  and  C_7
REMARK    5  A    between atoms: C_10  and  C_11
REMARK                            x       y       z     vdW  Elec       q    Type
REMARK                         _______ _______ _______ _____ _____    ______ ____
ROOT
ATOM      1  N   UNL     1       2.470   4.258  19.604  0.00  0.00    +0.000 NA
ATOM      2  C   UNL     1       2.812   3.466  18.656  0.00  0.00    +0.000 C 
ATOM      3  N   UNL     1       3.851   3.685  17.785  0.00  0.00    +0.000 N 
ATOM      4  H   UNL     1       3.886   3.072  16.984  0.00  0.00    +0.000 HD
ENDROOT
BRANCH   3   5
ATOM      5  C   UNL     1       4.734   4.779  17.774  0.00  0.00    +0.000 A 
ATOM      6  C   UNL     1       4.595   5.850  16.886  0.00  0.00    +0.000 A 
ATOM      7  C   UNL     1       5.552   6.866  16.813  0.00  0.00    +0.000 A 
ATOM      8  C   UNL     1       6.691   6.832  17.624  0.00  0.00    +0.000 A 
ATOM      9  C   UNL     1       7.731   7.904  17.476  0.00  0.00    +0.000 C 
ATOM     10  C   UNL     1       6.825   5.775  18.535  0.00  0.00    +0.000 A 
ATOM     11 CL   UNL     1       8.196   5.659  19.582  0.00  0.00    +0.000 Cl
ATOM     12  C   UNL     1       5.858   4.763  18.610  0.00  0.00    +0.000 A 
ENDBRANCH   3   5
BRANCH   1  14
ATOM     13  C   UNL     1       1.919   3.299  21.732  0.00  0.00    +0.000 C 
ATOM     14  C   UNL     1       1.370   4.035  20.519  0.00  0.00    +0.000 C 
ENDBRANCH   1  14
BRANCH   2  15
ATOM     15  S   UNL     1       1.983   1.961  18.274  0.00  0.00    +0.000 S 
ATOM     16  H   UNL     1       1.411   2.351  17.132  0.00  0.00    +0.000 HD
ENDBRANCH   2  15
TORSDOF 3
ENDMDL
MODEL 3
REMARK VINA RESULT:      -5.7      1.474      1.711
REMARK  Name = 
REMARK  5 active torsions:
REMARK  status: ('A' for Active; 'I' for Inactive)
REMARK    1  A    between atoms: C_1  and  C_2
REMARK    2  A    between atoms: C_2  and  N_3
REMARK    3  A    between atoms: C_4  and  S_5
REMARK    4  A    between atoms: N_6  and  C_7
REMARK    5  A    between atoms: C_10  and  C_11
REMARK                            x       y       z     vdW  Elec       q    Type
REMARK                         _______ _______ _______ _____ _____    ______ ____
ROOT
ATOM      1  N   UNL     1       6.089   5.168  17.375  0.00  0.00    +0.000 NA
ATOM      2  C   UNL     1       5.390   4.652  16.432  0.00  0.00    +0.000 C 
ATOM      3  N   UNL     1       4.238   3.926  16.614  0.00  0.00    +0.000 N 
ATOM      4  H   UNL     1       3.901   3.432  15.801  0.00  0.00    +0.000 HD
ENDROOT
BRANCH   3   5
ATOM      5  C   UNL     1       3.603   3.633  17.833  0.00  0.00    +0.000 A 
ATOM      6  C   UNL     1       3.376   2.323  18.268  0.00  0.00    +0.000 A 
ATOM      7  C   UNL     1       2.637   2.056  19.423  0.00  0.00    +0.000 A 
ATOM      8  C   UNL     1       2.088   3.099  20.175  0.00  0.00    +0.000 A 
ATOM      9  C   UNL     1       1.245   2.776  21.375  0.00  0.00    +0.000 C 
ATOM     10  C   UNL     1       2.331   4.415  19.760  0.00  0.00    +0.000 A 
ATOM     11 CL   UNL     1       1.699   5.765  20.635  0.00  0.00    +0.000 Cl
ATOM     12  C   UNL     1       3.081   4.678  18.605  0.00  0.00    +0.000 A 
ENDBRANCH   3   5
BRANCH   1  14
ATOM     13  C   UNL     1       7.774   6.398  18.558  0.00  0.00    +0.000 C 
ATOM     14  C   UNL     1       7.308   5.926  17.189  0.00  0.00    +0.000 C 
ENDBRANCH   1  14
BRANCH   2  15
ATOM     15  S   UNL     1       5.804   4.750  14.724  0.00  0.00    +0.000 S 
ATOM     16  H   UNL     1       6.890   5.519  14.842  0.00  0.00    +0.000 HD
ENDBRANCH   2  15
TORSDOF 3
ENDMDL
MODEL 4
REMARK VINA RESULT:      -5.7      1.585      2.185
REMARK  Name = 
REMARK  5 active torsions:
REMARK  status: ('A' for Active; 'I' for Inactive)
REMARK    1  A    between atoms: C_1  and  C_2
REMARK    2  A    between atoms: C_2  and  N_3
REMARK    3  A    between atoms: C_4  and  S_5
REMARK    4  A    between atoms: N_6  and  C_7
REMARK    5  A    between atoms: C_10  and  C_11
REMARK                            x       y       z     vdW  Elec       q    Type
REMARK                         _______ _______ _______ _____ _____    ______ ____
ROOT
ATOM      1  N   UNL     1       6.019   4.873  16.257  0.00  0.00    +0.000 NA
ATOM      2  C   UNL     1       6.052   5.687  17.248  0.00  0.00    +0.000 C 
ATOM      3  N   UNL     1       5.142   5.709  18.276  0.00  0.00    +0.000 N 
ATOM      4  H   UNL     1       5.188   6.514  18.881  0.00  0.00    +0.000 HD
ENDROOT
BRANCH   3   5
ATOM      5  C   UNL     1       4.039   4.856  18.453  0.00  0.00    +0.000 A 
ATOM      6  C   UNL     1       3.021   4.733  17.502  0.00  0.00    +0.000 A 
ATOM      7  C   UNL     1       1.877   3.971  17.753  0.00  0.00    +0.000 A 
ATOM      8  C   UNL     1       1.711   3.315  18.977  0.00  0.00    +0.000 A 
ATOM      9  C   UNL     1       0.442   2.558  19.239  0.00  0.00    +0.000 C 
ATOM     10  C   UNL     1       2.739   3.412  19.926  0.00  0.00    +0.000 A 
ATOM     11 CL   UNL     1       2.622   2.626  21.461  0.00  0.00    +0.000 Cl
ATOM     12  C   UNL     1       3.888   4.171  19.666  0.00  0.00    +0.000 A 
ENDBRANCH   3   5
BRANCH   1  14
ATOM     13  C   UNL     1       6.323   4.123  13.999  0.00  0.00    +0.000 C 
ATOM     14  C   UNL     1       6.972   4.851  15.166  0.00  0.00    +0.000 C 
ENDBRANCH   1  14
BRANCH   2  15
ATOM     15  S   UNL     1       7.256   6.954  17.450  0.00  0.00    +0.000 S 
ATOM     16  H   UNL     1       7.528   6.745  18.741  0.00  0.00    +0.000 HD
ENDBRANCH   2  15
TORSDOF 3
ENDMDL
MODEL 5
REMARK VINA RESULT:      -5.5      1.409      1.886
REMARK  Name = 
REMARK  5 active torsions:
REMARK  status: ('A' for Active; 'I' for Inactive)
REMARK    1  A    between atoms: C_1  and  C_2
REMARK    2  A    between atoms: C_2  and  N_3
REMARK    3  A    between atoms: C_4  and  S_5
REMARK    4  A    between atoms: N_6  and  C_7
REMARK    5  A    between atoms: C_10  and  C_11
REMARK                            x       y       z     vdW  Elec       q    Type
REMARK                         _______ _______ _______ _____ _____    ______ ____
ROOT
ATOM      1  N   UNL     1       5.639   5.672  17.179  0.00  0.00    +0.000 NA
ATOM      2  C   UNL     1       5.616   4.555  16.550  0.00  0.00    +0.000 C 
ATOM      3  N   UNL     1       4.928   3.438  16.958  0.00  0.00    +0.000 N 
ATOM      4  H   UNL     1       5.151   2.586  16.466  0.00  0.00    +0.000 HD
ENDROOT
BRANCH   3   5
ATOM      5  C   UNL     1       4.118   3.309  18.099  0.00  0.00    +0.000 A 
ATOM      6  C   UNL     1       4.643   3.271  19.395  0.00  0.00    +0.000 A 
ATOM      7  C   UNL     1       3.829   3.021  20.503  0.00  0.00    +0.000 A 
ATOM      8  C   UNL     1       2.460   2.788  20.345  0.00  0.00    +0.000 A 
ATOM      9  C   UNL     1       1.626   2.459  21.549  0.00  0.00    +0.000 C 
ATOM     10  C   UNL     1       1.922   2.849  19.052  0.00  0.00    +0.000 A 
ATOM     11 CL   UNL     1       0.238   2.582  18.765  0.00  0.00    +0.000 Cl
ATOM     12  C   UNL     1       2.741   3.108  17.944  0.00  0.00    +0.000 A 
ENDBRANCH   3   5
BRANCH   1  14
ATOM     13  C   UNL     1       7.535   7.039  17.715  0.00  0.00    +0.000 C 
ATOM     14  C   UNL     1       6.369   6.850  16.757  0.00  0.00    +0.000 C 
ENDBRANCH   1  14
BRANCH   2  15
ATOM     15  S   UNL     1       6.499   4.237  15.061  0.00  0.00    +0.000 S 
ATOM     16  H   UNL     1       7.635   3.797  15.610  0.00  0.00    +0.000 HD
ENDBRANCH   2  15
TORSDOF 3
ENDMDL
MODEL 6
REMARK VINA RESULT:      -5.5      3.123      4.327
REMARK  Name = 
REMARK  5 active torsions:
REMARK  status: ('A' for Active; 'I' for Inactive)
REMARK    1  A    between atoms: C_1  and  C_2
REMARK    2  A    between atoms: C_2  and  N_3
REMARK    3  A    between atoms: C_4  and  S_5
REMARK    4  A    between atoms: N_6  and  C_7
REMARK    5  A    between atoms: C_10  and  C_11
REMARK                            x       y       z     vdW  Elec       q    Type
REMARK                         _______ _______ _______ _____ _____    ______ ____
ROOT
ATOM      1  N   UNL     1       5.811   3.909  13.463  0.00  0.00    +0.000 NA
ATOM      2  C   UNL     1       6.670   4.763  13.884  0.00  0.00    +0.000 C 
ATOM      3  N   UNL     1       6.590   5.434  15.080  0.00  0.00    +0.000 N 
ATOM      4  H   UNL     1       7.234   6.202  15.192  0.00  0.00    +0.000 HD
ENDROOT
BRANCH   3   5
ATOM      5  C   UNL     1       5.591   5.306  16.060  0.00  0.00    +0.000 A 
ATOM      6  C   UNL     1       5.168   4.066  16.547  0.00  0.00    +0.000 A 
ATOM      7  C   UNL     1       4.091   3.958  17.432  0.00  0.00    +0.000 A 
ATOM      8  C   UNL     1       3.395   5.097  17.849  0.00  0.00    +0.000 A 
ATOM      9  C   UNL     1       2.204   4.941  18.749  0.00  0.00    +0.000 C 
ATOM     10  C   UNL     1       3.829   6.347  17.386  0.00  0.00    +0.000 A 
ATOM     11 CL   UNL     1       3.033   7.806  17.858  0.00  0.00    +0.000 Cl
ATOM     12  C   UNL     1       4.915   6.449  16.505  0.00  0.00    +0.000 A 
ENDBRANCH   3   5
BRANCH   1  14
ATOM     13  C   UNL     1       4.503   3.233  11.570  0.00  0.00    +0.000 C 
ATOM     14  C   UNL     1       5.887   3.205  12.200  0.00  0.00    +0.000 C 
ENDBRANCH   1  14
BRANCH   2  15
ATOM     15  S   UNL     1       8.099   5.259  12.983  0.00  0.00    +0.000 S 
ATOM     16  H   UNL     1       7.975   4.410  11.960  0.00  0.00    +0.000 HD
ENDBRANCH   2  15
TORSDOF 3
ENDMDL
MODEL 7
REMARK VINA RESULT:      -5.5      1.819      2.372
REMARK  Name = 
REMARK  5 active torsions:
REMARK  status: ('A' for Active; 'I' for Inactive)
REMARK    1  A    between atoms: C_1  and  C_2
REMARK    2  A    between atoms: C_2  and  N_3
REMARK    3  A    between atoms: C_4  and  S_5
REMARK    4  A    between atoms: N_6  and  C_7
REMARK    5  A    between atoms: C_10  and  C_11
REMARK                            x       y       z     vdW  Elec       q    Type
REMARK                         _______ _______ _______ _____ _____    ______ ____
ROOT
ATOM      1  N   UNL     1       6.130   5.084  15.848  0.00  0.00    +0.000 NA
ATOM      2  C   UNL     1       6.145   5.847  16.879  0.00  0.00    +0.000 C 
ATOM      3  N   UNL     1       5.208   5.829  17.883  0.00  0.00    +0.000 N 
ATOM      4  H   UNL     1       5.246   6.603  18.529  0.00  0.00    +0.000 HD
ENDROOT
BRANCH   3   5
ATOM      5  C   UNL     1       4.091   4.981  17.988  0.00  0.00    +0.000 A 
ATOM      6  C   UNL     1       2.779   5.464  18.013  0.00  0.00    +0.000 A 
ATOM      7  C   UNL     1       1.693   4.613  18.238  0.00  0.00    +0.000 A 
ATOM      8  C   UNL     1       1.892   3.247  18.460  0.00  0.00    +0.000 A 
ATOM      9  C   UNL     1       0.711   2.372  18.763  0.00  0.00    +0.000 C 
ATOM     10  C   UNL     1       3.203   2.751  18.412  0.00  0.00    +0.000 A 
ATOM     11 CL   UNL     1       3.539   1.074  18.666  0.00  0.00    +0.000 Cl
ATOM     12  C   UNL     1       4.287   3.607  18.177  0.00  0.00    +0.000 A 
ENDBRANCH   3   5
BRANCH   1  14
ATOM     13  C   UNL     1       6.614   4.186  13.678  0.00  0.00    +0.000 C 
ATOM     14  C   UNL     1       7.111   5.104  14.783  0.00  0.00    +0.000 C 
ENDBRANCH   1  14
BRANCH   2  15
ATOM     15  S   UNL     1       7.357   7.087  17.177  0.00  0.00    +0.000 S 
ATOM     16  H   UNL     1       7.813   6.623  18.343  0.00  0.00    +0.000 HD
ENDBRANCH   2  15
TORSDOF 3
ENDMDL
MODEL 8
REMARK VINA RESULT:      -5.4      1.748      2.113
REMARK  Name = 
REMARK  5 active torsions:
REMARK  status: ('A' for Active; 'I' for Inactive)
REMARK    1  A    between atoms: C_1  and  C_2
REMARK    2  A    between atoms: C_2  and  N_3
REMARK    3  A    between atoms: C_4  and  S_5
REMARK    4  A    between atoms: N_6  and  C_7
REMARK    5  A    between atoms: C_10  and  C_11
REMARK                            x       y       z     vdW  Elec       q    Type
REMARK                         _______ _______ _______ _____ _____    ______ ____
ROOT
ATOM      1  N   UNL     1       6.730   5.536  18.410  0.00  0.00    +0.000 NA
ATOM      2  C   UNL     1       6.290   4.799  17.458  0.00  0.00    +0.000 C 
ATOM      3  N   UNL     1       5.224   3.939  17.558  0.00  0.00    +0.000 N 
ATOM      4  H   UNL     1       5.110   3.295  16.790  0.00  0.00    +0.000 HD
ENDROOT
BRANCH   3   5
ATOM      5  C   UNL     1       4.413   3.718  18.685  0.00  0.00    +0.000 A 
ATOM      6  C   UNL     1       4.382   2.496  19.363  0.00  0.00    +0.000 A 
ATOM      7  C   UNL     1       3.480   2.263  20.405  0.00  0.00    +0.000 A 
ATOM      8  C   UNL     1       2.569   3.250  20.793  0.00  0.00    +0.000 A 
ATOM      9  C   UNL     1       1.571   2.945  21.872  0.00  0.00    +0.000 C 
ATOM     10  C   UNL     1       2.611   4.487  20.135  0.00  0.00    +0.000 A 
ATOM     11 CL   UNL     1       1.527   5.766  20.557  0.00  0.00    +0.000 Cl
ATOM     12  C   UNL     1       3.523   4.718  19.096  0.00  0.00    +0.000 A 
ENDBRANCH   3   5
BRANCH   1  14
ATOM     13  C   UNL     1       7.377   7.708  17.625  0.00  0.00    +0.000 C 
ATOM     14  C   UNL     1       7.858   6.439  18.312  0.00  0.00    +0.000 C 
ENDBRANCH   1  14
BRANCH   2  15
ATOM     15  S   UNL     1       7.002   4.728  15.849  0.00  0.00    +0.000 S 
ATOM     16  H   UNL     1       5.870   4.789  15.144  0.00  0.00    +0.000 HD
ENDBRANCH   2  15
TORSDOF 3
ENDMDL
MODEL 9
REMARK VINA RESULT:      -5.4      1.881      2.220
REMARK  Name = 
REMARK  5 active torsions:
REMARK  status: ('A' for Active; 'I' for Inactive)
REMARK    1  A    between atoms: C_1  and  C_2
REMARK    2  A    between atoms: C_2  and  N_3
REMARK    3  A    between atoms: C_4  and  S_5
REMARK    4  A    between atoms: N_6  and  C_7
REMARK    5  A    between atoms: C_10  and  C_11
REMARK                            x       y       z     vdW  Elec       q    Type
REMARK                         _______ _______ _______ _____ _____    ______ ____
ROOT
ATOM      1  N   UNL     1       5.852   5.014  17.992  0.00  0.00    +0.000 NA
ATOM      2  C   UNL     1       4.997   5.628  17.259  0.00  0.00    +0.000 C 
ATOM      3  N   UNL     1       3.640   5.632  17.472  0.00  0.00    +0.000 N 
ATOM      4  H   UNL     1       3.082   6.001  16.717  0.00  0.00    +0.000 HD
ENDROOT
BRANCH   3   5
ATOM      5  C   UNL     1       2.942   5.003  18.517  0.00  0.00    +0.000 A 
ATOM      6  C   UNL     1       3.127   5.345  19.860  0.00  0.00    +0.000 A 
ATOM      7  C   UNL     1       2.511   4.624  20.887  0.00  0.00    +0.000 A 
ATOM      8  C   UNL     1       1.698   3.524  20.598  0.00  0.00    +0.000 A 
ATOM      9  C   UNL     1       1.105   2.732  21.727  0.00  0.00    +0.000 C 
ATOM     10  C   UNL     1       1.488   3.190  19.253  0.00  0.00    +0.000 A 
ATOM     11 CL   UNL     1       0.490   1.851  18.806  0.00  0.00    +0.000 Cl
ATOM     12  C   UNL     1       2.100   3.921  18.227  0.00  0.00    +0.000 A 
ENDBRANCH   3   5
BRANCH   1  14
ATOM     13  C   UNL     1       7.930   5.852  18.847  0.00  0.00    +0.000 C 
ATOM     14  C   UNL     1       7.283   5.000  17.767  0.00  0.00    +0.000 C 
ENDBRANCH   1  14
BRANCH   2  15
ATOM     15  S   UNL     1       5.407   6.551  15.817  0.00  0.00    +0.000 S 
ATOM     16  H   UNL     1       6.578   7.037  16.237  0.00  0.00    +0.000 HD
ENDBRANCH   2  15
TORSDOF 3
ENDMDL
