MODEL 1
REMARK VINA RESULT:      -8.0      0.000      0.000
REMARK  Name = 
REMARK  4 active torsions:
REMARK  status: ('A' for Active; 'I' for Inactive)
REMARK    1  A    between atoms: O_1  and  C_2
REMARK    2  A    between atoms: C_5  and  C_6
REMARK    3  A    between atoms: C_10  and  C_11
REMARK    4  A    between atoms: C_16  and  O_17
REMARK                            x       y       z     vdW  Elec       q    Type
REMARK                         _______ _______ _______ _____ _____    ______ ____
ROOT
ATOM      1  C   UNL     1       4.038   5.018  18.591  0.00  0.00    +0.000 A 
ATOM      2  C   UNL     1       3.758   3.892  19.367  0.00  0.00    +0.000 A 
ATOM      3  N   UNL     1       2.868   3.860  20.386  0.00  0.00    +0.000 NA
ATOM      4  C   UNL     1       2.233   5.022  20.652  0.00  0.00    +0.000 A 
ATOM      5  C   UNL     1       2.414   6.214  19.957  0.00  0.00    +0.000 A 
ATOM      6  C   UNL     1       3.344   6.192  18.920  0.00  0.00    +0.000 A 
ENDROOT
BRANCH   5   7
ATOM      7  C   UNL     1       1.658   7.414  20.306  0.00  0.00    +0.000 A 
ATOM      8  C   UNL     1       1.432   8.549  19.549  0.00  0.00    +0.000 A 
ATOM      9  C   UNL     1       0.924   9.552  20.399  0.00  0.00    +0.000 A 
ATOM     10  C   UNL     1       0.738  10.937  20.262  0.00  0.00    +0.000 A 
ATOM     11  C   UNL     1       0.126  11.643  21.299  0.00  0.00    +0.000 A 
ATOM     12  C   UNL     1      -0.374  10.961  22.405  0.00  0.00    +0.000 A 
ATOM     13  C   UNL     1      -0.168   9.591  22.586  0.00  0.00    +0.000 A 
ATOM     14  C   UNL     1       0.554   8.926  21.589  0.00  0.00    +0.000 A 
ATOM     15  N   UNL     1       1.085   7.654  21.541  0.00  0.00    +0.000 N 
ATOM     16  H   UNL     1       1.146   7.047  22.346  0.00  0.00    +0.000 HD
BRANCH  12  17
ATOM     17  O   UNL     1      -1.075  11.628  23.369  0.00  0.00    +0.000 OA
ATOM     18  H   UNL     1      -1.113  12.565  23.116  0.00  0.00    +0.000 HD
ENDBRANCH  12  17
ENDBRANCH   5   7
BRANCH   1  22
ATOM     19  C   UNL     1       6.848   5.118  15.358  0.00  0.00    +0.000 A 
ATOM     20  C   UNL     1       5.738   4.294  15.274  0.00  0.00    +0.000 A 
ATOM     21  C   UNL     1       4.850   4.239  16.350  0.00  0.00    +0.000 A 
ATOM     22  C   UNL     1       5.041   5.013  17.512  0.00  0.00    +0.000 A 
ATOM     23  C   UNL     1       6.190   5.814  17.572  0.00  0.00    +0.000 A 
ATOM     24  C   UNL     1       7.090   5.863  16.504  0.00  0.00    +0.000 A 
BRANCH  19  25
ATOM     25  O   UNL     1       7.732   5.218  14.328  0.00  0.00    +0.000 OA
ATOM     26  H   UNL     1       7.925   4.327  13.994  0.00  0.00    +0.000 HD
ENDBRANCH  19  25
ENDBRANCH   1  22
TORSDOF 4
ENDMDL
MODEL 2
REMARK VINA RESULT:      -7.8      2.800      8.524
REMARK  Name = 
REMARK  4 active torsions:
REMARK  status: ('A' for Active; 'I' for Inactive)
REMARK    1  A    between atoms: O_1  and  C_2
REMARK    2  A    between atoms: C_5  and  C_6
REMARK    3  A    between atoms: C_10  and  C_11
REMARK    4  A    between atoms: C_16  and  O_17
REMARK                            x       y       z     vdW  Elec       q    Type
REMARK                         _______ _______ _______ _____ _____    ______ ____
ROOT
ATOM      1  C   UNL     1       1.024   9.679  19.625  0.00  0.00    +0.000 A 
ATOM      2  C   UNL     1       1.457  10.449  18.543  0.00  0.00    +0.000 A 
ATOM      3  N   UNL     1       2.219   9.986  17.525  0.00  0.00    +0.000 NA
ATOM      4  C   UNL     1       2.577   8.686  17.599  0.00  0.00    +0.000 A 
ATOM      5  C   UNL     1       2.211   7.808  18.615  0.00  0.00    +0.000 A 
ATOM      6  C   UNL     1       1.431   8.337  19.640  0.00  0.00    +0.000 A 
ENDROOT
BRANCH   5   7
ATOM      7  C   UNL     1       2.629   6.409  18.591  0.00  0.00    +0.000 A 
ATOM      8  C   UNL     1       2.058   5.343  17.921  0.00  0.00    +0.000 A 
ATOM      9  C   UNL     1       2.607   4.151  18.436  0.00  0.00    +0.000 A 
ATOM     10  C   UNL     1       2.261   2.796  18.326  0.00  0.00    +0.000 A 
ATOM     11  C   UNL     1       3.083   1.837  18.918  0.00  0.00    +0.000 A 
ATOM     12  C   UNL     1       4.276   2.222  19.523  0.00  0.00    +0.000 A 
ATOM     13  C   UNL     1       4.627   3.564  19.683  0.00  0.00    +0.000 A 
ATOM     14  C   UNL     1       3.726   4.514  19.186  0.00  0.00    +0.000 A 
ATOM     15  N   UNL     1       3.668   5.883  19.335  0.00  0.00    +0.000 N 
ATOM     16  H   UNL     1       4.236   6.394  19.997  0.00  0.00    +0.000 HD
BRANCH  12  17
ATOM     17  O   UNL     1       5.142   1.281  20.004  0.00  0.00    +0.000 OA
ATOM     18  H   UNL     1       4.978   1.182  20.956  0.00  0.00    +0.000 HD
ENDBRANCH  12  17
ENDBRANCH   5   7
BRANCH   1  22
ATOM     19  C   UNL     1      -1.457  11.239  22.751  0.00  0.00    +0.000 A 
ATOM     20  C   UNL     1      -1.313  11.951  21.572  0.00  0.00    +0.000 A 
ATOM     21  C   UNL     1      -0.472  11.454  20.576  0.00  0.00    +0.000 A 
ATOM     22  C   UNL     1       0.223  10.237  20.729  0.00  0.00    +0.000 A 
ATOM     23  C   UNL     1       0.075   9.558  21.946  0.00  0.00    +0.000 A 
ATOM     24  C   UNL     1      -0.756  10.057  22.953  0.00  0.00    +0.000 A 
BRANCH  19  25
ATOM     25  O   UNL     1      -2.279  11.674  23.744  0.00  0.00    +0.000 OA
ATOM     26  H   UNL     1      -3.194  11.439  23.519  0.00  0.00    +0.000 HD
ENDBRANCH  19  25
ENDBRANCH   1  22
TORSDOF 4
ENDMDL
MODEL 3
REMARK VINA RESULT:      -7.8      2.798      8.527
REMARK  Name = 
REMARK  4 active torsions:
REMARK  status: ('A' for Active; 'I' for Inactive)
REMARK    1  A    between atoms: O_1  and  C_2
REMARK    2  A    between atoms: C_5  and  C_6
REMARK    3  A    between atoms: C_10  and  C_11
REMARK    4  A    between atoms: C_16  and  O_17
REMARK                            x       y       z     vdW  Elec       q    Type
REMARK                         _______ _______ _______ _____ _____    ______ ____
ROOT
ATOM      1  C   UNL     1       0.949   9.630  19.567  0.00  0.00    +0.000 A 
ATOM      2  C   UNL     1       1.446  10.418  18.527  0.00  0.00    +0.000 A 
ATOM      3  N   UNL     1       2.267   9.974  17.548  0.00  0.00    +0.000 NA
ATOM      4  C   UNL     1       2.620   8.671  17.620  0.00  0.00    +0.000 A 
ATOM      5  C   UNL     1       2.194   7.776  18.596  0.00  0.00    +0.000 A 
ATOM      6  C   UNL     1       1.354   8.288  19.583  0.00  0.00    +0.000 A 
ENDROOT
BRANCH   5   7
ATOM      7  C   UNL     1       2.613   6.377  18.572  0.00  0.00    +0.000 A 
ATOM      8  C   UNL     1       2.028   5.306  17.922  0.00  0.00    +0.000 A 
ATOM      9  C   UNL     1       2.590   4.119  18.432  0.00  0.00    +0.000 A 
ATOM     10  C   UNL     1       2.243   2.762  18.339  0.00  0.00    +0.000 A 
ATOM     11  C   UNL     1       3.078   1.808  18.919  0.00  0.00    +0.000 A 
ATOM     12  C   UNL     1       4.284   2.198  19.497  0.00  0.00    +0.000 A 
ATOM     13  C   UNL     1       4.637   3.542  19.640  0.00  0.00    +0.000 A 
ATOM     14  C   UNL     1       3.725   4.487  19.156  0.00  0.00    +0.000 A 
ATOM     15  N   UNL     1       3.668   5.857  19.298  0.00  0.00    +0.000 N 
ATOM     16  H   UNL     1       4.250   6.373  19.944  0.00  0.00    +0.000 HD
BRANCH  12  17
ATOM     17  O   UNL     1       5.161   1.261  19.964  0.00  0.00    +0.000 OA
ATOM     18  H   UNL     1       6.003   1.707  20.152  0.00  0.00    +0.000 HD
ENDBRANCH  12  17
ENDBRANCH   5   7
BRANCH   1  22
ATOM     19  C   UNL     1      -1.419  11.278  22.735  0.00  0.00    +0.000 A 
ATOM     20  C   UNL     1      -0.673  10.133  22.963  0.00  0.00    +0.000 A 
ATOM     21  C   UNL     1       0.063   9.582  21.913  0.00  0.00    +0.000 A 
ATOM     22  C   UNL     1       0.084  10.169  20.631  0.00  0.00    +0.000 A 
ATOM     23  C   UNL     1      -0.705  11.310  20.431  0.00  0.00    +0.000 A 
ATOM     24  C   UNL     1      -1.455  11.859  21.475  0.00  0.00    +0.000 A 
BRANCH  19  25
ATOM     25  O   UNL     1      -2.139  11.861  23.732  0.00  0.00    +0.000 OA
ATOM     26  H   UNL     1      -2.711  12.545  23.347  0.00  0.00    +0.000 HD
ENDBRANCH  19  25
ENDBRANCH   1  22
TORSDOF 4
ENDMDL
MODEL 4
REMARK VINA RESULT:      -7.8      0.420      1.088
REMARK  Name = 
REMARK  4 active torsions:
REMARK  status: ('A' for Active; 'I' for Inactive)
REMARK    1  A    between atoms: O_1  and  C_2
REMARK    2  A    between atoms: C_5  and  C_6
REMARK    3  A    between atoms: C_10  and  C_11
REMARK    4  A    between atoms: C_16  and  O_17
REMARK                            x       y       z     vdW  Elec       q    Type
REMARK                         _______ _______ _______ _____ _____    ______ ____
ROOT
ATOM      1  C   UNL     1       3.838   5.425  18.608  0.00  0.00    +0.000 A 
ATOM      2  C   UNL     1       3.557   4.295  19.380  0.00  0.00    +0.000 A 
ATOM      3  N   UNL     1       2.672   4.262  20.403  0.00  0.00    +0.000 NA
ATOM      4  C   UNL     1       2.044   5.426  20.678  0.00  0.00    +0.000 A 
ATOM      5  C   UNL     1       2.226   6.620  19.988  0.00  0.00    +0.000 A 
ATOM      6  C   UNL     1       3.151   6.600  18.947  0.00  0.00    +0.000 A 
ENDROOT
BRANCH   5   7
ATOM      7  C   UNL     1       1.477   7.822  20.347  0.00  0.00    +0.000 A 
ATOM      8  C   UNL     1       1.287   8.978  19.613  0.00  0.00    +0.000 A 
ATOM      9  C   UNL     1       0.770   9.967  20.474  0.00  0.00    +0.000 A 
ATOM     10  C   UNL     1       0.605  11.357  20.368  0.00  0.00    +0.000 A 
ATOM     11  C   UNL     1      -0.024  12.046  21.405  0.00  0.00    +0.000 A 
ATOM     12  C   UNL     1      -0.563  11.344  22.479  0.00  0.00    +0.000 A 
ATOM     13  C   UNL     1      -0.380   9.967  22.632  0.00  0.00    +0.000 A 
ATOM     14  C   UNL     1       0.360   9.316  21.638  0.00  0.00    +0.000 A 
ATOM     15  N   UNL     1       0.875   8.039  21.572  0.00  0.00    +0.000 N 
ATOM     16  H   UNL     1       0.905   7.411  22.363  0.00  0.00    +0.000 HD
BRANCH  12  17
ATOM     17  O   UNL     1      -1.280  11.996  23.441  0.00  0.00    +0.000 OA
ATOM     18  H   UNL     1      -2.224  11.866  23.250  0.00  0.00    +0.000 HD
ENDBRANCH  12  17
ENDBRANCH   5   7
BRANCH   1  22
ATOM     19  C   UNL     1       6.843   5.296  15.556  0.00  0.00    +0.000 A 
ATOM     20  C   UNL     1       7.026   6.110  16.662  0.00  0.00    +0.000 A 
ATOM     21  C   UNL     1       6.023   6.175  17.631  0.00  0.00    +0.000 A 
ATOM     22  C   UNL     1       4.836   5.421  17.525  0.00  0.00    +0.000 A 
ATOM     23  C   UNL     1       4.675   4.631  16.378  0.00  0.00    +0.000 A 
ATOM     24  C   UNL     1       5.669   4.572  15.398  0.00  0.00    +0.000 A 
BRANCH  19  25
ATOM     25  O   UNL     1       7.799   5.187  14.594  0.00  0.00    +0.000 OA
ATOM     26  H   UNL     1       7.561   5.762  13.849  0.00  0.00    +0.000 HD
ENDBRANCH  19  25
ENDBRANCH   1  22
TORSDOF 4
ENDMDL
MODEL 5
REMARK VINA RESULT:      -7.8      1.023      1.493
REMARK  Name = 
REMARK  4 active torsions:
REMARK  status: ('A' for Active; 'I' for Inactive)
REMARK    1  A    between atoms: O_1  and  C_2
REMARK    2  A    between atoms: C_5  and  C_6
REMARK    3  A    between atoms: C_10  and  C_11
REMARK    4  A    between atoms: C_16  and  O_17
REMARK                            x       y       z     vdW  Elec       q    Type
REMARK                         _______ _______ _______ _____ _____    ______ ____
ROOT
ATOM      1  C   UNL     1       3.664   5.322  18.579  0.00  0.00    +0.000 A 
ATOM      2  C   UNL     1       3.114   4.185  19.175  0.00  0.00    +0.000 A 
ATOM      3  N   UNL     1       2.138   4.201  20.111  0.00  0.00    +0.000 NA
ATOM      4  C   UNL     1       1.696   5.423  20.482  0.00  0.00    +0.000 A 
ATOM      5  C   UNL     1       2.151   6.633  19.966  0.00  0.00    +0.000 A 
ATOM      6  C   UNL     1       3.160   6.558  19.008  0.00  0.00    +0.000 A 
ENDROOT
BRANCH   5   7
ATOM      7  C   UNL     1       1.589   7.904  20.415  0.00  0.00    +0.000 A 
ATOM      8  C   UNL     1       1.133   8.257  21.671  0.00  0.00    +0.000 A 
ATOM      9  C   UNL     1       0.405   9.458  21.556  0.00  0.00    +0.000 A 
ATOM     10  C   UNL     1      -0.465  10.152  22.411  0.00  0.00    +0.000 A 
ATOM     11  C   UNL     1      -0.974  11.386  22.004  0.00  0.00    +0.000 A 
ATOM     12  C   UNL     1      -0.543  11.955  20.808  0.00  0.00    +0.000 A 
ATOM     13  C   UNL     1       0.289  11.271  19.919  0.00  0.00    +0.000 A 
ATOM     14  C   UNL     1       0.691   9.984  20.296  0.00  0.00    +0.000 A 
ATOM     15  N   UNL     1       1.337   8.988  19.595  0.00  0.00    +0.000 N 
ATOM     16  H   UNL     1       1.484   9.017  18.596  0.00  0.00    +0.000 HD
BRANCH  12  17
ATOM     17  O   UNL     1      -0.947  13.211  20.457  0.00  0.00    +0.000 OA
ATOM     18  H   UNL     1      -0.464  13.467  19.654  0.00  0.00    +0.000 HD
ENDBRANCH  12  17
ENDBRANCH   5   7
BRANCH   1  22
ATOM     19  C   UNL     1       6.726   5.237  15.583  0.00  0.00    +0.000 A 
ATOM     20  C   UNL     1       5.619   4.414  15.453  0.00  0.00    +0.000 A 
ATOM     21  C   UNL     1       4.647   4.420  16.455  0.00  0.00    +0.000 A 
ATOM     22  C   UNL     1       4.751   5.255  17.587  0.00  0.00    +0.000 A 
ATOM     23  C   UNL     1       5.898   6.053  17.697  0.00  0.00    +0.000 A 
ATOM     24  C   UNL     1       6.881   6.041  16.704  0.00  0.00    +0.000 A 
BRANCH  19  25
ATOM     25  O   UNL     1       7.691   5.277  14.625  0.00  0.00    +0.000 OA
ATOM     26  H   UNL     1       7.359   4.836  13.826  0.00  0.00    +0.000 HD
ENDBRANCH  19  25
ENDBRANCH   1  22
TORSDOF 4
ENDMDL
MODEL 6
REMARK VINA RESULT:      -7.8      1.249      1.851
REMARK  Name = 
REMARK  4 active torsions:
REMARK  status: ('A' for Active; 'I' for Inactive)
REMARK    1  A    between atoms: O_1  and  C_2
REMARK    2  A    between atoms: C_5  and  C_6
REMARK    3  A    between atoms: C_10  and  C_11
REMARK    4  A    between atoms: C_16  and  O_17
REMARK                            x       y       z     vdW  Elec       q    Type
REMARK                         _______ _______ _______ _____ _____    ______ ____
ROOT
ATOM      1  C   UNL     1       3.264   5.497  18.515  0.00  0.00    +0.000 A 
ATOM      2  C   UNL     1       2.909   4.378  19.270  0.00  0.00    +0.000 A 
ATOM      3  N   UNL     1       2.136   4.410  20.380  0.00  0.00    +0.000 NA
ATOM      4  C   UNL     1       1.703   5.632  20.762  0.00  0.00    +0.000 A 
ATOM      5  C   UNL     1       1.978   6.825  20.100  0.00  0.00    +0.000 A 
ATOM      6  C   UNL     1       2.782   6.734  18.967  0.00  0.00    +0.000 A 
ENDROOT
BRANCH   5   7
ATOM      7  C   UNL     1       1.441   8.096  20.580  0.00  0.00    +0.000 A 
ATOM      8  C   UNL     1       1.126   8.473  21.872  0.00  0.00    +0.000 A 
ATOM      9  C   UNL     1       0.360   9.655  21.813  0.00  0.00    +0.000 A 
ATOM     10  C   UNL     1      -0.421  10.353  22.747  0.00  0.00    +0.000 A 
ATOM     11  C   UNL     1      -1.004  11.563  22.372  0.00  0.00    +0.000 A 
ATOM     12  C   UNL     1      -0.731  12.108  21.120  0.00  0.00    +0.000 A 
ATOM     13  C   UNL     1       0.008  11.419  20.157  0.00  0.00    +0.000 A 
ATOM     14  C   UNL     1       0.483  10.152  20.515  0.00  0.00    +0.000 A 
ATOM     15  N   UNL     1       1.067   9.151  19.769  0.00  0.00    +0.000 N 
ATOM     16  H   UNL     1       1.095   9.156  18.758  0.00  0.00    +0.000 HD
BRANCH  12  17
ATOM     17  O   UNL     1      -1.204  13.346  20.788  0.00  0.00    +0.000 OA
ATOM     18  H   UNL     1      -1.774  13.249  20.007  0.00  0.00    +0.000 HD
ENDBRANCH  12  17
ENDBRANCH   5   7
BRANCH   1  22
ATOM     19  C   UNL     1       5.950   5.296  15.183  0.00  0.00    +0.000 A 
ATOM     20  C   UNL     1       5.518   6.530  15.640  0.00  0.00    +0.000 A 
ATOM     21  C   UNL     1       4.612   6.583  16.700  0.00  0.00    +0.000 A 
ATOM     22  C   UNL     1       4.138   5.415  17.332  0.00  0.00    +0.000 A 
ATOM     23  C   UNL     1       4.576   4.184  16.824  0.00  0.00    +0.000 A 
ATOM     24  C   UNL     1       5.473   4.125  15.754  0.00  0.00    +0.000 A 
BRANCH  19  25
ATOM     25  O   UNL     1       6.846   5.195  14.163  0.00  0.00    +0.000 OA
ATOM     26  H   UNL     1       7.591   4.645  14.454  0.00  0.00    +0.000 HD
ENDBRANCH  19  25
ENDBRANCH   1  22
TORSDOF 4
ENDMDL
MODEL 7
REMARK VINA RESULT:      -7.7      2.816      8.605
REMARK  Name = 
REMARK  4 active torsions:
REMARK  status: ('A' for Active; 'I' for Inactive)
REMARK    1  A    between atoms: O_1  and  C_2
REMARK    2  A    between atoms: C_5  and  C_6
REMARK    3  A    between atoms: C_10  and  C_11
REMARK    4  A    between atoms: C_16  and  O_17
REMARK                            x       y       z     vdW  Elec       q    Type
REMARK                         _______ _______ _______ _____ _____    ______ ____
ROOT
ATOM      1  C   UNL     1       0.814   9.902  19.925  0.00  0.00    +0.000 A 
ATOM      2  C   UNL     1       1.318  10.437  18.737  0.00  0.00    +0.000 A 
ATOM      3  N   UNL     1       2.077   9.757  17.847  0.00  0.00    +0.000 NA
ATOM      4  C   UNL     1       2.357   8.475  18.168  0.00  0.00    +0.000 A 
ATOM      5  C   UNL     1       1.917   7.818  19.313  0.00  0.00    +0.000 A 
ATOM      6  C   UNL     1       1.143   8.567  20.198  0.00  0.00    +0.000 A 
ENDROOT
BRANCH   5   7
ATOM      7  C   UNL     1       2.254   6.419  19.558  0.00  0.00    +0.000 A 
ATOM      8  C   UNL     1       1.591   5.489  20.337  0.00  0.00    +0.000 A 
ATOM      9  C   UNL     1       2.441   4.380  20.521  0.00  0.00    +0.000 A 
ATOM     10  C   UNL     1       2.418   3.271  21.381  0.00  0.00    +0.000 A 
ATOM     11  C   UNL     1       3.402   2.292  21.249  0.00  0.00    +0.000 A 
ATOM     12  C   UNL     1       4.331   2.374  20.216  0.00  0.00    +0.000 A 
ATOM     13  C   UNL     1       4.404   3.483  19.371  0.00  0.00    +0.000 A 
ATOM     14  C   UNL     1       3.480   4.510  19.599  0.00  0.00    +0.000 A 
ATOM     15  N   UNL     1       3.392   5.789  19.091  0.00  0.00    +0.000 N 
ATOM     16  H   UNL     1       4.130   6.225  18.555  0.00  0.00    +0.000 HD
BRANCH  12  17
ATOM     17  O   UNL     1       5.226   1.363  20.009  0.00  0.00    +0.000 OA
ATOM     18  H   UNL     1       4.757   0.520  20.125  0.00  0.00    +0.000 HD
ENDBRANCH  12  17
ENDBRANCH   5   7
BRANCH   1  22
ATOM     19  C   UNL     1      -1.649  12.131  22.631  0.00  0.00    +0.000 A 
ATOM     20  C   UNL     1      -1.462  12.592  21.339  0.00  0.00    +0.000 A 
ATOM     21  C   UNL     1      -0.626  11.881  20.478  0.00  0.00    +0.000 A 
ATOM     22  C   UNL     1       0.020  10.693  20.881  0.00  0.00    +0.000 A 
ATOM     23  C   UNL     1      -0.172  10.272  22.204  0.00  0.00    +0.000 A 
ATOM     24  C   UNL     1      -0.997  10.989  23.075  0.00  0.00    +0.000 A 
BRANCH  19  25
ATOM     25  O   UNL     1      -2.469  12.781  23.501  0.00  0.00    +0.000 OA
ATOM     26  H   UNL     1      -2.279  13.733  23.459  0.00  0.00    +0.000 HD
ENDBRANCH  19  25
ENDBRANCH   1  22
TORSDOF 4
ENDMDL
MODEL 8
REMARK VINA RESULT:      -7.7      2.817      8.601
REMARK  Name = 
REMARK  4 active torsions:
REMARK  status: ('A' for Active; 'I' for Inactive)
REMARK    1  A    between atoms: O_1  and  C_2
REMARK    2  A    between atoms: C_5  and  C_6
REMARK    3  A    between atoms: C_10  and  C_11
REMARK    4  A    between atoms: C_16  and  O_17
REMARK                            x       y       z     vdW  Elec       q    Type
REMARK                         _______ _______ _______ _____ _____    ______ ____
ROOT
ATOM      1  C   UNL     1       0.728   9.883  19.842  0.00  0.00    +0.000 A 
ATOM      2  C   UNL     1       1.280  10.437  18.685  0.00  0.00    +0.000 A 
ATOM      3  N   UNL     1       2.090   9.778  17.826  0.00  0.00    +0.000 NA
ATOM      4  C   UNL     1       2.375   8.497  18.147  0.00  0.00    +0.000 A 
ATOM      5  C   UNL     1       1.889   7.822  19.263  0.00  0.00    +0.000 A 
ATOM      6  C   UNL     1       1.063   8.549  20.117  0.00  0.00    +0.000 A 
ENDROOT
BRANCH   5   7
ATOM      7  C   UNL     1       2.235   6.425  19.510  0.00  0.00    +0.000 A 
ATOM      8  C   UNL     1       1.555   5.480  20.255  0.00  0.00    +0.000 A 
ATOM      9  C   UNL     1       2.412   4.380  20.463  0.00  0.00    +0.000 A 
ATOM     10  C   UNL     1       2.369   3.264  21.313  0.00  0.00    +0.000 A 
ATOM     11  C   UNL     1       3.371   2.299  21.213  0.00  0.00    +0.000 A 
ATOM     12  C   UNL     1       4.339   2.401  20.217  0.00  0.00    +0.000 A 
ATOM     13  C   UNL     1       4.430   3.519  19.384  0.00  0.00    +0.000 A 
ATOM     14  C   UNL     1       3.484   4.531  19.584  0.00  0.00    +0.000 A 
ATOM     15  N   UNL     1       3.399   5.813  19.083  0.00  0.00    +0.000 N 
ATOM     16  H   UNL     1       4.151   6.264  18.580  0.00  0.00    +0.000 HD
BRANCH  12  17
ATOM     17  O   UNL     1       5.255   1.404  20.038  0.00  0.00    +0.000 OA
ATOM     18  H   UNL     1       5.397   1.296  19.083  0.00  0.00    +0.000 HD
ENDBRANCH  12  17
ENDBRANCH   5   7
BRANCH   1  22
ATOM     19  C   UNL     1      -1.594  12.191  22.606  0.00  0.00    +0.000 A 
ATOM     20  C   UNL     1      -1.024  10.998  23.020  0.00  0.00    +0.000 A 
ATOM     21  C   UNL     1      -0.304  10.234  22.101  0.00  0.00    +0.000 A 
ATOM     22  C   UNL     1      -0.123  10.652  20.767  0.00  0.00    +0.000 A 
ATOM     23  C   UNL     1      -0.737  11.850  20.377  0.00  0.00    +0.000 A 
ATOM     24  C   UNL     1      -1.472  12.613  21.289  0.00  0.00    +0.000 A 
BRANCH  19  25
ATOM     25  O   UNL     1      -2.291  12.977  23.470  0.00  0.00    +0.000 OA
ATOM     26  H   UNL     1      -2.366  12.518  24.323  0.00  0.00    +0.000 HD
ENDBRANCH  19  25
ENDBRANCH   1  22
TORSDOF 4
ENDMDL
MODEL 9
REMARK VINA RESULT:      -7.6      1.470      2.092
REMARK  Name = 
REMARK  4 active torsions:
REMARK  status: ('A' for Active; 'I' for Inactive)
REMARK    1  A    between atoms: O_1  and  C_2
REMARK    2  A    between atoms: C_5  and  C_6
REMARK    3  A    between atoms: C_10  and  C_11
REMARK    4  A    between atoms: C_16  and  O_17
REMARK                            x       y       z     vdW  Elec       q    Type
REMARK                         _______ _______ _______ _____ _____    ______ ____
ROOT
ATOM      1  C   UNL     1       5.241   4.739  17.044  0.00  0.00    +0.000 A 
ATOM      2  C   UNL     1       5.608   3.948  18.134  0.00  0.00    +0.000 A 
ATOM      3  N   UNL     1       5.128   4.095  19.390  0.00  0.00    +0.000 NA
ATOM      4  C   UNL     1       4.240   5.098  19.568  0.00  0.00    +0.000 A 
ATOM      5  C   UNL     1       3.784   5.955  18.571  0.00  0.00    +0.000 A 
ATOM      6  C   UNL     1       4.315   5.762  17.297  0.00  0.00    +0.000 A 
ENDROOT
BRANCH   5   7
ATOM      7  C   UNL     1       2.801   6.995  18.860  0.00  0.00    +0.000 A 
ATOM      8  C   UNL     1       2.257   7.938  18.007  0.00  0.00    +0.000 A 
ATOM      9  C   UNL     1       1.600   8.912  18.786  0.00  0.00    +0.000 A 
ATOM     10  C   UNL     1       1.086  10.189  18.513  0.00  0.00    +0.000 A 
ATOM     11  C   UNL     1       0.412  10.877  19.521  0.00  0.00    +0.000 A 
ATOM     12  C   UNL     1       0.175  10.260  20.746  0.00  0.00    +0.000 A 
ATOM     13  C   UNL     1       0.707   9.008  21.060  0.00  0.00    +0.000 A 
ATOM     14  C   UNL     1       1.482   8.387  20.073  0.00  0.00    +0.000 A 
ATOM     15  N   UNL     1       2.289   7.270  20.114  0.00  0.00    +0.000 N 
ATOM     16  H   UNL     1       2.553   6.807  20.973  0.00  0.00    +0.000 HD
BRANCH  12  17
ATOM     17  O   UNL     1      -0.583  10.881  21.698  0.00  0.00    +0.000 OA
ATOM     18  H   UNL     1      -1.465  10.473  21.692  0.00  0.00    +0.000 HD
ENDBRANCH  12  17
ENDBRANCH   5   7
BRANCH   1  22
ATOM     19  C   UNL     1       6.801   4.349  13.072  0.00  0.00    +0.000 A 
ATOM     20  C   UNL     1       5.629   3.695  13.414  0.00  0.00    +0.000 A 
ATOM     21  C   UNL     1       5.150   3.796  14.721  0.00  0.00    +0.000 A 
ATOM     22  C   UNL     1       5.818   4.561  15.700  0.00  0.00    +0.000 A 
ATOM     23  C   UNL     1       7.015   5.186  15.325  0.00  0.00    +0.000 A 
ATOM     24  C   UNL     1       7.506   5.077  14.021  0.00  0.00    +0.000 A 
BRANCH  19  25
ATOM     25  O   UNL     1       7.297   4.294  11.806  0.00  0.00    +0.000 OA
ATOM     26  H   UNL     1       7.389   5.199  11.466  0.00  0.00    +0.000 HD
ENDBRANCH  19  25
ENDBRANCH   1  22
TORSDOF 4
ENDMDL
