MODEL 1
REMARK VINA RESULT:      -8.0      0.000      0.000
REMARK  Name = 
REMARK  9 active torsions:
REMARK  status: ('A' for Active; 'I' for Inactive)
REMARK    1  A    between atoms: C_1  and  C_2
REMARK    2  A    between atoms: C_4  and  S_5
REMARK    3  A    between atoms: S_5  and  C_6
REMARK    4  A    between atoms: C_6  and  C_7
REMARK    5  A    between atoms: C_6  and  C_8
REMARK    6  A    between atoms: N_10  and  C_11
REMARK    7  A    between atoms: C_16  and  C_17
REMARK    8  A    between atoms: C_19  and  C_20
REMARK    9  A    between atoms: C_21  and  C_22
REMARK                            x       y       z     vdW  Elec       q    Type
REMARK                         _______ _______ _______ _____ _____    ______ ____
ROOT
ATOM      1  S   UNL     1       4.755   6.649  16.971  0.00  0.00    +0.000 S 
ENDROOT
BRANCH   1   5
ATOM      2  C   UNL     1       3.552   1.795  17.806  0.00  0.00    +0.000 C 
ATOM      3  C   UNL     1       3.274   3.208  18.239  0.00  0.00    +0.000 A 
ATOM      4  N   UNL     1       3.971   4.163  17.574  0.00  0.00    +0.000 NA
ATOM      5  C   UNL     1       3.736   5.469  17.864  0.00  0.00    +0.000 A 
ATOM      6  C   UNL     1       2.782   5.860  18.805  0.00  0.00    +0.000 A 
ATOM      7  C   UNL     1       2.143   4.865  19.580  0.00  0.00    +0.000 A 
ATOM      8  C   UNL     1       1.220   5.228  20.721  0.00  0.00    +0.000 C 
ATOM      9  C   UNL     1       2.382   3.501  19.280  0.00  0.00    +0.000 A 
ATOM     10  C   UNL     1       1.714   2.373  20.022  0.00  0.00    +0.000 C 
BRANCH   6  11
ATOM     11  C   UNL     1       2.402   7.241  18.947  0.00  0.00    +0.000 C 
ATOM     12  N   UNL     1       2.112   8.363  19.019  0.00  0.00    +0.000 NA
ENDBRANCH   6  11
ENDBRANCH   1   5
BRANCH   1  13
ATOM     13  C   UNL     1       6.462   6.217  17.536  0.00  0.00    +0.000 C 
ATOM     14  C   UNL     1       6.390   5.594  18.928  0.00  0.00    +0.000 C 
BRANCH  13  15
ATOM     15  C   UNL     1       7.111   5.233  16.546  0.00  0.00    +0.000 C 
ATOM     16  O   UNL     1       7.933   4.381  16.865  0.00  0.00    +0.000 OA
ATOM     17  N   UNL     1       6.657   5.391  15.251  0.00  0.00    +0.000 N 
ATOM     18  H   UNL     1       5.776   5.894  15.183  0.00  0.00    +0.000 HD
BRANCH  17  19
ATOM     19  C   UNL     1       6.958   4.454  14.187  0.00  0.00    +0.000 C 
ATOM     20  C   UNL     1       5.680   3.841  13.621  0.00  0.00    +0.000 C 
ATOM     21  C   UNL     1       6.068   3.303  12.259  0.00  0.00    +0.000 C 
ATOM     22  C   UNL     1       7.242   4.161  11.796  0.00  0.00    +0.000 C 
ATOM     23  C   UNL     1       7.580   5.102  12.953  0.00  0.00    +0.000 C 
ENDBRANCH  17  19
ENDBRANCH  13  15
ENDBRANCH   1  13
TORSDOF 5
ENDMDL
MODEL 2
REMARK VINA RESULT:      -7.5      1.401      1.550
REMARK  Name = 
REMARK  9 active torsions:
REMARK  status: ('A' for Active; 'I' for Inactive)
REMARK    1  A    between atoms: C_1  and  C_2
REMARK    2  A    between atoms: C_4  and  S_5
REMARK    3  A    between atoms: S_5  and  C_6
REMARK    4  A    between atoms: C_6  and  C_7
REMARK    5  A    between atoms: C_6  and  C_8
REMARK    6  A    between atoms: N_10  and  C_11
REMARK    7  A    between atoms: C_16  and  C_17
REMARK    8  A    between atoms: C_19  and  C_20
REMARK    9  A    between atoms: C_21  and  C_22
REMARK                            x       y       z     vdW  Elec       q    Type
REMARK                         _______ _______ _______ _____ _____    ______ ____
ROOT
ATOM      1  S   UNL     1       6.412   5.721  19.235  0.00  0.00    +0.000 S 
ENDROOT
BRANCH   1   5
ATOM      2  C   UNL     1       4.321   1.103  19.273  0.00  0.00    +0.000 C 
ATOM      3  C   UNL     1       4.055   2.556  18.988  0.00  0.00    +0.000 A 
ATOM      4  N   UNL     1       5.112   3.384  19.179  0.00  0.00    +0.000 NA
ATOM      5  C   UNL     1       4.973   4.703  18.889  0.00  0.00    +0.000 A 
ATOM      6  C   UNL     1       3.786   5.229  18.375  0.00  0.00    +0.000 A 
ATOM      7  C   UNL     1       2.651   4.389  18.289  0.00  0.00    +0.000 A 
ATOM      8  C   UNL     1       1.298   4.934  17.893  0.00  0.00    +0.000 C 
ATOM      9  C   UNL     1       2.791   3.012  18.588  0.00  0.00    +0.000 A 
ATOM     10  C   UNL     1       1.650   2.034  18.483  0.00  0.00    +0.000 C 
BRANCH   6  11
ATOM     11  C   UNL     1       3.725   6.579  17.880  0.00  0.00    +0.000 C 
ATOM     12  N   UNL     1       3.628   7.663  17.476  0.00  0.00    +0.000 NA
ENDBRANCH   6  11
ENDBRANCH   1   5
BRANCH   1  13
ATOM     13  C   UNL     1       6.796   6.452  17.580  0.00  0.00    +0.000 C 
ATOM     14  C   UNL     1       7.851   7.544  17.743  0.00  0.00    +0.000 C 
BRANCH  13  15
ATOM     15  C   UNL     1       7.306   5.358  16.626  0.00  0.00    +0.000 C 
ATOM     16  O   UNL     1       7.931   4.368  16.988  0.00  0.00    +0.000 OA
ATOM     17  N   UNL     1       6.969   5.591  15.306  0.00  0.00    +0.000 N 
ATOM     18  H   UNL     1       6.203   6.251  15.188  0.00  0.00    +0.000 HD
BRANCH  17  19
ATOM     19  C   UNL     1       7.150   4.608  14.257  0.00  0.00    +0.000 C 
ATOM     20  C   UNL     1       5.815   3.993  13.847  0.00  0.00    +0.000 C 
ATOM     21  C   UNL     1       6.059   3.394  12.477  0.00  0.00    +0.000 C 
ATOM     22  C   UNL     1       7.190   4.215  11.864  0.00  0.00    +0.000 C 
ATOM     23  C   UNL     1       7.653   5.196  12.942  0.00  0.00    +0.000 C 
ENDBRANCH  17  19
ENDBRANCH  13  15
ENDBRANCH   1  13
TORSDOF 5
ENDMDL
MODEL 3
REMARK VINA RESULT:      -7.1      1.823      3.218
REMARK  Name = 
REMARK  9 active torsions:
REMARK  status: ('A' for Active; 'I' for Inactive)
REMARK    1  A    between atoms: C_1  and  C_2
REMARK    2  A    between atoms: C_4  and  S_5
REMARK    3  A    between atoms: S_5  and  C_6
REMARK    4  A    between atoms: C_6  and  C_7
REMARK    5  A    between atoms: C_6  and  C_8
REMARK    6  A    between atoms: N_10  and  C_11
REMARK    7  A    between atoms: C_16  and  C_17
REMARK    8  A    between atoms: C_19  and  C_20
REMARK    9  A    between atoms: C_21  and  C_22
REMARK                            x       y       z     vdW  Elec       q    Type
REMARK                         _______ _______ _______ _____ _____    ______ ____
ROOT
ATOM      1  S   UNL     1       4.934   3.828  16.816  0.00  0.00    +0.000 S 
ENDROOT
BRANCH   1   5
ATOM      2  C   UNL     1       2.593   8.174  17.973  0.00  0.00    +0.000 C 
ATOM      3  C   UNL     1       2.891   6.784  18.467  0.00  0.00    +0.000 A 
ATOM      4  N   UNL     1       3.637   6.022  17.629  0.00  0.00    +0.000 NA
ATOM      5  C   UNL     1       4.000   4.775  18.024  0.00  0.00    +0.000 A 
ATOM      6  C   UNL     1       3.653   4.262  19.275  0.00  0.00    +0.000 A 
ATOM      7  C   UNL     1       2.778   5.010  20.098  0.00  0.00    +0.000 A 
ATOM      8  C   UNL     1       2.238   4.443  21.391  0.00  0.00    +0.000 C 
ATOM      9  C   UNL     1       2.398   6.312  19.691  0.00  0.00    +0.000 A 
ATOM     10  C   UNL     1       1.506   7.198  20.521  0.00  0.00    +0.000 C 
BRANCH   6  11
ATOM     11  C   UNL     1       4.219   3.030  19.756  0.00  0.00    +0.000 C 
ATOM     12  N   UNL     1       4.717   2.056  20.145  0.00  0.00    +0.000 NA
ENDBRANCH   6  11
ENDBRANCH   1   5
BRANCH   1  13
ATOM     13  C   UNL     1       6.329   4.969  16.400  0.00  0.00    +0.000 C 
ATOM     14  C   UNL     1       7.570   4.556  17.187  0.00  0.00    +0.000 C 
BRANCH  13  15
ATOM     15  C   UNL     1       6.616   4.921  14.889  0.00  0.00    +0.000 C 
ATOM     16  O   UNL     1       7.623   5.385  14.367  0.00  0.00    +0.000 OA
ATOM     17  N   UNL     1       5.626   4.277  14.171  0.00  0.00    +0.000 N 
ATOM     18  H   UNL     1       5.030   3.679  14.738  0.00  0.00    +0.000 HD
BRANCH  17  19
ATOM     19  C   UNL     1       5.768   3.920  12.773  0.00  0.00    +0.000 C 
ATOM     20  C   UNL     1       6.607   2.656  12.614  0.00  0.00    +0.000 C 
ATOM     21  C   UNL     1       6.272   2.130  11.232  0.00  0.00    +0.000 C 
ATOM     22  C   UNL     1       4.860   2.625  10.935  0.00  0.00    +0.000 C 
ATOM     23  C   UNL     1       4.455   3.524  12.103  0.00  0.00    +0.000 C 
ENDBRANCH  17  19
ENDBRANCH  13  15
ENDBRANCH   1  13
TORSDOF 5
ENDMDL
MODEL 4
REMARK VINA RESULT:      -7.1      1.675      2.902
REMARK  Name = 
REMARK  9 active torsions:
REMARK  status: ('A' for Active; 'I' for Inactive)
REMARK    1  A    between atoms: C_1  and  C_2
REMARK    2  A    between atoms: C_4  and  S_5
REMARK    3  A    between atoms: S_5  and  C_6
REMARK    4  A    between atoms: C_6  and  C_7
REMARK    5  A    between atoms: C_6  and  C_8
REMARK    6  A    between atoms: N_10  and  C_11
REMARK    7  A    between atoms: C_16  and  C_17
REMARK    8  A    between atoms: C_19  and  C_20
REMARK    9  A    between atoms: C_21  and  C_22
REMARK                            x       y       z     vdW  Elec       q    Type
REMARK                         _______ _______ _______ _____ _____    ______ ____
ROOT
ATOM      1  S   UNL     1       6.340   5.249  19.489  0.00  0.00    +0.000 S 
ENDROOT
BRANCH   1   5
ATOM      2  C   UNL     1       2.042   7.081  17.520  0.00  0.00    +0.000 C 
ATOM      3  C   UNL     1       2.711   5.835  18.032  0.00  0.00    +0.000 A 
ATOM      4  N   UNL     1       3.985   6.000  18.468  0.00  0.00    +0.000 NA
ATOM      5  C   UNL     1       4.640   4.937  18.999  0.00  0.00    +0.000 A 
ATOM      6  C   UNL     1       4.037   3.686  19.137  0.00  0.00    +0.000 A 
ATOM      7  C   UNL     1       2.753   3.484  18.576  0.00  0.00    +0.000 A 
ATOM      8  C   UNL     1       2.112   2.115  18.550  0.00  0.00    +0.000 C 
ATOM      9  C   UNL     1       2.064   4.590  18.022  0.00  0.00    +0.000 A 
ATOM     10  C   UNL     1       0.678   4.481  17.442  0.00  0.00    +0.000 C 
BRANCH   6  11
ATOM     11  C   UNL     1       4.669   2.634  19.888  0.00  0.00    +0.000 C 
ATOM     12  N   UNL     1       5.165   1.754  20.462  0.00  0.00    +0.000 NA
ENDBRANCH   6  11
ENDBRANCH   1   5
BRANCH   1  13
ATOM     13  C   UNL     1       7.019   6.159  18.029  0.00  0.00    +0.000 C 
ATOM     14  C   UNL     1       8.181   7.041  18.480  0.00  0.00    +0.000 C 
BRANCH  13  15
ATOM     15  C   UNL     1       7.495   5.159  16.960  0.00  0.00    +0.000 C 
ATOM     16  O   UNL     1       8.159   4.157  17.203  0.00  0.00    +0.000 OA
ATOM     17  N   UNL     1       7.079   5.492  15.685  0.00  0.00    +0.000 N 
ATOM     18  H   UNL     1       6.296   6.141  15.665  0.00  0.00    +0.000 HD
BRANCH  17  19
ATOM     19  C   UNL     1       7.219   4.603  14.549  0.00  0.00    +0.000 C 
ATOM     20  C   UNL     1       5.865   4.045  14.121  0.00  0.00    +0.000 C 
ATOM     21  C   UNL     1       6.066   3.567  12.697  0.00  0.00    +0.000 C 
ATOM     22  C   UNL     1       7.195   4.424  12.131  0.00  0.00    +0.000 C 
ATOM     23  C   UNL     1       7.699   5.299  13.278  0.00  0.00    +0.000 C 
ENDBRANCH  17  19
ENDBRANCH  13  15
ENDBRANCH   1  13
TORSDOF 5
ENDMDL
MODEL 5
REMARK VINA RESULT:      -7.0      0.986      2.598
REMARK  Name = 
REMARK  9 active torsions:
REMARK  status: ('A' for Active; 'I' for Inactive)
REMARK    1  A    between atoms: C_1  and  C_2
REMARK    2  A    between atoms: C_4  and  S_5
REMARK    3  A    between atoms: S_5  and  C_6
REMARK    4  A    between atoms: C_6  and  C_7
REMARK    5  A    between atoms: C_6  and  C_8
REMARK    6  A    between atoms: N_10  and  C_11
REMARK    7  A    between atoms: C_16  and  C_17
REMARK    8  A    between atoms: C_19  and  C_20
REMARK    9  A    between atoms: C_21  and  C_22
REMARK                            x       y       z     vdW  Elec       q    Type
REMARK                         _______ _______ _______ _____ _____    ______ ____
ROOT
ATOM      1  S   UNL     1       4.768   6.720  16.844  0.00  0.00    +0.000 S 
ENDROOT
BRANCH   1   5
ATOM      2  C   UNL     1       1.677   6.910  20.858  0.00  0.00    +0.000 C 
ATOM      3  C   UNL     1       2.221   6.009  19.784  0.00  0.00    +0.000 A 
ATOM      4  N   UNL     1       3.094   6.594  18.926  0.00  0.00    +0.000 NA
ATOM      5  C   UNL     1       3.676   5.835  17.963  0.00  0.00    +0.000 A 
ATOM      6  C   UNL     1       3.425   4.467  17.842  0.00  0.00    +0.000 A 
ATOM      7  C   UNL     1       2.428   3.884  18.659  0.00  0.00    +0.000 A 
ATOM      8  C   UNL     1       1.997   2.447  18.470  0.00  0.00    +0.000 C 
ATOM      9  C   UNL     1       1.819   4.671  19.667  0.00  0.00    +0.000 A 
ATOM     10  C   UNL     1       0.780   4.125  20.612  0.00  0.00    +0.000 C 
BRANCH   6  11
ATOM     11  C   UNL     1       4.204   3.644  16.956  0.00  0.00    +0.000 C 
ATOM     12  N   UNL     1       4.843   2.952  16.276  0.00  0.00    +0.000 NA
ENDBRANCH   6  11
ENDBRANCH   1   5
BRANCH   1  13
ATOM     13  C   UNL     1       6.445   6.286  17.490  0.00  0.00    +0.000 C 
ATOM     14  C   UNL     1       6.303   5.626  18.860  0.00  0.00    +0.000 C 
BRANCH  13  15
ATOM     15  C   UNL     1       7.157   5.333  16.513  0.00  0.00    +0.000 C 
ATOM     16  O   UNL     1       7.972   4.484  16.853  0.00  0.00    +0.000 OA
ATOM     17  N   UNL     1       6.766   5.516  15.200  0.00  0.00    +0.000 N 
ATOM     18  H   UNL     1       5.883   6.009  15.099  0.00  0.00    +0.000 HD
BRANCH  17  19
ATOM     19  C   UNL     1       7.132   4.607  14.132  0.00  0.00    +0.000 C 
ATOM     20  C   UNL     1       5.899   3.916  13.556  0.00  0.00    +0.000 C 
ATOM     21  C   UNL     1       6.329   3.413  12.192  0.00  0.00    +0.000 C 
ATOM     22  C   UNL     1       7.446   4.349  11.741  0.00  0.00    +0.000 C 
ATOM     23  C   UNL     1       7.716   5.302  12.905  0.00  0.00    +0.000 C 
ENDBRANCH  17  19
ENDBRANCH  13  15
ENDBRANCH   1  13
TORSDOF 5
ENDMDL
MODEL 6
REMARK VINA RESULT:      -6.8      1.102      1.185
REMARK  Name = 
REMARK  9 active torsions:
REMARK  status: ('A' for Active; 'I' for Inactive)
REMARK    1  A    between atoms: C_1  and  C_2
REMARK    2  A    between atoms: C_4  and  S_5
REMARK    3  A    between atoms: S_5  and  C_6
REMARK    4  A    between atoms: C_6  and  C_7
REMARK    5  A    between atoms: C_6  and  C_8
REMARK    6  A    between atoms: N_10  and  C_11
REMARK    7  A    between atoms: C_16  and  C_17
REMARK    8  A    between atoms: C_19  and  C_20
REMARK    9  A    between atoms: C_21  and  C_22
REMARK                            x       y       z     vdW  Elec       q    Type
REMARK                         _______ _______ _______ _____ _____    ______ ____
ROOT
ATOM      1  S   UNL     1       5.925   5.641  19.145  0.00  0.00    +0.000 S 
ENDROOT
BRANCH   1   5
ATOM      2  C   UNL     1       4.049   1.007  18.301  0.00  0.00    +0.000 C 
ATOM      3  C   UNL     1       3.695   2.399  18.746  0.00  0.00    +0.000 A 
ATOM      4  N   UNL     1       4.727   3.280  18.762  0.00  0.00    +0.000 NA
ATOM      5  C   UNL     1       4.481   4.573  19.096  0.00  0.00    +0.000 A 
ATOM      6  C   UNL     1       3.198   5.031  19.398  0.00  0.00    +0.000 A 
ATOM      7  C   UNL     1       2.145   4.090  19.497  0.00  0.00    +0.000 A 
ATOM      8  C   UNL     1       0.769   4.496  19.973  0.00  0.00    +0.000 C 
ATOM      9  C   UNL     1       2.395   2.741  19.147  0.00  0.00    +0.000 A 
ATOM     10  C   UNL     1       1.328   1.678  19.179  0.00  0.00    +0.000 C 
BRANCH   6  11
ATOM     11  C   UNL     1       2.925   6.436  19.544  0.00  0.00    +0.000 C 
ATOM     12  N   UNL     1       2.659   7.560  19.661  0.00  0.00    +0.000 NA
ENDBRANCH   6  11
ENDBRANCH   1   5
BRANCH   1  13
ATOM     13  C   UNL     1       5.973   6.333  17.431  0.00  0.00    +0.000 C 
ATOM     14  C   UNL     1       6.702   7.674  17.449  0.00  0.00    +0.000 C 
BRANCH  13  15
ATOM     15  C   UNL     1       6.689   5.351  16.487  0.00  0.00    +0.000 C 
ATOM     16  O   UNL     1       7.645   4.657  16.814  0.00  0.00    +0.000 OA
ATOM     17  N   UNL     1       6.130   5.311  15.223  0.00  0.00    +0.000 N 
ATOM     18  H   UNL     1       5.182   5.678  15.182  0.00  0.00    +0.000 HD
BRANCH  17  19
ATOM     19  C   UNL     1       6.490   4.319  14.230  0.00  0.00    +0.000 C 
ATOM     20  C   UNL     1       5.265   3.867  13.440  0.00  0.00    +0.000 C 
ATOM     21  C   UNL     1       5.818   3.253  12.169  0.00  0.00    +0.000 C 
ATOM     22  C   UNL     1       7.159   3.940  11.930  0.00  0.00    +0.000 C 
ATOM     23  C   UNL     1       7.405   4.853  13.131  0.00  0.00    +0.000 C 
ENDBRANCH  17  19
ENDBRANCH  13  15
ENDBRANCH   1  13
TORSDOF 5
ENDMDL
MODEL 7
REMARK VINA RESULT:      -6.7      1.571      3.000
REMARK  Name = 
REMARK  9 active torsions:
REMARK  status: ('A' for Active; 'I' for Inactive)
REMARK    1  A    between atoms: C_1  and  C_2
REMARK    2  A    between atoms: C_4  and  S_5
REMARK    3  A    between atoms: S_5  and  C_6
REMARK    4  A    between atoms: C_6  and  C_7
REMARK    5  A    between atoms: C_6  and  C_8
REMARK    6  A    between atoms: N_10  and  C_11
REMARK    7  A    between atoms: C_16  and  C_17
REMARK    8  A    between atoms: C_19  and  C_20
REMARK    9  A    between atoms: C_21  and  C_22
REMARK                            x       y       z     vdW  Elec       q    Type
REMARK                         _______ _______ _______ _____ _____    ______ ____
ROOT
ATOM      1  S   UNL     1       6.290   4.720  18.885  0.00  0.00    +0.000 S 
ENDROOT
BRANCH   1   5
ATOM      2  C   UNL     1       2.099   7.431  19.777  0.00  0.00    +0.000 C 
ATOM      3  C   UNL     1       2.666   6.037  19.762  0.00  0.00    +0.000 A 
ATOM      4  N   UNL     1       3.973   5.950  19.409  0.00  0.00    +0.000 NA
ATOM      5  C   UNL     1       4.577   4.734  19.427  0.00  0.00    +0.000 A 
ATOM      6  C   UNL     1       3.904   3.576  19.821  0.00  0.00    +0.000 A 
ATOM      7  C   UNL     1       2.514   3.649  20.073  0.00  0.00    +0.000 A 
ATOM      8  C   UNL     1       1.698   2.407  20.348  0.00  0.00    +0.000 C 
ATOM      9  C   UNL     1       1.879   4.915  20.059  0.00  0.00    +0.000 A 
ATOM     10  C   UNL     1       0.414   5.097  20.358  0.00  0.00    +0.000 C 
BRANCH   6  11
ATOM     11  C   UNL     1       4.612   2.341  20.032  0.00  0.00    +0.000 C 
ATOM     12  N   UNL     1       5.201   1.363  20.241  0.00  0.00    +0.000 NA
ENDBRANCH   6  11
ENDBRANCH   1   5
BRANCH   1  13
ATOM     13  C   UNL     1       6.229   5.720  17.330  0.00  0.00    +0.000 C 
ATOM     14  C   UNL     1       7.002   7.020  17.536  0.00  0.00    +0.000 C 
BRANCH  13  15
ATOM     15  C   UNL     1       6.837   4.919  16.165  0.00  0.00    +0.000 C 
ATOM     16  O   UNL     1       7.974   4.463  16.165  0.00  0.00    +0.000 OA
ATOM     17  N   UNL     1       5.957   4.743  15.113  0.00  0.00    +0.000 N 
ATOM     18  H   UNL     1       4.982   4.885  15.365  0.00  0.00    +0.000 HD
BRANCH  17  19
ATOM     19  C   UNL     1       6.221   3.852  14.002  0.00  0.00    +0.000 C 
ATOM     20  C   UNL     1       4.965   3.640  13.161  0.00  0.00    +0.000 C 
ATOM     21  C   UNL     1       5.465   3.133  11.823  0.00  0.00    +0.000 C 
ATOM     22  C   UNL     1       6.876   3.694  11.672  0.00  0.00    +0.000 C 
ATOM     23  C   UNL     1       7.203   4.417  12.979  0.00  0.00    +0.000 C 
ENDBRANCH  17  19
ENDBRANCH  13  15
ENDBRANCH   1  13
TORSDOF 5
ENDMDL
MODEL 8
REMARK VINA RESULT:      -6.6      1.737      3.194
REMARK  Name = 
REMARK  9 active torsions:
REMARK  status: ('A' for Active; 'I' for Inactive)
REMARK    1  A    between atoms: C_1  and  C_2
REMARK    2  A    between atoms: C_4  and  S_5
REMARK    3  A    between atoms: S_5  and  C_6
REMARK    4  A    between atoms: C_6  and  C_7
REMARK    5  A    between atoms: C_6  and  C_8
REMARK    6  A    between atoms: N_10  and  C_11
REMARK    7  A    between atoms: C_16  and  C_17
REMARK    8  A    between atoms: C_19  and  C_20
REMARK    9  A    between atoms: C_21  and  C_22
REMARK                            x       y       z     vdW  Elec       q    Type
REMARK                         _______ _______ _______ _____ _____    ______ ____
ROOT
ATOM      1  S   UNL     1       6.106   4.645  18.447  0.00  0.00    +0.000 S 
ENDROOT
BRANCH   1   5
ATOM      2  C   UNL     1       2.095   7.519  19.613  0.00  0.00    +0.000 C 
ATOM      3  C   UNL     1       2.638   6.117  19.649  0.00  0.00    +0.000 A 
ATOM      4  N   UNL     1       3.889   5.969  19.146  0.00  0.00    +0.000 NA
ATOM      5  C   UNL     1       4.475   4.745  19.194  0.00  0.00    +0.000 A 
ATOM      6  C   UNL     1       3.843   3.641  19.768  0.00  0.00    +0.000 A 
ATOM      7  C   UNL     1       2.496   3.768  20.184  0.00  0.00    +0.000 A 
ATOM      8  C   UNL     1       1.705   2.573  20.665  0.00  0.00    +0.000 C 
ATOM      9  C   UNL     1       1.881   5.043  20.138  0.00  0.00    +0.000 A 
ATOM     10  C   UNL     1       0.467   5.283  20.600  0.00  0.00    +0.000 C 
BRANCH   6  11
ATOM     11  C   UNL     1       4.555   2.412  19.997  0.00  0.00    +0.000 C 
ATOM     12  N   UNL     1       5.093   1.397  20.167  0.00  0.00    +0.000 NA
ENDBRANCH   6  11
ENDBRANCH   1   5
BRANCH   1  13
ATOM     13  C   UNL     1       6.273   6.292  17.623  0.00  0.00    +0.000 C 
ATOM     14  C   UNL     1       7.732   6.738  17.679  0.00  0.00    +0.000 C 
BRANCH  13  15
ATOM     15  C   UNL     1       5.801   6.200  16.161  0.00  0.00    +0.000 C 
ATOM     16  O   UNL     1       5.041   7.004  15.633  0.00  0.00    +0.000 OA
ATOM     17  N   UNL     1       6.341   5.122  15.485  0.00  0.00    +0.000 N 
ATOM     18  H   UNL     1       7.173   4.737  15.925  0.00  0.00    +0.000 HD
BRANCH  17  19
ATOM     19  C   UNL     1       6.216   4.943  14.053  0.00  0.00    +0.000 C 
ATOM     20  C   UNL     1       7.564   5.123  13.360  0.00  0.00    +0.000 C 
ATOM     21  C   UNL     1       7.411   4.446  12.013  0.00  0.00    +0.000 C 
ATOM     22  C   UNL     1       6.348   3.369  12.212  0.00  0.00    +0.000 C 
ATOM     23  C   UNL     1       5.828   3.525  13.641  0.00  0.00    +0.000 C 
ENDBRANCH  17  19
ENDBRANCH  13  15
ENDBRANCH   1  13
TORSDOF 5
ENDMDL
MODEL 9
REMARK VINA RESULT:      -6.5      1.543      1.739
REMARK  Name = 
REMARK  9 active torsions:
REMARK  status: ('A' for Active; 'I' for Inactive)
REMARK    1  A    between atoms: C_1  and  C_2
REMARK    2  A    between atoms: C_4  and  S_5
REMARK    3  A    between atoms: S_5  and  C_6
REMARK    4  A    between atoms: C_6  and  C_7
REMARK    5  A    between atoms: C_6  and  C_8
REMARK    6  A    between atoms: N_10  and  C_11
REMARK    7  A    between atoms: C_16  and  C_17
REMARK    8  A    between atoms: C_19  and  C_20
REMARK    9  A    between atoms: C_21  and  C_22
REMARK                            x       y       z     vdW  Elec       q    Type
REMARK                         _______ _______ _______ _____ _____    ______ ____
ROOT
ATOM      1  S   UNL     1       5.863   5.877  17.919  0.00  0.00    +0.000 S 
ENDROOT
BRANCH   1   5
ATOM      2  C   UNL     1       4.671   1.623  20.407  0.00  0.00    +0.000 C 
ATOM      3  C   UNL     1       4.200   3.014  20.081  0.00  0.00    +0.000 A 
ATOM      4  N   UNL     1       5.036   3.737  19.295  0.00  0.00    +0.000 NA
ATOM      5  C   UNL     1       4.658   4.982  18.907  0.00  0.00    +0.000 A 
ATOM      6  C   UNL     1       3.427   5.531  19.268  0.00  0.00    +0.000 A 
ATOM      7  C   UNL     1       2.609   4.826  20.183  0.00  0.00    +0.000 A 
ATOM      8  C   UNL     1       1.341   5.435  20.736  0.00  0.00    +0.000 C 
ATOM      9  C   UNL     1       2.997   3.526  20.589  0.00  0.00    +0.000 A 
ATOM     10  C   UNL     1       2.171   2.682  21.524  0.00  0.00    +0.000 C 
BRANCH   6  11
ATOM     11  C   UNL     1       2.958   6.757  18.679  0.00  0.00    +0.000 C 
ATOM     12  N   UNL     1       2.537   7.729  18.203  0.00  0.00    +0.000 NA
ENDBRANCH   6  11
ENDBRANCH   1   5
BRANCH   1  13
ATOM     13  C   UNL     1       5.206   5.675  16.202  0.00  0.00    +0.000 C 
ATOM     14  C   UNL     1       5.039   7.050  15.561  0.00  0.00    +0.000 C 
BRANCH  13  15
ATOM     15  C   UNL     1       6.170   4.813  15.367  0.00  0.00    +0.000 C 
ATOM     16  O   UNL     1       7.285   4.470  15.742  0.00  0.00    +0.000 OA
ATOM     17  N   UNL     1       5.641   4.438  14.146  0.00  0.00    +0.000 N 
ATOM     18  H   UNL     1       4.628   4.513  14.097  0.00  0.00    +0.000 HD
BRANCH  17  19
ATOM     19  C   UNL     1       6.266   3.459  13.280  0.00  0.00    +0.000 C 
ATOM     20  C   UNL     1       5.227   2.759  12.408  0.00  0.00    +0.000 C 
ATOM     21  C   UNL     1       6.013   2.166  11.256  0.00  0.00    +0.000 C 
ATOM     22  C   UNL     1       7.247   3.050  11.100  0.00  0.00    +0.000 C 
ATOM     23  C   UNL     1       7.204   4.067  12.241  0.00  0.00    +0.000 C 
ENDBRANCH  17  19
ENDBRANCH  13  15
ENDBRANCH   1  13
TORSDOF 5
ENDMDL
