MODEL 1
REMARK VINA RESULT:      -7.0      0.000      0.000
REMARK  Name = 
REMARK  11 active torsions:
REMARK  status: ('A' for Active; 'I' for Inactive)
REMARK    1  A    between atoms: C_1  and  C_2
REMARK    2  A    between atoms: C_2  and  C_3
REMARK    3  A    between atoms: C_3  and  N_4
REMARK    4  A    between atoms: N_4  and  C_5
REMARK    5  A    between atoms: C_5  and  C_6
REMARK    6  A    between atoms: C_5  and  C_13
REMARK    7  A    between atoms: C_9  and  C_10
REMARK    8  A    between atoms: C_13  and  C_14
REMARK    9  A    between atoms: C_13  and  O_16
REMARK   10  A    between atoms: C_14  and  O_15
REMARK   11  A    between atoms: O_16  and  C_17
REMARK                            x       y       z     vdW  Elec       q    Type
REMARK                         _______ _______ _______ _____ _____    ______ ____
ROOT
ATOM      1  C   UNL     1       4.213   6.032  17.978  0.00  0.00    +0.000 C 
ENDROOT
BRANCH   1   2
ATOM      2  C   UNL     1       3.222   7.134  18.396  0.00  0.00    +0.000 A 
ATOM      3  C   UNL     1       2.571   7.071  19.638  0.00  0.00    +0.000 A 
ATOM      4  C   UNL     1       1.613   8.024  20.000  0.00  0.00    +0.000 A 
ATOM      5  C   UNL     1       1.278   9.071  19.131  0.00  0.00    +0.000 A 
ATOM      6  C   UNL     1       0.265  10.103  19.534  0.00  0.00    +0.000 C 
ATOM      7  C   UNL     1       1.943   9.158  17.905  0.00  0.00    +0.000 A 
ATOM      8  C   UNL     1       2.900   8.201  17.540  0.00  0.00    +0.000 A 
ENDBRANCH   1   2
BRANCH   1   9
ATOM      9  N   UNL     1       5.163   6.658  17.018  0.00  0.00    +0.000 NA
ATOM     10  H   UNL     1       4.979   7.663  17.008  0.00  0.00    +0.000 HD
BRANCH   9  11
ATOM     11  C   UNL     1       5.135   6.136  15.661  0.00  0.00    +0.000 C 
BRANCH  11  13
ATOM     12  C   UNL     1       5.923   3.790  15.298  0.00  0.00    +0.000 C 
ATOM     13  C   UNL     1       6.343   5.255  15.342  0.00  0.00    +0.000 C 
ENDBRANCH  11  13
ENDBRANCH   9  11
ENDBRANCH   1   9
BRANCH   1  14
ATOM     14  C   UNL     1       4.830   5.279  19.225  0.00  0.00    +0.000 C 
BRANCH  14  15
ATOM     15  C   UNL     1       6.379   5.323  19.256  0.00  0.00    +0.000 C 
BRANCH  15  16
ATOM     16  O   UNL     1       6.966   4.243  18.524  0.00  0.00    +0.000 OA
ATOM     17  H   UNL     1       7.792   4.579  18.134  0.00  0.00    +0.000 HD
ENDBRANCH  15  16
ENDBRANCH  14  15
BRANCH  14  18
ATOM     18  O   UNL     1       4.498   3.866  19.135  0.00  0.00    +0.000 OA
BRANCH  18  19
ATOM     19  C   UNL     1       3.212   3.492  19.420  0.00  0.00    +0.000 A 
ATOM     20  C   UNL     1       2.612   3.590  20.673  0.00  0.00    +0.000 A 
ATOM     21  C   UNL     1       1.293   3.167  20.855  0.00  0.00    +0.000 A 
ATOM     22  C   UNL     1       0.561   2.663  19.781  0.00  0.00    +0.000 A 
ATOM     23  C   UNL     1       1.149   2.583  18.521  0.00  0.00    +0.000 A 
ATOM     24  C   UNL     1       2.470   3.001  18.340  0.00  0.00    +0.000 A 
ENDBRANCH  18  19
ENDBRANCH  14  18
ENDBRANCH   1  14
TORSDOF 9
ENDMDL
MODEL 2
REMARK VINA RESULT:      -7.0      0.535      1.541
REMARK  Name = 
REMARK  11 active torsions:
REMARK  status: ('A' for Active; 'I' for Inactive)
REMARK    1  A    between atoms: C_1  and  C_2
REMARK    2  A    between atoms: C_2  and  C_3
REMARK    3  A    between atoms: C_3  and  N_4
REMARK    4  A    between atoms: N_4  and  C_5
REMARK    5  A    between atoms: C_5  and  C_6
REMARK    6  A    between atoms: C_5  and  C_13
REMARK    7  A    between atoms: C_9  and  C_10
REMARK    8  A    between atoms: C_13  and  C_14
REMARK    9  A    between atoms: C_13  and  O_16
REMARK   10  A    between atoms: C_14  and  O_15
REMARK   11  A    between atoms: O_16  and  C_17
REMARK                            x       y       z     vdW  Elec       q    Type
REMARK                         _______ _______ _______ _____ _____    ______ ____
ROOT
ATOM      1  C   UNL     1       4.240   5.940  17.755  0.00  0.00    +0.000 C 
ENDROOT
BRANCH   1   2
ATOM      2  C   UNL     1       3.216   6.964  18.278  0.00  0.00    +0.000 A 
ATOM      3  C   UNL     1       2.858   8.074  17.499  0.00  0.00    +0.000 A 
ATOM      4  C   UNL     1       1.987   9.052  17.991  0.00  0.00    +0.000 A 
ATOM      5  C   UNL     1       1.445   8.947  19.279  0.00  0.00    +0.000 A 
ATOM      6  C   UNL     1       0.493   9.988  19.793  0.00  0.00    +0.000 C 
ATOM      7  C   UNL     1       1.773   7.829  20.051  0.00  0.00    +0.000 A 
ATOM      8  C   UNL     1       2.648   6.852  19.559  0.00  0.00    +0.000 A 
ENDBRANCH   1   2
BRANCH   1   9
ATOM      9  N   UNL     1       5.118   6.670  16.799  0.00  0.00    +0.000 NA
ATOM     10  H   UNL     1       4.789   7.636  16.750  0.00  0.00    +0.000 HD
BRANCH   9  11
ATOM     11  C   UNL     1       5.210   6.109  15.461  0.00  0.00    +0.000 C 
BRANCH  11  13
ATOM     12  C   UNL     1       6.029   4.031  14.336  0.00  0.00    +0.000 C 
ATOM     13  C   UNL     1       6.392   5.152  15.302  0.00  0.00    +0.000 C 
ENDBRANCH  11  13
ENDBRANCH   9  11
ENDBRANCH   1   9
BRANCH   1  14
ATOM     14  C   UNL     1       4.944   5.146  18.928  0.00  0.00    +0.000 C 
BRANCH  14  15
ATOM     15  C   UNL     1       6.490   5.156  18.826  0.00  0.00    +0.000 C 
BRANCH  15  16
ATOM     16  O   UNL     1       7.116   5.392  20.090  0.00  0.00    +0.000 OA
ATOM     17  H   UNL     1       6.407   5.431  20.756  0.00  0.00    +0.000 HD
ENDBRANCH  15  16
ENDBRANCH  14  15
BRANCH  14  18
ATOM     18  O   UNL     1       4.572   3.743  18.838  0.00  0.00    +0.000 OA
BRANCH  18  19
ATOM     19  C   UNL     1       3.280   3.404  19.138  0.00  0.00    +0.000 A 
ATOM     20  C   UNL     1       2.339   2.954  18.214  0.00  0.00    +0.000 A 
ATOM     21  C   UNL     1       1.040   2.646  18.628  0.00  0.00    +0.000 A 
ATOM     22  C   UNL     1       0.683   2.765  19.970  0.00  0.00    +0.000 A 
ATOM     23  C   UNL     1       1.627   3.193  20.901  0.00  0.00    +0.000 A 
ATOM     24  C   UNL     1       2.924   3.506  20.486  0.00  0.00    +0.000 A 
ENDBRANCH  18  19
ENDBRANCH  14  18
ENDBRANCH   1  14
TORSDOF 9
ENDMDL
MODEL 3
REMARK VINA RESULT:      -6.9      0.612      1.190
REMARK  Name = 
REMARK  11 active torsions:
REMARK  status: ('A' for Active; 'I' for Inactive)
REMARK    1  A    between atoms: C_1  and  C_2
REMARK    2  A    between atoms: C_2  and  C_3
REMARK    3  A    between atoms: C_3  and  N_4
REMARK    4  A    between atoms: N_4  and  C_5
REMARK    5  A    between atoms: C_5  and  C_6
REMARK    6  A    between atoms: C_5  and  C_13
REMARK    7  A    between atoms: C_9  and  C_10
REMARK    8  A    between atoms: C_13  and  C_14
REMARK    9  A    between atoms: C_13  and  O_16
REMARK   10  A    between atoms: C_14  and  O_15
REMARK   11  A    between atoms: O_16  and  C_17
REMARK                            x       y       z     vdW  Elec       q    Type
REMARK                         _______ _______ _______ _____ _____    ______ ____
ROOT
ATOM      1  C   UNL     1       4.247   5.983  17.730  0.00  0.00    +0.000 C 
ENDROOT
BRANCH   1   2
ATOM      2  C   UNL     1       3.271   7.021  18.315  0.00  0.00    +0.000 A 
ATOM      3  C   UNL     1       2.723   6.840  19.594  0.00  0.00    +0.000 A 
ATOM      4  C   UNL     1       1.778   7.735  20.108  0.00  0.00    +0.000 A 
ATOM      5  C   UNL     1       1.353   8.839  19.358  0.00  0.00    +0.000 A 
ATOM      6  C   UNL     1       0.356   9.808  19.923  0.00  0.00    +0.000 C 
ATOM      7  C   UNL     1       1.916   9.043  18.095  0.00  0.00    +0.000 A 
ATOM      8  C   UNL     1       2.860   8.145  17.578  0.00  0.00    +0.000 A 
ENDBRANCH   1   2
BRANCH   1   9
ATOM      9  N   UNL     1       5.175   6.731  16.837  0.00  0.00    +0.000 NA
ATOM     10  H   UNL     1       4.943   7.723  16.908  0.00  0.00    +0.000 HD
BRANCH   9  11
ATOM     11  C   UNL     1       5.185   6.322  15.442  0.00  0.00    +0.000 C 
BRANCH  11  13
ATOM     12  C   UNL     1       6.899   4.584  14.896  0.00  0.00    +0.000 C 
ATOM     13  C   UNL     1       5.440   4.824  15.267  0.00  0.00    +0.000 C 
ENDBRANCH  11  13
ENDBRANCH   9  11
ENDBRANCH   1   9
BRANCH   1  14
ATOM     14  C   UNL     1       4.891   5.072  18.851  0.00  0.00    +0.000 C 
BRANCH  14  15
ATOM     15  C   UNL     1       6.438   5.011  18.769  0.00  0.00    +0.000 C 
BRANCH  15  16
ATOM     16  O   UNL     1       7.062   5.439  19.984  0.00  0.00    +0.000 OA
ATOM     17  H   UNL     1       7.990   5.147  19.945  0.00  0.00    +0.000 HD
ENDBRANCH  15  16
ENDBRANCH  14  15
BRANCH  14  18
ATOM     18  O   UNL     1       4.453   3.699  18.653  0.00  0.00    +0.000 OA
BRANCH  18  19
ATOM     19  C   UNL     1       3.179   3.373  19.035  0.00  0.00    +0.000 A 
ATOM     20  C   UNL     1       2.163   2.980  18.167  0.00  0.00    +0.000 A 
ATOM     21  C   UNL     1       0.892   2.681  18.665  0.00  0.00    +0.000 A 
ATOM     22  C   UNL     1       0.637   2.753  20.033  0.00  0.00    +0.000 A 
ATOM     23  C   UNL     1       1.656   3.125  20.907  0.00  0.00    +0.000 A 
ATOM     24  C   UNL     1       2.926   3.429  20.409  0.00  0.00    +0.000 A 
ENDBRANCH  18  19
ENDBRANCH  14  18
ENDBRANCH   1  14
TORSDOF 9
ENDMDL
MODEL 4
REMARK VINA RESULT:      -6.8      1.783      4.744
REMARK  Name = 
REMARK  11 active torsions:
REMARK  status: ('A' for Active; 'I' for Inactive)
REMARK    1  A    between atoms: C_1  and  C_2
REMARK    2  A    between atoms: C_2  and  C_3
REMARK    3  A    between atoms: C_3  and  N_4
REMARK    4  A    between atoms: N_4  and  C_5
REMARK    5  A    between atoms: C_5  and  C_6
REMARK    6  A    between atoms: C_5  and  C_13
REMARK    7  A    between atoms: C_9  and  C_10
REMARK    8  A    between atoms: C_13  and  C_14
REMARK    9  A    between atoms: C_13  and  O_16
REMARK   10  A    between atoms: C_14  and  O_15
REMARK   11  A    between atoms: O_16  and  C_17
REMARK                            x       y       z     vdW  Elec       q    Type
REMARK                         _______ _______ _______ _____ _____    ______ ____
ROOT
ATOM      1  C   UNL     1       3.328   5.670  19.063  0.00  0.00    +0.000 C 
ENDROOT
BRANCH   1   2
ATOM      2  C   UNL     1       2.628   7.042  19.035  0.00  0.00    +0.000 A 
ATOM      3  C   UNL     1       1.947   7.516  20.166  0.00  0.00    +0.000 A 
ATOM      4  C   UNL     1       1.244   8.725  20.132  0.00  0.00    +0.000 A 
ATOM      5  C   UNL     1       1.201   9.497  18.964  0.00  0.00    +0.000 A 
ATOM      6  C   UNL     1       0.463  10.804  18.939  0.00  0.00    +0.000 C 
ATOM      7  C   UNL     1       1.902   9.047  17.841  0.00  0.00    +0.000 A 
ATOM      8  C   UNL     1       2.604   7.834  17.874  0.00  0.00    +0.000 A 
ENDBRANCH   1   2
BRANCH   1   9
ATOM      9  N   UNL     1       2.588   4.838  20.051  0.00  0.00    +0.000 NA
ATOM     10  H   UNL     1       2.182   5.467  20.747  0.00  0.00    +0.000 HD
BRANCH   9  11
ATOM     11  C   UNL     1       3.358   3.797  20.713  0.00  0.00    +0.000 C 
BRANCH  11  13
ATOM     12  C   UNL     1       1.023   2.948  20.999  0.00  0.00    +0.000 C 
ATOM     13  C   UNL     1       2.476   2.771  21.424  0.00  0.00    +0.000 C 
ENDBRANCH  11  13
ENDBRANCH   9  11
ENDBRANCH   1   9
BRANCH   1  14
ATOM     14  C   UNL     1       3.528   5.072  17.612  0.00  0.00    +0.000 C 
BRANCH  14  15
ATOM     15  C   UNL     1       2.611   3.856  17.325  0.00  0.00    +0.000 C 
BRANCH  15  16
ATOM     16  O   UNL     1       1.223   4.191  17.414  0.00  0.00    +0.000 OA
ATOM     17  H   UNL     1       1.156   4.984  17.974  0.00  0.00    +0.000 HD
ENDBRANCH  15  16
ENDBRANCH  14  15
BRANCH  14  18
ATOM     18  O   UNL     1       4.882   4.553  17.498  0.00  0.00    +0.000 OA
BRANCH  18  19
ATOM     19  C   UNL     1       5.917   5.401  17.789  0.00  0.00    +0.000 A 
ATOM     20  C   UNL     1       6.841   5.210  18.813  0.00  0.00    +0.000 A 
ATOM     21  C   UNL     1       7.854   6.147  19.030  0.00  0.00    +0.000 A 
ATOM     22  C   UNL     1       7.961   7.269  18.209  0.00  0.00    +0.000 A 
ATOM     23  C   UNL     1       7.053   7.454  17.169  0.00  0.00    +0.000 A 
ATOM     24  C   UNL     1       6.037   6.519  16.957  0.00  0.00    +0.000 A 
ENDBRANCH  18  19
ENDBRANCH  14  18
ENDBRANCH   1  14
TORSDOF 9
ENDMDL
MODEL 5
REMARK VINA RESULT:      -6.6      1.811      4.817
REMARK  Name = 
REMARK  11 active torsions:
REMARK  status: ('A' for Active; 'I' for Inactive)
REMARK    1  A    between atoms: C_1  and  C_2
REMARK    2  A    between atoms: C_2  and  C_3
REMARK    3  A    between atoms: C_3  and  N_4
REMARK    4  A    between atoms: N_4  and  C_5
REMARK    5  A    between atoms: C_5  and  C_6
REMARK    6  A    between atoms: C_5  and  C_13
REMARK    7  A    between atoms: C_9  and  C_10
REMARK    8  A    between atoms: C_13  and  C_14
REMARK    9  A    between atoms: C_13  and  O_16
REMARK   10  A    between atoms: C_14  and  O_15
REMARK   11  A    between atoms: O_16  and  C_17
REMARK                            x       y       z     vdW  Elec       q    Type
REMARK                         _______ _______ _______ _____ _____    ______ ____
ROOT
ATOM      1  C   UNL     1       2.949   6.282  19.291  0.00  0.00    +0.000 C 
ENDROOT
BRANCH   1   2
ATOM      2  C   UNL     1       2.229   7.639  19.175  0.00  0.00    +0.000 A 
ATOM      3  C   UNL     1       2.312   8.390  17.992  0.00  0.00    +0.000 A 
ATOM      4  C   UNL     1       1.727   9.656  17.898  0.00  0.00    +0.000 A 
ATOM      5  C   UNL     1       1.039  10.211  18.985  0.00  0.00    +0.000 A 
ATOM      6  C   UNL     1       0.394  11.562  18.871  0.00  0.00    +0.000 C 
ATOM      7  C   UNL     1       0.926   9.458  20.157  0.00  0.00    +0.000 A 
ATOM      8  C   UNL     1       1.515   8.190  20.253  0.00  0.00    +0.000 A 
ENDBRANCH   1   2
BRANCH   1   9
ATOM      9  N   UNL     1       2.284   5.543  20.399  0.00  0.00    +0.000 NA
ATOM     10  H   UNL     1       2.140   6.199  21.169  0.00  0.00    +0.000 HD
BRANCH   9  11
ATOM     11  C   UNL     1       2.974   4.357  20.879  0.00  0.00    +0.000 C 
BRANCH  11  13
ATOM     12  C   UNL     1       1.226   2.576  20.709  0.00  0.00    +0.000 C 
ATOM     13  C   UNL     1       2.059   3.419  21.667  0.00  0.00    +0.000 C 
ENDBRANCH  11  13
ENDBRANCH   9  11
ENDBRANCH   1   9
BRANCH   1  14
ATOM     14  C   UNL     1       3.067   5.548  17.894  0.00  0.00    +0.000 C 
BRANCH  14  15
ATOM     15  C   UNL     1       1.971   4.474  17.679  0.00  0.00    +0.000 C 
BRANCH  15  16
ATOM     16  O   UNL     1       2.524   3.180  17.420  0.00  0.00    +0.000 OA
ATOM     17  H   UNL     1       1.902   2.526  17.783  0.00  0.00    +0.000 HD
ENDBRANCH  15  16
ENDBRANCH  14  15
BRANCH  14  18
ATOM     18  O   UNL     1       4.323   4.815  17.852  0.00  0.00    +0.000 OA
BRANCH  18  19
ATOM     19  C   UNL     1       5.484   5.531  17.959  0.00  0.00    +0.000 A 
ATOM     20  C   UNL     1       5.837   6.605  17.145  0.00  0.00    +0.000 A 
ATOM     21  C   UNL     1       7.057   7.260  17.335  0.00  0.00    +0.000 A 
ATOM     22  C   UNL     1       7.920   6.857  18.353  0.00  0.00    +0.000 A 
ATOM     23  C   UNL     1       7.562   5.798  19.184  0.00  0.00    +0.000 A 
ATOM     24  C   UNL     1       6.345   5.140  18.990  0.00  0.00    +0.000 A 
ENDBRANCH  18  19
ENDBRANCH  14  18
ENDBRANCH   1  14
TORSDOF 9
ENDMDL
MODEL 6
REMARK VINA RESULT:      -6.6      1.884      4.957
REMARK  Name = 
REMARK  11 active torsions:
REMARK  status: ('A' for Active; 'I' for Inactive)
REMARK    1  A    between atoms: C_1  and  C_2
REMARK    2  A    between atoms: C_2  and  C_3
REMARK    3  A    between atoms: C_3  and  N_4
REMARK    4  A    between atoms: N_4  and  C_5
REMARK    5  A    between atoms: C_5  and  C_6
REMARK    6  A    between atoms: C_5  and  C_13
REMARK    7  A    between atoms: C_9  and  C_10
REMARK    8  A    between atoms: C_13  and  C_14
REMARK    9  A    between atoms: C_13  and  O_16
REMARK   10  A    between atoms: C_14  and  O_15
REMARK   11  A    between atoms: O_16  and  C_17
REMARK                            x       y       z     vdW  Elec       q    Type
REMARK                         _______ _______ _______ _____ _____    ______ ____
ROOT
ATOM      1  C   UNL     1       2.796   6.038  19.470  0.00  0.00    +0.000 C 
ENDROOT
BRANCH   1   2
ATOM      2  C   UNL     1       2.247   7.463  19.268  0.00  0.00    +0.000 A 
ATOM      3  C   UNL     1       1.556   8.113  20.302  0.00  0.00    +0.000 A 
ATOM      4  C   UNL     1       0.987   9.376  20.109  0.00  0.00    +0.000 A 
ATOM      5  C   UNL     1       1.093  10.029  18.874  0.00  0.00    +0.000 A 
ATOM      6  C   UNL     1       0.500  11.394  18.679  0.00  0.00    +0.000 C 
ATOM      7  C   UNL     1       1.806   9.403  17.848  0.00  0.00    +0.000 A 
ATOM      8  C   UNL     1       2.373   8.136  18.040  0.00  0.00    +0.000 A 
ENDBRANCH   1   2
BRANCH   1   9
ATOM      9  N   UNL     1       1.779   5.303  20.271  0.00  0.00    +0.000 NA
ATOM     10  H   UNL     1       1.264   5.989  20.827  0.00  0.00    +0.000 HD
BRANCH   9  11
ATOM     11  C   UNL     1       2.287   4.248  21.133  0.00  0.00    +0.000 C 
BRANCH  11  13
ATOM     12  C   UNL     1       1.255   2.246  22.222  0.00  0.00    +0.000 C 
ATOM     13  C   UNL     1       1.598   2.904  20.890  0.00  0.00    +0.000 C 
ENDBRANCH  11  13
ENDBRANCH   9  11
ENDBRANCH   1   9
BRANCH   1  14
ATOM     14  C   UNL     1       3.265   5.381  18.110  0.00  0.00    +0.000 C 
BRANCH  14  15
ATOM     15  C   UNL     1       2.372   4.193  17.670  0.00  0.00    +0.000 C 
BRANCH  15  16
ATOM     16  O   UNL     1       1.036   4.603  17.367  0.00  0.00    +0.000 OA
ATOM     17  H   UNL     1       0.530   3.797  17.160  0.00  0.00    +0.000 HD
ENDBRANCH  15  16
ENDBRANCH  14  15
BRANCH  14  18
ATOM     18  O   UNL     1       4.588   4.805  18.296  0.00  0.00    +0.000 OA
BRANCH  18  19
ATOM     19  C   UNL     1       5.668   5.639  18.195  0.00  0.00    +0.000 A 
ATOM     20  C   UNL     1       5.765   6.716  17.317  0.00  0.00    +0.000 A 
ATOM     21  C   UNL     1       6.923   7.498  17.289  0.00  0.00    +0.000 A 
ATOM     22  C   UNL     1       7.980   7.220  18.154  0.00  0.00    +0.000 A 
ATOM     23  C   UNL     1       7.880   6.158  19.049  0.00  0.00    +0.000 A 
ATOM     24  C   UNL     1       6.724   5.373  19.073  0.00  0.00    +0.000 A 
ENDBRANCH  18  19
ENDBRANCH  14  18
ENDBRANCH   1  14
TORSDOF 9
ENDMDL
MODEL 7
REMARK VINA RESULT:      -6.5      1.980      3.085
REMARK  Name = 
REMARK  11 active torsions:
REMARK  status: ('A' for Active; 'I' for Inactive)
REMARK    1  A    between atoms: C_1  and  C_2
REMARK    2  A    between atoms: C_2  and  C_3
REMARK    3  A    between atoms: C_3  and  N_4
REMARK    4  A    between atoms: N_4  and  C_5
REMARK    5  A    between atoms: C_5  and  C_6
REMARK    6  A    between atoms: C_5  and  C_13
REMARK    7  A    between atoms: C_9  and  C_10
REMARK    8  A    between atoms: C_13  and  C_14
REMARK    9  A    between atoms: C_13  and  O_16
REMARK   10  A    between atoms: C_14  and  O_15
REMARK   11  A    between atoms: O_16  and  C_17
REMARK                            x       y       z     vdW  Elec       q    Type
REMARK                         _______ _______ _______ _____ _____    ______ ____
ROOT
ATOM      1  C   UNL     1       5.501   5.771  17.020  0.00  0.00    +0.000 C 
ENDROOT
BRANCH   1   2
ATOM      2  C   UNL     1       4.373   6.196  17.980  0.00  0.00    +0.000 A 
ATOM      3  C   UNL     1       3.477   7.213  17.619  0.00  0.00    +0.000 A 
ATOM      4  C   UNL     1       2.495   7.661  18.509  0.00  0.00    +0.000 A 
ATOM      5  C   UNL     1       2.380   7.105  19.789  0.00  0.00    +0.000 A 
ATOM      6  C   UNL     1       1.311   7.574  20.733  0.00  0.00    +0.000 C 
ATOM      7  C   UNL     1       3.250   6.071  20.147  0.00  0.00    +0.000 A 
ATOM      8  C   UNL     1       4.236   5.624  19.257  0.00  0.00    +0.000 A 
ENDBRANCH   1   2
BRANCH   1   9
ATOM      9  N   UNL     1       6.777   6.220  17.642  0.00  0.00    +0.000 NA
ATOM     10  H   UNL     1       6.719   6.032  18.644  0.00  0.00    +0.000 HD
BRANCH   9  11
ATOM     11  C   UNL     1       7.141   7.609  17.418  0.00  0.00    +0.000 C 
BRANCH  11  13
ATOM     12  C   UNL     1       8.496   9.574  18.167  0.00  0.00    +0.000 C 
ATOM     13  C   UNL     1       8.291   8.071  18.315  0.00  0.00    +0.000 C 
ENDBRANCH  11  13
ENDBRANCH   9  11
ENDBRANCH   1   9
BRANCH   1  14
ATOM     14  C   UNL     1       5.388   4.249  16.605  0.00  0.00    +0.000 C 
BRANCH  14  15
ATOM     15  C   UNL     1       6.202   3.906  15.331  0.00  0.00    +0.000 C 
BRANCH  15  16
ATOM     16  O   UNL     1       7.410   4.667  15.238  0.00  0.00    +0.000 OA
ATOM     17  H   UNL     1       8.080   4.089  14.833  0.00  0.00    +0.000 HD
ENDBRANCH  15  16
ENDBRANCH  14  15
BRANCH  14  18
ATOM     18  O   UNL     1       4.007   3.956  16.256  0.00  0.00    +0.000 OA
BRANCH  18  19
ATOM     19  C   UNL     1       3.232   3.324  17.190  0.00  0.00    +0.000 A 
ATOM     20  C   UNL     1       3.646   2.251  17.976  0.00  0.00    +0.000 A 
ATOM     21  C   UNL     1       2.766   1.672  18.894  0.00  0.00    +0.000 A 
ATOM     22  C   UNL     1       1.476   2.177  19.046  0.00  0.00    +0.000 A 
ATOM     23  C   UNL     1       1.064   3.264  18.279  0.00  0.00    +0.000 A 
ATOM     24  C   UNL     1       1.942   3.839  17.357  0.00  0.00    +0.000 A 
ENDBRANCH  18  19
ENDBRANCH  14  18
ENDBRANCH   1  14
TORSDOF 9
ENDMDL
MODEL 8
REMARK VINA RESULT:      -6.5      2.042      4.693
REMARK  Name = 
REMARK  11 active torsions:
REMARK  status: ('A' for Active; 'I' for Inactive)
REMARK    1  A    between atoms: C_1  and  C_2
REMARK    2  A    between atoms: C_2  and  C_3
REMARK    3  A    between atoms: C_3  and  N_4
REMARK    4  A    between atoms: N_4  and  C_5
REMARK    5  A    between atoms: C_5  and  C_6
REMARK    6  A    between atoms: C_5  and  C_13
REMARK    7  A    between atoms: C_9  and  C_10
REMARK    8  A    between atoms: C_13  and  C_14
REMARK    9  A    between atoms: C_13  and  O_16
REMARK   10  A    between atoms: C_14  and  O_15
REMARK   11  A    between atoms: O_16  and  C_17
REMARK                            x       y       z     vdW  Elec       q    Type
REMARK                         _______ _______ _______ _____ _____    ______ ____
ROOT
ATOM      1  C   UNL     1       4.298   5.581  18.201  0.00  0.00    +0.000 C 
ENDROOT
BRANCH   1   2
ATOM      2  C   UNL     1       4.810   5.114  16.826  0.00  0.00    +0.000 A 
ATOM      3  C   UNL     1       4.967   3.746  16.552  0.00  0.00    +0.000 A 
ATOM      4  C   UNL     1       5.502   3.310  15.335  0.00  0.00    +0.000 A 
ATOM      5  C   UNL     1       5.895   4.229  14.354  0.00  0.00    +0.000 A 
ATOM      6  C   UNL     1       6.448   3.754  13.041  0.00  0.00    +0.000 C 
ATOM      7  C   UNL     1       5.715   5.592  14.606  0.00  0.00    +0.000 A 
ATOM      8  C   UNL     1       5.183   6.029  15.826  0.00  0.00    +0.000 A 
ENDBRANCH   1   2
BRANCH   1   9
ATOM      9  N   UNL     1       5.446   6.248  18.876  0.00  0.00    +0.000 NA
ATOM     10  H   UNL     1       5.813   6.957  18.238  0.00  0.00    +0.000 HD
BRANCH   9  11
ATOM     11  C   UNL     1       6.520   5.375  19.319  0.00  0.00    +0.000 C 
BRANCH  11  13
ATOM     12  C   UNL     1       7.788   7.124  18.058  0.00  0.00    +0.000 C 
ATOM     13  C   UNL     1       7.907   5.943  19.014  0.00  0.00    +0.000 C 
ENDBRANCH  11  13
ENDBRANCH   9  11
ENDBRANCH   1   9
BRANCH   1  14
ATOM     14  C   UNL     1       2.946   6.394  18.090  0.00  0.00    +0.000 C 
BRANCH  14  15
ATOM     15  C   UNL     1       3.167   7.913  17.875  0.00  0.00    +0.000 C 
BRANCH  15  16
ATOM     16  O   UNL     1       1.982   8.575  17.425  0.00  0.00    +0.000 OA
ATOM     17  H   UNL     1       1.988   9.467  17.816  0.00  0.00    +0.000 HD
ENDBRANCH  15  16
ENDBRANCH  14  15
BRANCH  14  18
ATOM     18  O   UNL     1       2.231   6.295  19.352  0.00  0.00    +0.000 OA
BRANCH  18  19
ATOM     19  C   UNL     1       1.987   5.045  19.852  0.00  0.00    +0.000 A 
ATOM     20  C   UNL     1       2.275   4.635  21.152  0.00  0.00    +0.000 A 
ATOM     21  C   UNL     1       1.993   3.327  21.555  0.00  0.00    +0.000 A 
ATOM     22  C   UNL     1       1.404   2.429  20.666  0.00  0.00    +0.000 A 
ATOM     23  C   UNL     1       1.094   2.840  19.372  0.00  0.00    +0.000 A 
ATOM     24  C   UNL     1       1.380   4.146  18.968  0.00  0.00    +0.000 A 
ENDBRANCH  18  19
ENDBRANCH  14  18
ENDBRANCH   1  14
TORSDOF 9
ENDMDL
MODEL 9
REMARK VINA RESULT:      -6.5      1.858      4.671
REMARK  Name = 
REMARK  11 active torsions:
REMARK  status: ('A' for Active; 'I' for Inactive)
REMARK    1  A    between atoms: C_1  and  C_2
REMARK    2  A    between atoms: C_2  and  C_3
REMARK    3  A    between atoms: C_3  and  N_4
REMARK    4  A    between atoms: N_4  and  C_5
REMARK    5  A    between atoms: C_5  and  C_6
REMARK    6  A    between atoms: C_5  and  C_13
REMARK    7  A    between atoms: C_9  and  C_10
REMARK    8  A    between atoms: C_13  and  C_14
REMARK    9  A    between atoms: C_13  and  O_16
REMARK   10  A    between atoms: C_14  and  O_15
REMARK   11  A    between atoms: O_16  and  C_17
REMARK                            x       y       z     vdW  Elec       q    Type
REMARK                         _______ _______ _______ _____ _____    ______ ____
ROOT
ATOM      1  C   UNL     1       2.995   5.505  19.456  0.00  0.00    +0.000 C 
ENDROOT
BRANCH   1   2
ATOM      2  C   UNL     1       2.442   6.930  19.264  0.00  0.00    +0.000 A 
ATOM      3  C   UNL     1       1.816   7.599  20.327  0.00  0.00    +0.000 A 
ATOM      4  C   UNL     1       1.243   8.862  20.148  0.00  0.00    +0.000 A 
ATOM      5  C   UNL     1       1.280   9.496  18.900  0.00  0.00    +0.000 A 
ATOM      6  C   UNL     1       0.683  10.861  18.719  0.00  0.00    +0.000 C 
ATOM      7  C   UNL     1       1.927   8.850  17.843  0.00  0.00    +0.000 A 
ATOM      8  C   UNL     1       2.499   7.583  18.021  0.00  0.00    +0.000 A 
ENDBRANCH   1   2
BRANCH   1   9
ATOM      9  N   UNL     1       1.876   4.687  19.999  0.00  0.00    +0.000 NA
ATOM     10  H   UNL     1       1.025   5.249  19.948  0.00  0.00    +0.000 HD
BRANCH   9  11
ATOM     11  C   UNL     1       2.054   4.179  21.349  0.00  0.00    +0.000 C 
BRANCH  11  13
ATOM     12  C   UNL     1       3.610   2.260  20.954  0.00  0.00    +0.000 C 
ATOM     13  C   UNL     1       2.206   2.658  21.393  0.00  0.00    +0.000 C 
ENDBRANCH  11  13
ENDBRANCH   9  11
ENDBRANCH   1   9
BRANCH   1  14
ATOM     14  C   UNL     1       3.727   4.970  18.160  0.00  0.00    +0.000 C 
BRANCH  14  15
ATOM     15  C   UNL     1       3.085   3.679  17.590  0.00  0.00    +0.000 C 
BRANCH  15  16
ATOM     16  O   UNL     1       4.015   2.593  17.529  0.00  0.00    +0.000 OA
ATOM     17  H   UNL     1       4.793   2.912  17.038  0.00  0.00    +0.000 HD
ENDBRANCH  15  16
ENDBRANCH  14  15
BRANCH  14  18
ATOM     18  O   UNL     1       5.086   4.588  18.509  0.00  0.00    +0.000 OA
BRANCH  18  19
ATOM     19  C   UNL     1       6.068   5.534  18.382  0.00  0.00    +0.000 A 
ATOM     20  C   UNL     1       7.213   5.606  19.171  0.00  0.00    +0.000 A 
ATOM     21  C   UNL     1       8.148   6.624  18.962  0.00  0.00    +0.000 A 
ATOM     22  C   UNL     1       7.952   7.561  17.949  0.00  0.00    +0.000 A 
ATOM     23  C   UNL     1       6.819   7.481  17.143  0.00  0.00    +0.000 A 
ATOM     24  C   UNL     1       5.882   6.466  17.355  0.00  0.00    +0.000 A 
ENDBRANCH  18  19
ENDBRANCH  14  18
ENDBRANCH   1  14
TORSDOF 9
ENDMDL
