MODEL 1
REMARK VINA RESULT:      -8.2      0.000      0.000
REMARK  Name = 
REMARK  11 active torsions:
REMARK  status: ('A' for Active; 'I' for Inactive)
REMARK    1  A    between atoms: C_1  and  C_2
REMARK    2  A    between atoms: C_2  and  O_3
REMARK    3  A    between atoms: O_3  and  C_4
REMARK    4  A    between atoms: C_9  and  N_10
REMARK    5  A    between atoms: C_11  and  C_13
REMARK    6  A    between atoms: C_13  and  C_14
REMARK    7  A    between atoms: C_13  and  N_21
REMARK    8  A    between atoms: C_14  and  C_15
REMARK    9  A    between atoms: N_21  and  S_22
REMARK   10  A    between atoms: S_22  and  C_25
REMARK   11  A    between atoms: N_34  and  C_35
REMARK                            x       y       z     vdW  Elec       q    Type
REMARK                         _______ _______ _______ _____ _____    ______ ____
ROOT
ATOM      1  C   UNL     1       1.006  10.033  19.424  0.00  0.00    +0.000 C 
ENDROOT
BRANCH   1   3
ATOM      2  N   UNL     1       2.152   7.828  19.043  0.00  0.00    +0.000 N 
ATOM      3  C   UNL     1       1.723   9.019  18.476  0.00  0.00    +0.000 C 
ATOM      4  O   UNL     1       1.858   9.321  17.288  0.00  0.00    +0.000 OA
ATOM      5  H   UNL     1       2.055   7.714  20.038  0.00  0.00    +0.000 HD
BRANCH   2  11
ATOM      6  C   UNL     1       2.568   5.420  18.791  0.00  0.00    +0.000 A 
ATOM      7  C   UNL     1       3.349   4.378  18.260  0.00  0.00    +0.000 A 
ATOM      8  C   UNL     1       4.397   4.641  17.383  0.00  0.00    +0.000 A 
ATOM      9  C   UNL     1       4.688   5.954  17.040  0.00  0.00    +0.000 A 
ATOM     10  C   UNL     1       3.925   7.002  17.564  0.00  0.00    +0.000 A 
ATOM     11  C   UNL     1       2.862   6.759  18.444  0.00  0.00    +0.000 A 
BRANCH   6  12
ATOM     12  O   UNL     1       1.610   4.956  19.659  0.00  0.00    +0.000 OA
BRANCH  12  14
ATOM     13  C   UNL     1       1.619   3.235  21.340  0.00  0.00    +0.000 C 
ATOM     14  C   UNL     1       1.975   4.673  21.006  0.00  0.00    +0.000 C 
ENDBRANCH  12  14
ENDBRANCH   6  12
ENDBRANCH   2  11
ENDBRANCH   1   3
BRANCH   1  15
ATOM     15  N   UNL     1       0.105   9.264  20.335  0.00  0.00    +0.000 NA
ATOM     16  H   UNL     1       0.011   8.272  20.088  0.00  0.00    +0.000 HD
BRANCH  15  17
ATOM     17  S   UNL     1       0.211   9.479  22.004  0.00  0.00    +0.000 S 
ATOM     18  O   UNL     1      -0.616   8.449  22.590  0.00  0.00    +0.000 OA
ATOM     19  O   UNL     1       1.604   9.626  22.356  0.00  0.00    +0.000 OA
BRANCH  17  20
ATOM     20  C   UNL     1      -0.628  11.024  22.302  0.00  0.00    +0.000 A 
ATOM     21  C   UNL     1      -0.039  12.271  21.977  0.00  0.00    +0.000 A 
ATOM     22  C   UNL     1      -0.726  13.479  22.234  0.00  0.00    +0.000 A 
ATOM     23  C   UNL     1      -1.970  13.391  22.826  0.00  0.00    +0.000 A 
ATOM     24  C   UNL     1      -2.521  12.162  23.161  0.00  0.00    +0.000 A 
ATOM     25  C   UNL     1      -1.880  10.968  22.918  0.00  0.00    +0.000 A 
ATOM     26  O   UNL     1      -3.771  12.269  23.744  0.00  0.00    +0.000 OA
ATOM     27  C   UNL     1      -3.986  13.649  23.742  0.00  0.00    +0.000 A 
ATOM     28  O   UNL     1      -5.015  14.164  24.161  0.00  0.00    +0.000 OA
ATOM     29  N   UNL     1      -2.906  14.325  23.204  0.00  0.00    +0.000 N 
ATOM     30  C   UNL     1      -2.893  15.744  23.016  0.00  0.00    +0.000 C 
ENDBRANCH  17  20
ENDBRANCH  15  17
ENDBRANCH   1  15
BRANCH   1  31
ATOM     31  C   UNL     1       0.291  11.203  18.740  0.00  0.00    +0.000 C 
BRANCH  31  32
ATOM     32  C   UNL     1      -1.187  11.054  18.428  0.00  0.00    +0.000 A 
ATOM     33  C   UNL     1      -2.197  11.834  19.016  0.00  0.00    +0.000 A 
ATOM     34  C   UNL     1      -3.536  11.656  18.670  0.00  0.00    +0.000 A 
ATOM     35  C   UNL     1      -3.883  10.709  17.721  0.00  0.00    +0.000 A 
ATOM     36  C   UNL     1      -2.898   9.926  17.123  0.00  0.00    +0.000 A 
ATOM     37  C   UNL     1      -1.561  10.086  17.484  0.00  0.00    +0.000 A 
ENDBRANCH  31  32
ENDBRANCH   1  31
TORSDOF 9
ENDMDL
MODEL 2
REMARK VINA RESULT:      -7.8      1.375      2.323
REMARK  Name = 
REMARK  11 active torsions:
REMARK  status: ('A' for Active; 'I' for Inactive)
REMARK    1  A    between atoms: C_1  and  C_2
REMARK    2  A    between atoms: C_2  and  O_3
REMARK    3  A    between atoms: O_3  and  C_4
REMARK    4  A    between atoms: C_9  and  N_10
REMARK    5  A    between atoms: C_11  and  C_13
REMARK    6  A    between atoms: C_13  and  C_14
REMARK    7  A    between atoms: C_13  and  N_21
REMARK    8  A    between atoms: C_14  and  C_15
REMARK    9  A    between atoms: N_21  and  S_22
REMARK   10  A    between atoms: S_22  and  C_25
REMARK   11  A    between atoms: N_34  and  C_35
REMARK                            x       y       z     vdW  Elec       q    Type
REMARK                         _______ _______ _______ _____ _____    ______ ____
ROOT
ATOM      1  C   UNL     1       1.378   9.093  19.781  0.00  0.00    +0.000 C 
ENDROOT
BRANCH   1   3
ATOM      2  N   UNL     1       2.381   7.198  18.469  0.00  0.00    +0.000 N 
ATOM      3  C   UNL     1       1.888   7.619  19.695  0.00  0.00    +0.000 C 
ATOM      4  O   UNL     1       1.839   6.920  20.710  0.00  0.00    +0.000 OA
ATOM      5  H   UNL     1       2.309   7.827  17.687  0.00  0.00    +0.000 HD
BRANCH   2  11
ATOM      6  C   UNL     1       4.232   5.723  17.808  0.00  0.00    +0.000 A 
ATOM      7  C   UNL     1       4.672   4.474  17.340  0.00  0.00    +0.000 A 
ATOM      8  C   UNL     1       3.782   3.417  17.165  0.00  0.00    +0.000 A 
ATOM      9  C   UNL     1       2.435   3.607  17.441  0.00  0.00    +0.000 A 
ATOM     10  C   UNL     1       1.980   4.846  17.902  0.00  0.00    +0.000 A 
ATOM     11  C   UNL     1       2.861   5.920  18.090  0.00  0.00    +0.000 A 
BRANCH   6  12
ATOM     12  O   UNL     1       5.255   6.637  17.879  0.00  0.00    +0.000 OA
BRANCH  12  14
ATOM     13  C   UNL     1       7.498   7.434  17.527  0.00  0.00    +0.000 C 
ATOM     14  C   UNL     1       6.574   6.229  17.530  0.00  0.00    +0.000 C 
ENDBRANCH  12  14
ENDBRANCH   6  12
ENDBRANCH   2  11
ENDBRANCH   1   3
BRANCH   1  15
ATOM     15  N   UNL     1       0.172   9.120  20.664  0.00  0.00    +0.000 NA
ATOM     16  H   UNL     1      -0.437   8.300  20.561  0.00  0.00    +0.000 HD
BRANCH  15  17
ATOM     17  S   UNL     1       0.320   9.582  22.279  0.00  0.00    +0.000 S 
ATOM     18  O   UNL     1      -0.514   8.672  23.029  0.00  0.00    +0.000 OA
ATOM     19  O   UNL     1       1.723   9.750  22.577  0.00  0.00    +0.000 OA
BRANCH  17  20
ATOM     20  C   UNL     1      -0.482  11.173  22.355  0.00  0.00    +0.000 A 
ATOM     21  C   UNL     1       0.062  12.317  21.720  0.00  0.00    +0.000 A 
ATOM     22  C   UNL     1      -0.594  13.566  21.806  0.00  0.00    +0.000 A 
ATOM     23  C   UNL     1      -1.759  13.625  22.544  0.00  0.00    +0.000 A 
ATOM     24  C   UNL     1      -2.264  12.500  23.180  0.00  0.00    +0.000 A 
ATOM     25  C   UNL     1      -1.653  11.268  23.110  0.00  0.00    +0.000 A 
ATOM     26  O   UNL     1      -3.437  12.748  23.871  0.00  0.00    +0.000 OA
ATOM     27  C   UNL     1      -3.655  14.103  23.616  0.00  0.00    +0.000 A 
ATOM     28  O   UNL     1      -4.628  14.713  24.040  0.00  0.00    +0.000 OA
ATOM     29  N   UNL     1      -2.647  14.635  22.832  0.00  0.00    +0.000 N 
ATOM     30  C   UNL     1      -2.660  15.987  22.362  0.00  0.00    +0.000 C 
ENDBRANCH  17  20
ENDBRANCH  15  17
ENDBRANCH   1  15
BRANCH   1  31
ATOM     31  C   UNL     1       1.143   9.802  18.444  0.00  0.00    +0.000 C 
BRANCH  31  32
ATOM     32  C   UNL     1      -0.227  10.402  18.184  0.00  0.00    +0.000 A 
ATOM     33  C   UNL     1      -0.602  11.701  18.565  0.00  0.00    +0.000 A 
ATOM     34  C   UNL     1      -1.874  12.196  18.279  0.00  0.00    +0.000 A 
ATOM     35  C   UNL     1      -2.782  11.407  17.593  0.00  0.00    +0.000 A 
ATOM     36  C   UNL     1      -2.432  10.117  17.202  0.00  0.00    +0.000 A 
ATOM     37  C   UNL     1      -1.168   9.612  17.507  0.00  0.00    +0.000 A 
ENDBRANCH  31  32
ENDBRANCH   1  31
TORSDOF 9
ENDMDL
MODEL 3
REMARK VINA RESULT:      -7.8      1.698      2.633
REMARK  Name = 
REMARK  11 active torsions:
REMARK  status: ('A' for Active; 'I' for Inactive)
REMARK    1  A    between atoms: C_1  and  C_2
REMARK    2  A    between atoms: C_2  and  O_3
REMARK    3  A    between atoms: O_3  and  C_4
REMARK    4  A    between atoms: C_9  and  N_10
REMARK    5  A    between atoms: C_11  and  C_13
REMARK    6  A    between atoms: C_13  and  C_14
REMARK    7  A    between atoms: C_13  and  N_21
REMARK    8  A    between atoms: C_14  and  C_15
REMARK    9  A    between atoms: N_21  and  S_22
REMARK   10  A    between atoms: S_22  and  C_25
REMARK   11  A    between atoms: N_34  and  C_35
REMARK                            x       y       z     vdW  Elec       q    Type
REMARK                         _______ _______ _______ _____ _____    ______ ____
ROOT
ATOM      1  C   UNL     1       1.462   8.883  19.935  0.00  0.00    +0.000 C 
ENDROOT
BRANCH   1   3
ATOM      2  N   UNL     1       2.457   6.896  18.761  0.00  0.00    +0.000 N 
ATOM      3  C   UNL     1       1.830   7.365  19.905  0.00  0.00    +0.000 C 
ATOM      4  O   UNL     1       1.558   6.675  20.891  0.00  0.00    +0.000 OA
ATOM      5  H   UNL     1       2.568   7.529  17.986  0.00  0.00    +0.000 HD
BRANCH   2  11
ATOM      6  C   UNL     1       4.195   5.163  18.644  0.00  0.00    +0.000 A 
ATOM      7  C   UNL     1       4.597   3.881  18.229  0.00  0.00    +0.000 A 
ATOM      8  C   UNL     1       3.696   3.003  17.634  0.00  0.00    +0.000 A 
ATOM      9  C   UNL     1       2.383   3.405  17.432  0.00  0.00    +0.000 A 
ATOM     10  C   UNL     1       1.968   4.679  17.834  0.00  0.00    +0.000 A 
ATOM     11  C   UNL     1       2.859   5.576  18.439  0.00  0.00    +0.000 A 
BRANCH   6  12
ATOM     12  O   UNL     1       5.237   5.883  19.175  0.00  0.00    +0.000 OA
BRANCH  12  14
ATOM     13  C   UNL     1       7.455   6.287  18.334  0.00  0.00    +0.000 C 
ATOM     14  C   UNL     1       6.554   5.345  19.113  0.00  0.00    +0.000 C 
ENDBRANCH  12  14
ENDBRANCH   6  12
ENDBRANCH   2  11
ENDBRANCH   1   3
BRANCH   1  15
ATOM     15  N   UNL     1       0.182   9.040  20.691  0.00  0.00    +0.000 NA
ATOM     16  H   UNL     1      -0.517   8.318  20.479  0.00  0.00    +0.000 HD
BRANCH  15  17
ATOM     17  S   UNL     1       0.213   9.407  22.336  0.00  0.00    +0.000 S 
ATOM     18  O   UNL     1      -0.702   8.485  22.966  0.00  0.00    +0.000 OA
ATOM     19  O   UNL     1       1.593   9.513  22.752  0.00  0.00    +0.000 OA
BRANCH  17  20
ATOM     20  C   UNL     1      -0.547  11.017  22.440  0.00  0.00    +0.000 A 
ATOM     21  C   UNL     1       0.053  12.167  21.870  0.00  0.00    +0.000 A 
ATOM     22  C   UNL     1      -0.572  13.431  21.978  0.00  0.00    +0.000 A 
ATOM     23  C   UNL     1      -1.764  13.496  22.671  0.00  0.00    +0.000 A 
ATOM     24  C   UNL     1      -2.324  12.363  23.245  0.00  0.00    +0.000 A 
ATOM     25  C   UNL     1      -1.745  11.117  23.153  0.00  0.00    +0.000 A 
ATOM     26  O   UNL     1      -3.516  12.619  23.899  0.00  0.00    +0.000 OA
ATOM     27  C   UNL     1      -3.687  13.989  23.687  0.00  0.00    +0.000 A 
ATOM     28  O   UNL     1      -4.659  14.610  24.094  0.00  0.00    +0.000 OA
ATOM     29  N   UNL     1      -2.634  14.520  22.962  0.00  0.00    +0.000 N 
ATOM     30  C   UNL     1      -2.592  15.888  22.544  0.00  0.00    +0.000 C 
ENDBRANCH  17  20
ENDBRANCH  15  17
ENDBRANCH   1  15
BRANCH   1  31
ATOM     31  C   UNL     1       1.435   9.596  18.580  0.00  0.00    +0.000 C 
BRANCH  31  32
ATOM     32  C   UNL     1       0.952  11.034  18.537  0.00  0.00    +0.000 A 
ATOM     33  C   UNL     1       1.802  12.151  18.618  0.00  0.00    +0.000 A 
ATOM     34  C   UNL     1       1.293  13.447  18.555  0.00  0.00    +0.000 A 
ATOM     35  C   UNL     1      -0.069  13.647  18.393  0.00  0.00    +0.000 A 
ATOM     36  C   UNL     1      -0.929  12.555  18.308  0.00  0.00    +0.000 A 
ATOM     37  C   UNL     1      -0.425  11.257  18.394  0.00  0.00    +0.000 A 
ENDBRANCH  31  32
ENDBRANCH   1  31
TORSDOF 9
ENDMDL
MODEL 4
REMARK VINA RESULT:      -7.7      3.684     10.540
REMARK  Name = 
REMARK  11 active torsions:
REMARK  status: ('A' for Active; 'I' for Inactive)
REMARK    1  A    between atoms: C_1  and  C_2
REMARK    2  A    between atoms: C_2  and  O_3
REMARK    3  A    between atoms: O_3  and  C_4
REMARK    4  A    between atoms: C_9  and  N_10
REMARK    5  A    between atoms: C_11  and  C_13
REMARK    6  A    between atoms: C_13  and  C_14
REMARK    7  A    between atoms: C_13  and  N_21
REMARK    8  A    between atoms: C_14  and  C_15
REMARK    9  A    between atoms: N_21  and  S_22
REMARK   10  A    between atoms: S_22  and  C_25
REMARK   11  A    between atoms: N_34  and  C_35
REMARK                            x       y       z     vdW  Elec       q    Type
REMARK                         _______ _______ _______ _____ _____    ______ ____
ROOT
ATOM      1  C   UNL     1       2.868   7.174  18.418  0.00  0.00    +0.000 C 
ENDROOT
BRANCH   1   3
ATOM      2  N   UNL     1       1.368   8.853  19.536  0.00  0.00    +0.000 N 
ATOM      3  C   UNL     1       2.152   8.562  18.430  0.00  0.00    +0.000 C 
ATOM      4  O   UNL     1       2.328   9.322  17.474  0.00  0.00    +0.000 OA
ATOM      5  H   UNL     1       1.234   8.133  20.226  0.00  0.00    +0.000 HD
BRANCH   2  11
ATOM      6  C   UNL     1      -0.522  10.314  18.961  0.00  0.00    +0.000 A 
ATOM      7  C   UNL     1      -1.236  11.506  19.174  0.00  0.00    +0.000 A 
ATOM      8  C   UNL     1      -0.891  12.376  20.205  0.00  0.00    +0.000 A 
ATOM      9  C   UNL     1       0.187  12.069  21.025  0.00  0.00    +0.000 A 
ATOM     10  C   UNL     1       0.910  10.890  20.823  0.00  0.00    +0.000 A 
ATOM     11  C   UNL     1       0.576   9.999  19.794  0.00  0.00    +0.000 A 
BRANCH   6  12
ATOM     12  O   UNL     1      -0.997   9.616  17.878  0.00  0.00    +0.000 OA
BRANCH  12  14
ATOM     13  C   UNL     1      -2.441  10.111  16.019  0.00  0.00    +0.000 C 
ATOM     14  C   UNL     1      -2.360   9.772  17.497  0.00  0.00    +0.000 C 
ENDBRANCH  12  14
ENDBRANCH   6  12
ENDBRANCH   2  11
ENDBRANCH   1   3
BRANCH   1  15
ATOM     15  N   UNL     1       4.212   7.346  17.788  0.00  0.00    +0.000 NA
ATOM     16  H   UNL     1       4.575   8.305  17.838  0.00  0.00    +0.000 HD
BRANCH  15  17
ATOM     17  S   UNL     1       5.425   6.209  18.066  0.00  0.00    +0.000 S 
ATOM     18  O   UNL     1       6.650   6.962  18.205  0.00  0.00    +0.000 OA
ATOM     19  O   UNL     1       4.971   5.301  19.093  0.00  0.00    +0.000 OA
BRANCH  17  20
ATOM     20  C   UNL     1       5.556   5.321  16.525  0.00  0.00    +0.000 A 
ATOM     21  C   UNL     1       4.767   4.176  16.250  0.00  0.00    +0.000 A 
ATOM     22  C   UNL     1       4.901   3.490  15.022  0.00  0.00    +0.000 A 
ATOM     23  C   UNL     1       5.836   3.965  14.125  0.00  0.00    +0.000 A 
ATOM     24  C   UNL     1       6.618   5.073  14.420  0.00  0.00    +0.000 A 
ATOM     25  C   UNL     1       6.507   5.768  15.604  0.00  0.00    +0.000 A 
ATOM     26  O   UNL     1       7.497   5.403  13.404  0.00  0.00    +0.000 OA
ATOM     27  C   UNL     1       7.209   4.441  12.434  0.00  0.00    +0.000 A 
ATOM     28  O   UNL     1       7.768   4.404  11.346  0.00  0.00    +0.000 OA
ATOM     29  N   UNL     1       6.224   3.572  12.865  0.00  0.00    +0.000 N 
ATOM     30  C   UNL     1       5.688   2.533  12.038  0.00  0.00    +0.000 C 
ENDBRANCH  17  20
ENDBRANCH  15  17
ENDBRANCH   1  15
BRANCH   1  31
ATOM     31  C   UNL     1       2.076   6.014  17.806  0.00  0.00    +0.000 C 
BRANCH  31  32
ATOM     32  C   UNL     1       1.747   4.827  18.692  0.00  0.00    +0.000 A 
ATOM     33  C   UNL     1       1.691   4.885  20.095  0.00  0.00    +0.000 A 
ATOM     34  C   UNL     1       1.365   3.758  20.850  0.00  0.00    +0.000 A 
ATOM     35  C   UNL     1       1.073   2.563  20.212  0.00  0.00    +0.000 A 
ATOM     36  C   UNL     1       1.119   2.483  18.823  0.00  0.00    +0.000 A 
ATOM     37  C   UNL     1       1.467   3.603  18.068  0.00  0.00    +0.000 A 
ENDBRANCH  31  32
ENDBRANCH   1  31
TORSDOF 9
ENDMDL
MODEL 5
REMARK VINA RESULT:      -7.7      1.126      1.408
REMARK  Name = 
REMARK  11 active torsions:
REMARK  status: ('A' for Active; 'I' for Inactive)
REMARK    1  A    between atoms: C_1  and  C_2
REMARK    2  A    between atoms: C_2  and  O_3
REMARK    3  A    between atoms: O_3  and  C_4
REMARK    4  A    between atoms: C_9  and  N_10
REMARK    5  A    between atoms: C_11  and  C_13
REMARK    6  A    between atoms: C_13  and  C_14
REMARK    7  A    between atoms: C_13  and  N_21
REMARK    8  A    between atoms: C_14  and  C_15
REMARK    9  A    between atoms: N_21  and  S_22
REMARK   10  A    between atoms: S_22  and  C_25
REMARK   11  A    between atoms: N_34  and  C_35
REMARK                            x       y       z     vdW  Elec       q    Type
REMARK                         _______ _______ _______ _____ _____    ______ ____
ROOT
ATOM      1  C   UNL     1       0.207  10.304  18.585  0.00  0.00    +0.000 C 
ENDROOT
BRANCH   1   3
ATOM      2  N   UNL     1       1.619   8.225  18.641  0.00  0.00    +0.000 N 
ATOM      3  C   UNL     1       1.494   9.522  18.168  0.00  0.00    +0.000 C 
ATOM      4  O   UNL     1       2.313  10.087  17.439  0.00  0.00    +0.000 OA
ATOM      5  H   UNL     1       0.926   7.886  19.288  0.00  0.00    +0.000 HD
BRANCH   2  11
ATOM      6  C   UNL     1       2.919   6.289  19.417  0.00  0.00    +0.000 A 
ATOM      7  C   UNL     1       4.039   5.452  19.275  0.00  0.00    +0.000 A 
ATOM      8  C   UNL     1       4.914   5.596  18.203  0.00  0.00    +0.000 A 
ATOM      9  C   UNL     1       4.687   6.596  17.266  0.00  0.00    +0.000 A 
ATOM     10  C   UNL     1       3.581   7.441  17.396  0.00  0.00    +0.000 A 
ATOM     11  C   UNL     1       2.685   7.308  18.465  0.00  0.00    +0.000 A 
BRANCH   6  12
ATOM     12  O   UNL     1       2.204   6.007  20.554  0.00  0.00    +0.000 OA
BRANCH  12  14
ATOM     13  C   UNL     1       0.912   4.008  20.198  0.00  0.00    +0.000 C 
ATOM     14  C   UNL     1       2.057   4.650  20.961  0.00  0.00    +0.000 C 
ENDBRANCH  12  14
ENDBRANCH   6  12
ENDBRANCH   2  11
ENDBRANCH   1   3
BRANCH   1  15
ATOM     15  N   UNL     1      -0.003  10.110  20.052  0.00  0.00    +0.000 NA
ATOM     16  H   UNL     1       0.005   9.126  20.347  0.00  0.00    +0.000 HD
BRANCH  15  17
ATOM     17  S   UNL     1       0.807  11.092  21.157  0.00  0.00    +0.000 S 
ATOM     18  O   UNL     1       1.323  10.205  22.174  0.00  0.00    +0.000 OA
ATOM     19  O   UNL     1       1.670  11.989  20.422  0.00  0.00    +0.000 OA
BRANCH  17  20
ATOM     20  C   UNL     1      -0.488  12.042  21.931  0.00  0.00    +0.000 A 
ATOM     21  C   UNL     1      -0.490  13.459  21.917  0.00  0.00    +0.000 A 
ATOM     22  C   UNL     1      -1.527  14.183  22.547  0.00  0.00    +0.000 A 
ATOM     23  C   UNL     1      -2.513  13.458  23.186  0.00  0.00    +0.000 A 
ATOM     24  C   UNL     1      -2.482  12.071  23.213  0.00  0.00    +0.000 A 
ATOM     25  C   UNL     1      -1.490  11.336  22.603  0.00  0.00    +0.000 A 
ATOM     26  O   UNL     1      -3.549  11.517  23.898  0.00  0.00    +0.000 OA
ATOM     27  C   UNL     1      -4.272  12.646  24.291  0.00  0.00    +0.000 A 
ATOM     28  O   UNL     1      -5.323  12.580  24.913  0.00  0.00    +0.000 OA
ATOM     29  N   UNL     1      -3.649  13.810  23.877  0.00  0.00    +0.000 N 
ATOM     30  C   UNL     1      -4.214  15.108  24.085  0.00  0.00    +0.000 C 
ENDBRANCH  17  20
ENDBRANCH  15  17
ENDBRANCH   1  15
BRANCH   1  31
ATOM     31  C   UNL     1      -1.054  10.009  17.767  0.00  0.00    +0.000 C 
BRANCH  31  32
ATOM     32  C   UNL     1      -2.349  10.683  18.182  0.00  0.00    +0.000 A 
ATOM     33  C   UNL     1      -2.418  11.784  19.052  0.00  0.00    +0.000 A 
ATOM     34  C   UNL     1      -3.642  12.368  19.378  0.00  0.00    +0.000 A 
ATOM     35  C   UNL     1      -4.811  11.871  18.825  0.00  0.00    +0.000 A 
ATOM     36  C   UNL     1      -4.766  10.783  17.957  0.00  0.00    +0.000 A 
ATOM     37  C   UNL     1      -3.546  10.184  17.648  0.00  0.00    +0.000 A 
ENDBRANCH  31  32
ENDBRANCH   1  31
TORSDOF 9
ENDMDL
MODEL 6
REMARK VINA RESULT:      -7.6      2.013      8.667
REMARK  Name = 
REMARK  11 active torsions:
REMARK  status: ('A' for Active; 'I' for Inactive)
REMARK    1  A    between atoms: C_1  and  C_2
REMARK    2  A    between atoms: C_2  and  O_3
REMARK    3  A    between atoms: O_3  and  C_4
REMARK    4  A    between atoms: C_9  and  N_10
REMARK    5  A    between atoms: C_11  and  C_13
REMARK    6  A    between atoms: C_13  and  C_14
REMARK    7  A    between atoms: C_13  and  N_21
REMARK    8  A    between atoms: C_14  and  C_15
REMARK    9  A    between atoms: N_21  and  S_22
REMARK   10  A    between atoms: S_22  and  C_25
REMARK   11  A    between atoms: N_34  and  C_35
REMARK                            x       y       z     vdW  Elec       q    Type
REMARK                         _______ _______ _______ _____ _____    ______ ____
ROOT
ATOM      1  C   UNL     1      -0.652  10.399  19.759  0.00  0.00    +0.000 C 
ENDROOT
BRANCH   1   3
ATOM      2  N   UNL     1      -1.583  11.638  21.737  0.00  0.00    +0.000 N 
ATOM      3  C   UNL     1      -0.930  11.735  20.518  0.00  0.00    +0.000 C 
ATOM      4  O   UNL     1      -0.548  12.791  20.007  0.00  0.00    +0.000 OA
ATOM      5  H   UNL     1      -1.915  10.733  22.028  0.00  0.00    +0.000 HD
BRANCH   2  11
ATOM      6  C   UNL     1      -3.378  12.945  22.791  0.00  0.00    +0.000 A 
ATOM      7  C   UNL     1      -3.771  14.036  23.585  0.00  0.00    +0.000 A 
ATOM      8  C   UNL     1      -2.827  14.843  24.215  0.00  0.00    +0.000 A 
ATOM      9  C   UNL     1      -1.476  14.577  24.042  0.00  0.00    +0.000 A 
ATOM     10  C   UNL     1      -1.069  13.499  23.250  0.00  0.00    +0.000 A 
ATOM     11  C   UNL     1      -2.002  12.671  22.611  0.00  0.00    +0.000 A 
BRANCH   6  12
ATOM     12  O   UNL     1      -4.454  12.299  22.233  0.00  0.00    +0.000 OA
BRANCH  12  14
ATOM     13  C   UNL     1      -6.539  12.151  21.041  0.00  0.00    +0.000 C 
ATOM     14  C   UNL     1      -5.390  13.049  21.466  0.00  0.00    +0.000 C 
ENDBRANCH  12  14
ENDBRANCH   6  12
ENDBRANCH   2  11
ENDBRANCH   1   3
BRANCH   1  15
ATOM     15  N   UNL     1       0.671   9.870  20.211  0.00  0.00    +0.000 NA
ATOM     16  H   UNL     1       1.355  10.601  20.441  0.00  0.00    +0.000 HD
BRANCH  15  17
ATOM     17  S   UNL     1       0.738   8.593  21.310  0.00  0.00    +0.000 S 
ATOM     18  O   UNL     1       1.624   9.025  22.366  0.00  0.00    +0.000 OA
ATOM     19  O   UNL     1      -0.612   8.155  21.581  0.00  0.00    +0.000 OA
BRANCH  17  20
ATOM     20  C   UNL     1       1.599   7.303  20.431  0.00  0.00    +0.000 A 
ATOM     21  C   UNL     1       1.592   5.958  20.878  0.00  0.00    +0.000 A 
ATOM     22  C   UNL     1       2.292   4.960  20.163  0.00  0.00    +0.000 A 
ATOM     23  C   UNL     1       2.989   5.352  19.038  0.00  0.00    +0.000 A 
ATOM     24  C   UNL     1       3.005   6.678  18.628  0.00  0.00    +0.000 A 
ATOM     25  C   UNL     1       2.329   7.672  19.298  0.00  0.00    +0.000 A 
ATOM     26  O   UNL     1       3.754   6.882  17.483  0.00  0.00    +0.000 OA
ATOM     27  C   UNL     1       4.199   5.594  17.180  0.00  0.00    +0.000 A 
ATOM     28  O   UNL     1       4.886   5.339  16.201  0.00  0.00    +0.000 OA
ATOM     29  N   UNL     1       3.753   4.676  18.114  0.00  0.00    +0.000 N 
ATOM     30  C   UNL     1       4.004   3.272  18.005  0.00  0.00    +0.000 C 
ENDBRANCH  17  20
ENDBRANCH  15  17
ENDBRANCH   1  15
BRANCH   1  31
ATOM     31  C   UNL     1      -0.771  10.455  18.233  0.00  0.00    +0.000 C 
BRANCH  31  32
ATOM     32  C   UNL     1      -2.137  10.737  17.632  0.00  0.00    +0.000 A 
ATOM     33  C   UNL     1      -2.446  10.570  16.272  0.00  0.00    +0.000 A 
ATOM     34  C   UNL     1      -3.728  10.832  15.788  0.00  0.00    +0.000 A 
ATOM     35  C   UNL     1      -4.722  11.246  16.660  0.00  0.00    +0.000 A 
ATOM     36  C   UNL     1      -4.438  11.415  18.013  0.00  0.00    +0.000 A 
ATOM     37  C   UNL     1      -3.152  11.176  18.495  0.00  0.00    +0.000 A 
ENDBRANCH  31  32
ENDBRANCH   1  31
TORSDOF 9
ENDMDL
MODEL 7
REMARK VINA RESULT:      -7.6      2.976      8.382
REMARK  Name = 
REMARK  11 active torsions:
REMARK  status: ('A' for Active; 'I' for Inactive)
REMARK    1  A    between atoms: C_1  and  C_2
REMARK    2  A    between atoms: C_2  and  O_3
REMARK    3  A    between atoms: O_3  and  C_4
REMARK    4  A    between atoms: C_9  and  N_10
REMARK    5  A    between atoms: C_11  and  C_13
REMARK    6  A    between atoms: C_13  and  C_14
REMARK    7  A    between atoms: C_13  and  N_21
REMARK    8  A    between atoms: C_14  and  C_15
REMARK    9  A    between atoms: N_21  and  S_22
REMARK   10  A    between atoms: S_22  and  C_25
REMARK   11  A    between atoms: N_34  and  C_35
REMARK                            x       y       z     vdW  Elec       q    Type
REMARK                         _______ _______ _______ _____ _____    ______ ____
ROOT
ATOM      1  C   UNL     1      -0.283  10.672  19.608  0.00  0.00    +0.000 C 
ENDROOT
BRANCH   1   3
ATOM      2  N   UNL     1       0.409  12.949  18.797  0.00  0.00    +0.000 N 
ATOM      3  C   UNL     1      -0.211  12.221  19.802  0.00  0.00    +0.000 C 
ATOM      4  O   UNL     1      -0.713  12.710  20.816  0.00  0.00    +0.000 OA
ATOM      5  H   UNL     1       0.849  12.443  18.046  0.00  0.00    +0.000 HD
BRANCH   2  11
ATOM      6  C   UNL     1       1.981  14.837  18.764  0.00  0.00    +0.000 A 
ATOM      7  C   UNL     1       2.203  16.225  18.791  0.00  0.00    +0.000 A 
ATOM      8  C   UNL     1       1.140  17.123  18.763  0.00  0.00    +0.000 A 
ATOM      9  C   UNL     1      -0.161  16.640  18.725  0.00  0.00    +0.000 A 
ATOM     10  C   UNL     1      -0.399  15.263  18.704  0.00  0.00    +0.000 A 
ATOM     11  C   UNL     1       0.658  14.342  18.726  0.00  0.00    +0.000 A 
BRANCH   6  12
ATOM     12  O   UNL     1       3.154  14.126  18.833  0.00  0.00    +0.000 OA
BRANCH  12  14
ATOM     13  C   UNL     1       5.321  14.643  17.922  0.00  0.00    +0.000 C 
ATOM     14  C   UNL     1       4.371  14.820  19.094  0.00  0.00    +0.000 C 
ENDBRANCH  12  14
ENDBRANCH   6  12
ENDBRANCH   2  11
ENDBRANCH   1   3
BRANCH   1  15
ATOM     15  N   UNL     1       0.991  10.078  20.114  0.00  0.00    +0.000 NA
ATOM     16  H   UNL     1       1.667  10.771  20.457  0.00  0.00    +0.000 HD
BRANCH  15  17
ATOM     17  S   UNL     1       0.951   8.713  21.103  0.00  0.00    +0.000 S 
ATOM     18  O   UNL     1       1.818   9.007  22.220  0.00  0.00    +0.000 OA
ATOM     19  O   UNL     1      -0.429   8.329  21.292  0.00  0.00    +0.000 OA
BRANCH  17  20
ATOM     20  C   UNL     1       1.776   7.454  20.147  0.00  0.00    +0.000 A 
ATOM     21  C   UNL     1       2.318   7.721  18.865  0.00  0.00    +0.000 A 
ATOM     22  C   UNL     1       2.959   6.699  18.129  0.00  0.00    +0.000 A 
ATOM     23  C   UNL     1       3.013   5.442  18.698  0.00  0.00    +0.000 A 
ATOM     24  C   UNL     1       2.455   5.192  19.943  0.00  0.00    +0.000 A 
ATOM     25  C   UNL     1       1.830   6.167  20.688  0.00  0.00    +0.000 A 
ATOM     26  O   UNL     1       2.605   3.879  20.351  0.00  0.00    +0.000 OA
ATOM     27  C   UNL     1       3.313   3.313  19.289  0.00  0.00    +0.000 A 
ATOM     28  O   UNL     1       3.672   2.144  19.276  0.00  0.00    +0.000 OA
ATOM     29  N   UNL     1       3.549   4.242  18.292  0.00  0.00    +0.000 N 
ATOM     30  C   UNL     1       4.317   3.946  17.121  0.00  0.00    +0.000 C 
ENDBRANCH  17  20
ENDBRANCH  15  17
ENDBRANCH   1  15
BRANCH   1  31
ATOM     31  C   UNL     1      -0.639  10.187  18.199  0.00  0.00    +0.000 C 
BRANCH  31  32
ATOM     32  C   UNL     1      -2.003  10.549  17.642  0.00  0.00    +0.000 A 
ATOM     33  C   UNL     1      -2.986  11.249  18.362  0.00  0.00    +0.000 A 
ATOM     34  C   UNL     1      -4.214  11.566  17.782  0.00  0.00    +0.000 A 
ATOM     35  C   UNL     1      -4.471  11.203  16.470  0.00  0.00    +0.000 A 
ATOM     36  C   UNL     1      -3.510  10.511  15.736  0.00  0.00    +0.000 A 
ATOM     37  C   UNL     1      -2.290  10.174  16.321  0.00  0.00    +0.000 A 
ENDBRANCH  31  32
ENDBRANCH   1  31
TORSDOF 9
ENDMDL
MODEL 8
REMARK VINA RESULT:      -7.6      1.702      8.862
REMARK  Name = 
REMARK  11 active torsions:
REMARK  status: ('A' for Active; 'I' for Inactive)
REMARK    1  A    between atoms: C_1  and  C_2
REMARK    2  A    between atoms: C_2  and  O_3
REMARK    3  A    between atoms: O_3  and  C_4
REMARK    4  A    between atoms: C_9  and  N_10
REMARK    5  A    between atoms: C_11  and  C_13
REMARK    6  A    between atoms: C_13  and  C_14
REMARK    7  A    between atoms: C_13  and  N_21
REMARK    8  A    between atoms: C_14  and  C_15
REMARK    9  A    between atoms: N_21  and  S_22
REMARK   10  A    between atoms: S_22  and  C_25
REMARK   11  A    between atoms: N_34  and  C_35
REMARK                            x       y       z     vdW  Elec       q    Type
REMARK                         _______ _______ _______ _____ _____    ______ ____
ROOT
ATOM      1  C   UNL     1      -0.771  10.874  20.549  0.00  0.00    +0.000 C 
ENDROOT
BRANCH   1   3
ATOM      2  N   UNL     1      -2.248  12.556  21.692  0.00  0.00    +0.000 N 
ATOM      3  C   UNL     1      -1.158  11.707  21.812  0.00  0.00    +0.000 C 
ATOM      4  O   UNL     1      -0.492  11.560  22.839  0.00  0.00    +0.000 OA
ATOM      5  H   UNL     1      -2.677  12.653  20.787  0.00  0.00    +0.000 HD
BRANCH   2  11
ATOM      6  C   UNL     1      -4.155  13.376  23.007  0.00  0.00    +0.000 A 
ATOM      7  C   UNL     1      -4.698  14.336  23.878  0.00  0.00    +0.000 A 
ATOM      8  C   UNL     1      -3.909  15.354  24.407  0.00  0.00    +0.000 A 
ATOM      9  C   UNL     1      -2.569  15.433  24.054  0.00  0.00    +0.000 A 
ATOM     10  C   UNL     1      -2.015  14.489  23.183  0.00  0.00    +0.000 A 
ATOM     11  C   UNL     1      -2.791  13.454  22.644  0.00  0.00    +0.000 A 
BRANCH   6  12
ATOM     12  O   UNL     1      -5.102  12.481  22.572  0.00  0.00    +0.000 OA
BRANCH  12  14
ATOM     13  C   UNL     1      -7.333  12.236  21.706  0.00  0.00    +0.000 C 
ATOM     14  C   UNL     1      -6.475  12.732  22.856  0.00  0.00    +0.000 C 
ENDBRANCH  12  14
ENDBRANCH   6  12
ENDBRANCH   2  11
ENDBRANCH   1   3
BRANCH   1  15
ATOM     15  N   UNL     1       0.580  10.277  20.778  0.00  0.00    +0.000 NA
ATOM     16  H   UNL     1       1.267  10.936  21.161  0.00  0.00    +0.000 HD
BRANCH  15  17
ATOM     17  S   UNL     1       0.719   8.755  21.491  0.00  0.00    +0.000 S 
ATOM     18  O   UNL     1       1.573   8.933  22.642  0.00  0.00    +0.000 OA
ATOM     19  O   UNL     1      -0.603   8.184  21.606  0.00  0.00    +0.000 OA
BRANCH  17  20
ATOM     20  C   UNL     1       1.660   7.803  20.312  0.00  0.00    +0.000 A 
ATOM     21  C   UNL     1       2.053   8.338  19.060  0.00  0.00    +0.000 A 
ATOM     22  C   UNL     1       2.791   7.554  18.144  0.00  0.00    +0.000 A 
ATOM     23  C   UNL     1       3.088   6.257  18.510  0.00  0.00    +0.000 A 
ATOM     24  C   UNL     1       2.673   5.741  19.730  0.00  0.00    +0.000 A 
ATOM     25  C   UNL     1       1.960   6.480  20.647  0.00  0.00    +0.000 A 
ATOM     26  O   UNL     1       3.062   4.428  19.924  0.00  0.00    +0.000 OA
ATOM     27  C   UNL     1       3.768   4.147  18.753  0.00  0.00    +0.000 A 
ATOM     28  O   UNL     1       4.308   3.069  18.542  0.00  0.00    +0.000 OA
ATOM     29  N   UNL     1       3.777   5.235  17.899  0.00  0.00    +0.000 N 
ATOM     30  C   UNL     1       4.491   5.243  16.658  0.00  0.00    +0.000 C 
ENDBRANCH  17  20
ENDBRANCH  15  17
ENDBRANCH   1  15
BRANCH   1  31
ATOM     31  C   UNL     1      -0.870  11.603  19.205  0.00  0.00    +0.000 C 
BRANCH  31  32
ATOM     32  C   UNL     1      -1.956  11.173  18.236  0.00  0.00    +0.000 A 
ATOM     33  C   UNL     1      -3.276  11.655  18.270  0.00  0.00    +0.000 A 
ATOM     34  C   UNL     1      -4.221  11.230  17.338  0.00  0.00    +0.000 A 
ATOM     35  C   UNL     1      -3.857  10.331  16.348  0.00  0.00    +0.000 A 
ATOM     36  C   UNL     1      -2.554   9.842  16.293  0.00  0.00    +0.000 A 
ATOM     37  C   UNL     1      -1.613  10.249  17.239  0.00  0.00    +0.000 A 
ENDBRANCH  31  32
ENDBRANCH   1  31
TORSDOF 9
ENDMDL
MODEL 9
REMARK VINA RESULT:      -7.6      1.450      5.813
REMARK  Name = 
REMARK  11 active torsions:
REMARK  status: ('A' for Active; 'I' for Inactive)
REMARK    1  A    between atoms: C_1  and  C_2
REMARK    2  A    between atoms: C_2  and  O_3
REMARK    3  A    between atoms: O_3  and  C_4
REMARK    4  A    between atoms: C_9  and  N_10
REMARK    5  A    between atoms: C_11  and  C_13
REMARK    6  A    between atoms: C_13  and  C_14
REMARK    7  A    between atoms: C_13  and  N_21
REMARK    8  A    between atoms: C_14  and  C_15
REMARK    9  A    between atoms: N_21  and  S_22
REMARK   10  A    between atoms: S_22  and  C_25
REMARK   11  A    between atoms: N_34  and  C_35
REMARK                            x       y       z     vdW  Elec       q    Type
REMARK                         _______ _______ _______ _____ _____    ______ ____
ROOT
ATOM      1  C   UNL     1       0.829   9.364  19.638  0.00  0.00    +0.000 C 
ENDROOT
BRANCH   1   3
ATOM      2  N   UNL     1      -1.297   9.773  18.361  0.00  0.00    +0.000 N 
ATOM      3  C   UNL     1      -0.095  10.306  18.801  0.00  0.00    +0.000 C 
ATOM      4  O   UNL     1       0.282  11.461  18.588  0.00  0.00    +0.000 OA
ATOM      5  H   UNL     1      -1.474   8.797  18.529  0.00  0.00    +0.000 HD
BRANCH   2  11
ATOM      6  C   UNL     1      -3.266  11.226  18.130  0.00  0.00    +0.000 A 
ATOM      7  C   UNL     1      -4.307  11.731  17.332  0.00  0.00    +0.000 A 
ATOM      8  C   UNL     1      -4.392  11.418  15.978  0.00  0.00    +0.000 A 
ATOM      9  C   UNL     1      -3.443  10.579  15.410  0.00  0.00    +0.000 A 
ATOM     10  C   UNL     1      -2.404  10.064  16.191  0.00  0.00    +0.000 A 
ATOM     11  C   UNL     1      -2.298  10.371  17.555  0.00  0.00    +0.000 A 
BRANCH   6  12
ATOM     12  O   UNL     1      -3.380  11.622  19.439  0.00  0.00    +0.000 OA
BRANCH  12  14
ATOM     13  C   UNL     1      -5.364  12.293  20.624  0.00  0.00    +0.000 C 
ATOM     14  C   UNL     1      -4.203  12.742  19.754  0.00  0.00    +0.000 C 
ENDBRANCH  12  14
ENDBRANCH   6  12
ENDBRANCH   2  11
ENDBRANCH   1   3
BRANCH   1  15
ATOM     15  N   UNL     1       1.163  10.056  20.920  0.00  0.00    +0.000 NA
ATOM     16  H   UNL     1       1.376  11.055  20.811  0.00  0.00    +0.000 HD
BRANCH  15  17
ATOM     17  S   UNL     1       0.238   9.770  22.300  0.00  0.00    +0.000 S 
ATOM     18  O   UNL     1      -0.656   8.687  21.961  0.00  0.00    +0.000 OA
ATOM     19  O   UNL     1       1.127   9.694  23.436  0.00  0.00    +0.000 OA
BRANCH  17  20
ATOM     20  C   UNL     1      -0.778  11.226  22.457  0.00  0.00    +0.000 A 
ATOM     21  C   UNL     1      -0.375  12.482  21.938  0.00  0.00    +0.000 A 
ATOM     22  C   UNL     1      -1.200  13.619  22.087  0.00  0.00    +0.000 A 
ATOM     23  C   UNL     1      -2.389  13.459  22.770  0.00  0.00    +0.000 A 
ATOM     24  C   UNL     1      -2.756  12.228  23.294  0.00  0.00    +0.000 A 
ATOM     25  C   UNL     1      -1.979  11.100  23.160  0.00  0.00    +0.000 A 
ATOM     26  O   UNL     1      -3.978  12.258  23.944  0.00  0.00    +0.000 OA
ATOM     27  C   UNL     1      -4.371  13.588  23.783  0.00  0.00    +0.000 A 
ATOM     28  O   UNL     1      -5.434  14.024  24.203  0.00  0.00    +0.000 OA
ATOM     29  N   UNL     1      -3.418  14.314  23.091  0.00  0.00    +0.000 N 
ATOM     30  C   UNL     1      -3.600  15.685  22.725  0.00  0.00    +0.000 C 
ENDBRANCH  17  20
ENDBRANCH  15  17
ENDBRANCH   1  15
BRANCH   1  31
ATOM     31  C   UNL     1       2.070   8.827  18.919  0.00  0.00    +0.000 C 
BRANCH  31  32
ATOM     32  C   UNL     1       2.344   7.336  18.984  0.00  0.00    +0.000 A 
ATOM     33  C   UNL     1       2.957   6.604  17.953  0.00  0.00    +0.000 A 
ATOM     34  C   UNL     1       3.196   5.236  18.085  0.00  0.00    +0.000 A 
ATOM     35  C   UNL     1       2.841   4.585  19.255  0.00  0.00    +0.000 A 
ATOM     36  C   UNL     1       2.236   5.291  20.292  0.00  0.00    +0.000 A 
ATOM     37  C   UNL     1       1.976   6.654  20.153  0.00  0.00    +0.000 A 
ENDBRANCH  31  32
ENDBRANCH   1  31
TORSDOF 9
ENDMDL
