MODEL 1
REMARK VINA RESULT:      -7.9      0.000      0.000
REMARK  Name = 
REMARK  3 active torsions:
REMARK  status: ('A' for Active; 'I' for Inactive)
REMARK    1  A    between atoms: C_2  and  C_3
REMARK    2  A    between atoms: C_2  and  C_18
REMARK    3  A    between atoms: N_7  and  C_8
REMARK                            x       y       z     vdW  Elec       q    Type
REMARK                         _______ _______ _______ _____ _____    ______ ____
ROOT
ATOM      1  C   UNL     1       2.550   7.251  19.160  0.00  0.00    +0.000 A 
ATOM      2  C   UNL     1       2.666   7.877  17.921  0.00  0.00    +0.000 A 
ATOM      3  C   UNL     1       1.988   9.079  17.691  0.00  0.00    +0.000 A 
ATOM      4  C   UNL     1       1.209   9.635  18.702  0.00  0.00    +0.000 A 
ATOM      5  N   UNL     1       0.597  10.878  18.467  0.00  0.00    +0.000 N 
ATOM      6  N   UNL     1       1.109   9.034  19.910  0.00  0.00    +0.000 NA
ATOM      7  C   UNL     1       1.788   7.883  20.125  0.00  0.00    +0.000 A 
ATOM      8  H   UNL     1       0.129  10.915  17.566  0.00  0.00    +0.000 HD
ENDROOT
BRANCH   5   9
ATOM      9  C   UNL     1       0.030  11.775  19.400  0.00  0.00    +0.000 A 
ATOM     10  C   UNL     1       0.776  12.757  20.063  0.00  0.00    +0.000 A 
ATOM     11  C   UNL     1       0.166  13.669  20.927  0.00  0.00    +0.000 A 
ATOM     12  C   UNL     1      -1.210  13.624  21.111  0.00  0.00    +0.000 A 
ATOM     13  F   UNL     1      -1.794  14.509  21.927  0.00  0.00    +0.000 F 
ATOM     14  C   UNL     1      -1.986  12.683  20.448  0.00  0.00    +0.000 A 
ATOM     15  C   UNL     1      -1.361  11.775  19.599  0.00  0.00    +0.000 A 
ATOM     16  F   UNL     1      -2.117  10.875  18.949  0.00  0.00    +0.000 F 
ENDBRANCH   5   9
BRANCH   1  18
ATOM     17  O   UNL     1       4.422   5.892  19.085  0.00  0.00    +0.000 OA
ATOM     18  C   UNL     1       3.237   5.963  19.399  0.00  0.00    +0.000 C 
BRANCH  18  19
ATOM     19  C   UNL     1       2.506   4.761  19.904  0.00  0.00    +0.000 A 
ATOM     20  C   UNL     1       2.660   4.383  21.253  0.00  0.00    +0.000 A 
ATOM     21  C   UNL     1       1.969   3.289  21.776  0.00  0.00    +0.000 A 
ATOM     22  C   UNL     1       1.082   2.581  20.973  0.00  0.00    +0.000 A 
ATOM     23  C   UNL     1       0.900   2.956  19.642  0.00  0.00    +0.000 A 
ATOM     24  C   UNL     1       1.613   4.034  19.100  0.00  0.00    +0.000 A 
ATOM     25 CL   UNL     1       1.349   4.350  17.421  0.00  0.00    +0.000 Cl
ENDBRANCH  18  19
ENDBRANCH   1  18
TORSDOF 3
ENDMDL
MODEL 2
REMARK VINA RESULT:      -7.8      0.868      1.077
REMARK  Name = 
REMARK  3 active torsions:
REMARK  status: ('A' for Active; 'I' for Inactive)
REMARK    1  A    between atoms: C_2  and  C_3
REMARK    2  A    between atoms: C_2  and  C_18
REMARK    3  A    between atoms: N_7  and  C_8
REMARK                            x       y       z     vdW  Elec       q    Type
REMARK                         _______ _______ _______ _____ _____    ______ ____
ROOT
ATOM      1  C   UNL     1       2.635   7.095  19.120  0.00  0.00    +0.000 A 
ATOM      2  C   UNL     1       2.790   7.711  17.879  0.00  0.00    +0.000 A 
ATOM      3  C   UNL     1       2.162   8.937  17.635  0.00  0.00    +0.000 A 
ATOM      4  C   UNL     1       1.392   9.526  18.635  0.00  0.00    +0.000 A 
ATOM      5  N   UNL     1       0.831  10.791  18.387  0.00  0.00    +0.000 N 
ATOM      6  N   UNL     1       1.255   8.936  19.844  0.00  0.00    +0.000 NA
ATOM      7  C   UNL     1       1.887   7.762  20.073  0.00  0.00    +0.000 A 
ATOM      8  H   UNL     1       0.375  10.841  17.479  0.00  0.00    +0.000 HD
ENDROOT
BRANCH   5   9
ATOM      9  C   UNL     1       0.287  11.713  19.309  0.00  0.00    +0.000 A 
ATOM     10  C   UNL     1       1.026  12.772  19.853  0.00  0.00    +0.000 A 
ATOM     11  C   UNL     1       0.434  13.702  20.709  0.00  0.00    +0.000 A 
ATOM     12  C   UNL     1      -0.920  13.599  21.003  0.00  0.00    +0.000 A 
ATOM     13  F   UNL     1      -1.488  14.502  21.810  0.00  0.00    +0.000 F 
ATOM     14  C   UNL     1      -1.691  12.581  20.458  0.00  0.00    +0.000 A 
ATOM     15  C   UNL     1      -1.082  11.656  19.616  0.00  0.00    +0.000 A 
ATOM     16  F   UNL     1      -1.834  10.680  19.080  0.00  0.00    +0.000 F 
ENDBRANCH   5   9
BRANCH   1  18
ATOM     17  O   UNL     1       4.465   5.782  19.653  0.00  0.00    +0.000 OA
ATOM     18  C   UNL     1       3.269   5.783  19.373  0.00  0.00    +0.000 C 
BRANCH  18  19
ATOM     19  C   UNL     1       2.523   4.500  19.199  0.00  0.00    +0.000 A 
ATOM     20  C   UNL     1       1.519   4.161  20.128  0.00  0.00    +0.000 A 
ATOM     21  C   UNL     1       0.772   2.990  19.984  0.00  0.00    +0.000 A 
ATOM     22  C   UNL     1       0.987   2.161  18.888  0.00  0.00    +0.000 A 
ATOM     23  C   UNL     1       1.961   2.495  17.947  0.00  0.00    +0.000 A 
ATOM     24  C   UNL     1       2.736   3.652  18.100  0.00  0.00    +0.000 A 
ATOM     25 CL   UNL     1       3.956   3.912  16.903  0.00  0.00    +0.000 Cl
ENDBRANCH  18  19
ENDBRANCH   1  18
TORSDOF 3
ENDMDL
MODEL 3
REMARK VINA RESULT:      -7.8      3.232      4.148
REMARK  Name = 
REMARK  3 active torsions:
REMARK  status: ('A' for Active; 'I' for Inactive)
REMARK    1  A    between atoms: C_2  and  C_3
REMARK    2  A    between atoms: C_2  and  C_18
REMARK    3  A    between atoms: N_7  and  C_8
REMARK                            x       y       z     vdW  Elec       q    Type
REMARK                         _______ _______ _______ _____ _____    ______ ____
ROOT
ATOM      1  C   UNL     1       3.633   6.000  18.657  0.00  0.00    +0.000 A 
ATOM      2  C   UNL     1       3.682   7.043  17.735  0.00  0.00    +0.000 A 
ATOM      3  C   UNL     1       2.847   8.153  17.905  0.00  0.00    +0.000 A 
ATOM      4  C   UNL     1       1.979   8.201  18.993  0.00  0.00    +0.000 A 
ATOM      5  N   UNL     1       1.204   9.358  19.178  0.00  0.00    +0.000 N 
ATOM      6  N   UNL     1       1.943   7.194  19.896  0.00  0.00    +0.000 NA
ATOM      7  C   UNL     1       2.773   6.138  19.731  0.00  0.00    +0.000 A 
ATOM      8  H   UNL     1       0.751   9.662  18.320  0.00  0.00    +0.000 HD
ENDROOT
BRANCH   5   9
ATOM      9  C   UNL     1       0.500   9.776  20.330  0.00  0.00    +0.000 A 
ATOM     10  C   UNL     1       0.709   9.215  21.596  0.00  0.00    +0.000 A 
ATOM     11  C   UNL     1       0.042   9.702  22.722  0.00  0.00    +0.000 A 
ATOM     12  C   UNL     1      -0.820  10.783  22.595  0.00  0.00    +0.000 A 
ATOM     13  F   UNL     1      -1.443  11.259  23.678  0.00  0.00    +0.000 F 
ATOM     14  C   UNL     1      -1.029  11.385  21.361  0.00  0.00    +0.000 A 
ATOM     15  C   UNL     1      -0.365  10.880  20.247  0.00  0.00    +0.000 A 
ATOM     16  F   UNL     1      -0.560  11.473  19.057  0.00  0.00    +0.000 F 
ENDBRANCH   5   9
BRANCH   1  18
ATOM     17  O   UNL     1       4.514   3.983  19.373  0.00  0.00    +0.000 OA
ATOM     18  C   UNL     1       4.489   4.809  18.465  0.00  0.00    +0.000 C 
BRANCH  18  19
ATOM     19  C   UNL     1       5.368   4.655  17.266  0.00  0.00    +0.000 A 
ATOM     20  C   UNL     1       4.814   4.151  16.071  0.00  0.00    +0.000 A 
ATOM     21  C   UNL     1       5.589   4.025  14.917  0.00  0.00    +0.000 A 
ATOM     22  C   UNL     1       6.917   4.438  14.925  0.00  0.00    +0.000 A 
ATOM     23  C   UNL     1       7.473   4.961  16.092  0.00  0.00    +0.000 A 
ATOM     24  C   UNL     1       6.711   5.063  17.264  0.00  0.00    +0.000 A 
ATOM     25 CL   UNL     1       7.540   5.661  18.658  0.00  0.00    +0.000 Cl
ENDBRANCH  18  19
ENDBRANCH   1  18
TORSDOF 3
ENDMDL
MODEL 4
REMARK VINA RESULT:      -7.7      1.394      1.820
REMARK  Name = 
REMARK  3 active torsions:
REMARK  status: ('A' for Active; 'I' for Inactive)
REMARK    1  A    between atoms: C_2  and  C_3
REMARK    2  A    between atoms: C_2  and  C_18
REMARK    3  A    between atoms: N_7  and  C_8
REMARK                            x       y       z     vdW  Elec       q    Type
REMARK                         _______ _______ _______ _____ _____    ______ ____
ROOT
ATOM      1  C   UNL     1       2.519   7.163  19.215  0.00  0.00    +0.000 A 
ATOM      2  C   UNL     1       2.504   7.815  17.983  0.00  0.00    +0.000 A 
ATOM      3  C   UNL     1       1.821   9.029  17.855  0.00  0.00    +0.000 A 
ATOM      4  C   UNL     1       1.167   9.571  18.958  0.00  0.00    +0.000 A 
ATOM      5  N   UNL     1       0.549  10.826  18.819  0.00  0.00    +0.000 N 
ATOM      6  N   UNL     1       1.195   8.945  20.157  0.00  0.00    +0.000 NA
ATOM      7  C   UNL     1       1.879   7.783  20.271  0.00  0.00    +0.000 A 
ATOM      8  H   UNL     1      -0.017  10.887  17.976  0.00  0.00    +0.000 HD
ENDROOT
BRANCH   5   9
ATOM      9  C   UNL     1       0.102  11.708  19.828  0.00  0.00    +0.000 A 
ATOM     10  C   UNL     1      -1.174  11.627  20.400  0.00  0.00    +0.000 A 
ATOM     11  C   UNL     1      -1.554  12.475  21.443  0.00  0.00    +0.000 A 
ATOM     12  C   UNL     1      -0.643  13.395  21.945  0.00  0.00    +0.000 A 
ATOM     13  F   UNL     1      -1.005  14.193  22.956  0.00  0.00    +0.000 F 
ATOM     14  C   UNL     1       0.640  13.483  21.423  0.00  0.00    +0.000 A 
ATOM     15  C   UNL     1       0.999  12.638  20.378  0.00  0.00    +0.000 A 
ATOM     16  F   UNL     1       2.246  12.718  19.884  0.00  0.00    +0.000 F 
ENDBRANCH   5   9
BRANCH   1  18
ATOM     17  O   UNL     1       4.423   5.889  19.540  0.00  0.00    +0.000 OA
ATOM     18  C   UNL     1       3.211   5.863  19.348  0.00  0.00    +0.000 C 
BRANCH  18  19
ATOM     19  C   UNL     1       2.494   4.565  19.158  0.00  0.00    +0.000 A 
ATOM     20  C   UNL     1       1.487   4.199  20.074  0.00  0.00    +0.000 A 
ATOM     21  C   UNL     1       0.768   3.013  19.915  0.00  0.00    +0.000 A 
ATOM     22  C   UNL     1       1.013   2.196  18.818  0.00  0.00    +0.000 A 
ATOM     23  C   UNL     1       1.990   2.555  17.890  0.00  0.00    +0.000 A 
ATOM     24  C   UNL     1       2.738   3.727  18.058  0.00  0.00    +0.000 A 
ATOM     25 CL   UNL     1       3.965   4.020  16.875  0.00  0.00    +0.000 Cl
ENDBRANCH  18  19
ENDBRANCH   1  18
TORSDOF 3
ENDMDL
MODEL 5
REMARK VINA RESULT:      -7.7      4.703      8.330
REMARK  Name = 
REMARK  3 active torsions:
REMARK  status: ('A' for Active; 'I' for Inactive)
REMARK    1  A    between atoms: C_2  and  C_3
REMARK    2  A    between atoms: C_2  and  C_18
REMARK    3  A    between atoms: N_7  and  C_8
REMARK                            x       y       z     vdW  Elec       q    Type
REMARK                         _______ _______ _______ _____ _____    ______ ____
ROOT
ATOM      1  C   UNL     1       1.132   9.639  18.863  0.00  0.00    +0.000 A 
ATOM      2  C   UNL     1       1.204   8.826  19.993  0.00  0.00    +0.000 A 
ATOM      3  C   UNL     1       1.965   7.653  19.950  0.00  0.00    +0.000 A 
ATOM      4  C   UNL     1       2.641   7.313  18.781  0.00  0.00    +0.000 A 
ATOM      5  N   UNL     1       3.454   6.167  18.789  0.00  0.00    +0.000 N 
ATOM      6  N   UNL     1       2.583   8.110  17.690  0.00  0.00    +0.000 NA
ATOM      7  C   UNL     1       1.861   9.253  17.754  0.00  0.00    +0.000 A 
ATOM      8  H   UNL     1       2.988   5.364  19.202  0.00  0.00    +0.000 HD
ENDROOT
BRANCH   5   9
ATOM      9  C   UNL     1       4.455   5.786  17.866  0.00  0.00    +0.000 A 
ATOM     10  C   UNL     1       5.716   6.393  17.818  0.00  0.00    +0.000 A 
ATOM     11  C   UNL     1       6.702   5.943  16.937  0.00  0.00    +0.000 A 
ATOM     12  C   UNL     1       6.441   4.854  16.115  0.00  0.00    +0.000 A 
ATOM     13  F   UNL     1       7.393   4.414  15.285  0.00  0.00    +0.000 F 
ATOM     14  C   UNL     1       5.213   4.208  16.157  0.00  0.00    +0.000 A 
ATOM     15  C   UNL     1       4.238   4.676  17.033  0.00  0.00    +0.000 A 
ATOM     16  F   UNL     1       3.056   4.041  17.080  0.00  0.00    +0.000 F 
ENDBRANCH   5   9
BRANCH   1  18
ATOM     17  O   UNL     1       0.800  11.867  19.392  0.00  0.00    +0.000 OA
ATOM     18  C   UNL     1       0.302  10.862  18.891  0.00  0.00    +0.000 C 
BRANCH  18  19
ATOM     19  C   UNL     1      -1.119  10.863  18.427  0.00  0.00    +0.000 A 
ATOM     20  C   UNL     1      -1.504   9.975  17.403  0.00  0.00    +0.000 A 
ATOM     21  C   UNL     1      -2.828   9.916  16.962  0.00  0.00    +0.000 A 
ATOM     22  C   UNL     1      -3.794  10.712  17.565  0.00  0.00    +0.000 A 
ATOM     23  C   UNL     1      -3.434  11.580  18.596  0.00  0.00    +0.000 A 
ATOM     24  C   UNL     1      -2.102  11.668  19.023  0.00  0.00    +0.000 A 
ATOM     25 CL   UNL     1      -1.778  12.833  20.259  0.00  0.00    +0.000 Cl
ENDBRANCH  18  19
ENDBRANCH   1  18
TORSDOF 3
ENDMDL
MODEL 6
REMARK VINA RESULT:      -7.7      4.158      8.509
REMARK  Name = 
REMARK  3 active torsions:
REMARK  status: ('A' for Active; 'I' for Inactive)
REMARK    1  A    between atoms: C_2  and  C_3
REMARK    2  A    between atoms: C_2  and  C_18
REMARK    3  A    between atoms: N_7  and  C_8
REMARK                            x       y       z     vdW  Elec       q    Type
REMARK                         _______ _______ _______ _____ _____    ______ ____
ROOT
ATOM      1  C   UNL     1       1.196   9.322  19.783  0.00  0.00    +0.000 A 
ATOM      2  C   UNL     1       1.601   9.522  18.464  0.00  0.00    +0.000 A 
ATOM      3  C   UNL     1       2.296   8.508  17.796  0.00  0.00    +0.000 A 
ATOM      4  C   UNL     1       2.572   7.313  18.455  0.00  0.00    +0.000 A 
ATOM      5  N   UNL     1       3.208   6.286  17.737  0.00  0.00    +0.000 N 
ATOM      6  N   UNL     1       2.165   7.115  19.730  0.00  0.00    +0.000 NA
ATOM      7  C   UNL     1       1.475   8.096  20.356  0.00  0.00    +0.000 A 
ATOM      8  H   UNL     1       4.010   6.621  17.210  0.00  0.00    +0.000 HD
ENDROOT
BRANCH   5   9
ATOM      9  C   UNL     1       3.319   4.916  18.065  0.00  0.00    +0.000 A 
ATOM     10  C   UNL     1       2.540   3.922  17.459  0.00  0.00    +0.000 A 
ATOM     11  C   UNL     1       2.727   2.572  17.761  0.00  0.00    +0.000 A 
ATOM     12  C   UNL     1       3.724   2.201  18.654  0.00  0.00    +0.000 A 
ATOM     13  F   UNL     1       3.912   0.905  18.928  0.00  0.00    +0.000 F 
ATOM     14  C   UNL     1       4.536   3.156  19.251  0.00  0.00    +0.000 A 
ATOM     15  C   UNL     1       4.329   4.497  18.947  0.00  0.00    +0.000 A 
ATOM     16  F   UNL     1       5.125   5.417  19.517  0.00  0.00    +0.000 F 
ENDBRANCH   5   9
BRANCH   1  18
ATOM     17  O   UNL     1      -0.151  10.086  21.503  0.00  0.00    +0.000 OA
ATOM     18  C   UNL     1       0.492  10.403  20.506  0.00  0.00    +0.000 C 
BRANCH  18  19
ATOM     19  C   UNL     1       0.470  11.809  19.997  0.00  0.00    +0.000 A 
ATOM     20  C   UNL     1       1.482  12.700  20.407  0.00  0.00    +0.000 A 
ATOM     21  C   UNL     1       1.521  14.011  19.930  0.00  0.00    +0.000 A 
ATOM     22  C   UNL     1       0.578  14.440  19.004  0.00  0.00    +0.000 A 
ATOM     23  C   UNL     1      -0.416  13.563  18.570  0.00  0.00    +0.000 A 
ATOM     24  C   UNL     1      -0.482  12.255  19.067  0.00  0.00    +0.000 A 
ATOM     25 CL   UNL     1      -1.804  11.294  18.502  0.00  0.00    +0.000 Cl
ENDBRANCH  18  19
ENDBRANCH   1  18
TORSDOF 3
ENDMDL
MODEL 7
REMARK VINA RESULT:      -7.6      3.222      4.502
REMARK  Name = 
REMARK  3 active torsions:
REMARK  status: ('A' for Active; 'I' for Inactive)
REMARK    1  A    between atoms: C_2  and  C_3
REMARK    2  A    between atoms: C_2  and  C_18
REMARK    3  A    between atoms: N_7  and  C_8
REMARK                            x       y       z     vdW  Elec       q    Type
REMARK                         _______ _______ _______ _____ _____    ______ ____
ROOT
ATOM      1  C   UNL     1       2.938   5.075  18.483  0.00  0.00    +0.000 A 
ATOM      2  C   UNL     1       2.480   4.598  19.711  0.00  0.00    +0.000 A 
ATOM      3  C   UNL     1       1.954   5.497  20.645  0.00  0.00    +0.000 A 
ATOM      4  C   UNL     1       1.894   6.854  20.338  0.00  0.00    +0.000 A 
ATOM      5  N   UNL     1       1.296   7.723  21.267  0.00  0.00    +0.000 N 
ATOM      6  N   UNL     1       2.324   7.313  19.141  0.00  0.00    +0.000 NA
ATOM      7  C   UNL     1       2.809   6.429  18.238  0.00  0.00    +0.000 A 
ATOM      8  H   UNL     1       1.628   7.565  22.214  0.00  0.00    +0.000 HD
ENDROOT
BRANCH   5   9
ATOM      9  C   UNL     1       0.844   9.048  21.074  0.00  0.00    +0.000 A 
ATOM     10  C   UNL     1       0.784   9.656  19.813  0.00  0.00    +0.000 A 
ATOM     11  C   UNL     1       0.267  10.944  19.656  0.00  0.00    +0.000 A 
ATOM     12  C   UNL     1      -0.228  11.624  20.761  0.00  0.00    +0.000 A 
ATOM     13  F   UNL     1      -0.738  12.851  20.604  0.00  0.00    +0.000 F 
ATOM     14  C   UNL     1      -0.213  11.041  22.021  0.00  0.00    +0.000 A 
ATOM     15  C   UNL     1       0.315   9.761  22.162  0.00  0.00    +0.000 A 
ATOM     16  F   UNL     1       0.316   9.195  23.380  0.00  0.00    +0.000 F 
ENDBRANCH   5   9
BRANCH   1  18
ATOM     17  O   UNL     1       2.923   3.084  17.305  0.00  0.00    +0.000 OA
ATOM     18  C   UNL     1       3.525   4.135  17.505  0.00  0.00    +0.000 C 
BRANCH  18  19
ATOM     19  C   UNL     1       4.846   4.396  16.856  0.00  0.00    +0.000 A 
ATOM     20  C   UNL     1       4.957   4.275  15.456  0.00  0.00    +0.000 A 
ATOM     21  C   UNL     1       6.162   4.544  14.804  0.00  0.00    +0.000 A 
ATOM     22  C   UNL     1       7.262   4.977  15.533  0.00  0.00    +0.000 A 
ATOM     23  C   UNL     1       7.163   5.125  16.917  0.00  0.00    +0.000 A 
ATOM     24  C   UNL     1       5.967   4.828  17.583  0.00  0.00    +0.000 A 
ATOM     25 CL   UNL     1       5.998   4.984  19.304  0.00  0.00    +0.000 Cl
ENDBRANCH  18  19
ENDBRANCH   1  18
TORSDOF 3
ENDMDL
MODEL 8
REMARK VINA RESULT:      -7.6      4.622      8.434
REMARK  Name = 
REMARK  3 active torsions:
REMARK  status: ('A' for Active; 'I' for Inactive)
REMARK    1  A    between atoms: C_2  and  C_3
REMARK    2  A    between atoms: C_2  and  C_18
REMARK    3  A    between atoms: N_7  and  C_8
REMARK                            x       y       z     vdW  Elec       q    Type
REMARK                         _______ _______ _______ _____ _____    ______ ____
ROOT
ATOM      1  C   UNL     1       1.385   9.376  18.906  0.00  0.00    +0.000 A 
ATOM      2  C   UNL     1       1.342   8.590  20.056  0.00  0.00    +0.000 A 
ATOM      3  C   UNL     1       2.006   7.359  20.073  0.00  0.00    +0.000 A 
ATOM      4  C   UNL     1       2.703   6.936  18.944  0.00  0.00    +0.000 A 
ATOM      5  N   UNL     1       3.420   5.729  19.015  0.00  0.00    +0.000 N 
ATOM      6  N   UNL     1       2.758   7.708  17.835  0.00  0.00    +0.000 NA
ATOM      7  C   UNL     1       2.129   8.906  17.840  0.00  0.00    +0.000 A 
ATOM      8  H   UNL     1       2.872   4.977  19.424  0.00  0.00    +0.000 HD
ENDROOT
BRANCH   5   9
ATOM      9  C   UNL     1       4.426   5.246  18.148  0.00  0.00    +0.000 A 
ATOM     10  C   UNL     1       4.162   4.811  16.843  0.00  0.00    +0.000 A 
ATOM     11  C   UNL     1       5.194   4.404  15.994  0.00  0.00    +0.000 A 
ATOM     12  C   UNL     1       6.509   4.462  16.436  0.00  0.00    +0.000 A 
ATOM     13  F   UNL     1       7.496   4.088  15.615  0.00  0.00    +0.000 F 
ATOM     14  C   UNL     1       6.811   4.917  17.713  0.00  0.00    +0.000 A 
ATOM     15  C   UNL     1       5.770   5.308  18.550  0.00  0.00    +0.000 A 
ATOM     16  F   UNL     1       6.068   5.759  19.780  0.00  0.00    +0.000 F 
ENDBRANCH   5   9
BRANCH   1  18
ATOM     17  O   UNL     1       1.262  11.662  19.249  0.00  0.00    +0.000 OA
ATOM     18  C   UNL     1       0.657  10.663  18.869  0.00  0.00    +0.000 C 
BRANCH  18  19
ATOM     19  C   UNL     1      -0.786  10.742  18.486  0.00  0.00    +0.000 A 
ATOM     20  C   UNL     1      -1.272   9.891  17.474  0.00  0.00    +0.000 A 
ATOM     21  C   UNL     1      -2.620   9.905  17.109  0.00  0.00    +0.000 A 
ATOM     22  C   UNL     1      -3.509  10.739  17.776  0.00  0.00    +0.000 A 
ATOM     23  C   UNL     1      -3.048  11.571  18.796  0.00  0.00    +0.000 A 
ATOM     24  C   UNL     1      -1.692  11.586  19.148  0.00  0.00    +0.000 A 
ATOM     25 CL   UNL     1      -1.240  12.713  20.378  0.00  0.00    +0.000 Cl
ENDBRANCH  18  19
ENDBRANCH   1  18
TORSDOF 3
ENDMDL
MODEL 9
REMARK VINA RESULT:      -7.5      4.533      8.444
REMARK  Name = 
REMARK  3 active torsions:
REMARK  status: ('A' for Active; 'I' for Inactive)
REMARK    1  A    between atoms: C_2  and  C_3
REMARK    2  A    between atoms: C_2  and  C_18
REMARK    3  A    between atoms: N_7  and  C_8
REMARK                            x       y       z     vdW  Elec       q    Type
REMARK                         _______ _______ _______ _____ _____    ______ ____
ROOT
ATOM      1  C   UNL     1       1.414   8.359  20.171  0.00  0.00    +0.000 A 
ATOM      2  C   UNL     1       1.306   7.217  20.963  0.00  0.00    +0.000 A 
ATOM      3  C   UNL     1       1.947   6.039  20.563  0.00  0.00    +0.000 A 
ATOM      4  C   UNL     1       2.684   6.023  19.381  0.00  0.00    +0.000 A 
ATOM      5  N   UNL     1       3.374   4.847  19.041  0.00  0.00    +0.000 N 
ATOM      6  N   UNL     1       2.800   7.136  18.621  0.00  0.00    +0.000 NA
ATOM      7  C   UNL     1       2.193   8.274  19.032  0.00  0.00    +0.000 A 
ATOM      8  H   UNL     1       2.795   4.017  19.137  0.00  0.00    +0.000 HD
ENDROOT
BRANCH   5   9
ATOM      9  C   UNL     1       4.407   4.672  18.093  0.00  0.00    +0.000 A 
ATOM     10  C   UNL     1       4.168   4.267  16.773  0.00  0.00    +0.000 A 
ATOM     11  C   UNL     1       5.210   4.170  15.847  0.00  0.00    +0.000 A 
ATOM     12  C   UNL     1       6.501   4.511  16.229  0.00  0.00    +0.000 A 
ATOM     13  F   UNL     1       7.493   4.433  15.335  0.00  0.00    +0.000 F 
ATOM     14  C   UNL     1       6.770   4.945  17.520  0.00  0.00    +0.000 A 
ATOM     15  C   UNL     1       5.723   5.025  18.433  0.00  0.00    +0.000 A 
ATOM     16  F   UNL     1       5.985   5.457  19.678  0.00  0.00    +0.000 F 
ENDBRANCH   5   9
BRANCH   1  18
ATOM     17  O   UNL     1       0.700   9.875  21.767  0.00  0.00    +0.000 OA
ATOM     18  C   UNL     1       0.712   9.598  20.571  0.00  0.00    +0.000 C 
BRANCH  18  19
ATOM     19  C   UNL     1      -0.042  10.431  19.585  0.00  0.00    +0.000 A 
ATOM     20  C   UNL     1      -1.157   9.873  18.928  0.00  0.00    +0.000 A 
ATOM     21  C   UNL     1      -1.911  10.626  18.026  0.00  0.00    +0.000 A 
ATOM     22  C   UNL     1      -1.590  11.959  17.798  0.00  0.00    +0.000 A 
ATOM     23  C   UNL     1      -0.503  12.533  18.458  0.00  0.00    +0.000 A 
ATOM     24  C   UNL     1       0.278  11.776  19.341  0.00  0.00    +0.000 A 
ATOM     25 CL   UNL     1       1.636  12.587  20.038  0.00  0.00    +0.000 Cl
ENDBRANCH  18  19
ENDBRANCH   1  18
TORSDOF 3
ENDMDL
