MODEL 1
REMARK VINA RESULT:      -9.8      0.000      0.000
REMARK  Name = 
REMARK  7 active torsions:
REMARK  status: ('A' for Active; 'I' for Inactive)
REMARK    1  A    between atoms: C_1  and  C_2
REMARK    2  A    between atoms: C_2  and  C_3
REMARK    3  A    between atoms: C_2  and  C_4
REMARK    4  A    between atoms: C_2  and  N_5
REMARK    5  A    between atoms: C_6  and  C_7
REMARK    6  A    between atoms: C_12  and  N_13
REMARK    7  A    between atoms: C_21  and  C_22
REMARK                            x       y       z     vdW  Elec       q    Type
REMARK                         _______ _______ _______ _____ _____    ______ ____
ROOT
ATOM      1  N   UNL     1       3.283   4.581  18.637  0.00  0.00    +0.000 N 
ATOM      2  C   UNL     1       4.052   5.349  17.717  0.00  0.00    +0.000 A 
ATOM      3  N   UNL     1       3.719   6.627  17.860  0.00  0.00    +0.000 NA
ATOM      4  C   UNL     1       2.869   6.740  18.917  0.00  0.00    +0.000 A 
ATOM      5  C   UNL     1       2.306   7.906  19.494  0.00  0.00    +0.000 A 
ATOM      6  C   UNL     1       1.390   7.817  20.562  0.00  0.00    +0.000 A 
ATOM      7  C   UNL     1       1.081   6.534  21.023  0.00  0.00    +0.000 A 
ATOM      8  C   UNL     1       1.653   5.379  20.486  0.00  0.00    +0.000 A 
ATOM      9  C   UNL     1       2.554   5.486  19.419  0.00  0.00    +0.000 A 
ENDROOT
BRANCH   6  10
ATOM     10  C   UNL     1       0.720   8.985  21.168  0.00  0.00    +0.000 A 
ATOM     11  C   UNL     1      -0.043   9.895  20.466  0.00  0.00    +0.000 A 
ATOM     12  N   UNL     1      -0.750  10.907  21.023  0.00  0.00    +0.000 NA
ATOM     13  C   UNL     1      -0.707  11.005  22.356  0.00  0.00    +0.000 A 
ATOM     14  N   UNL     1      -1.450  11.997  22.955  0.00  0.00    +0.000 N 
ATOM     15  N   UNL     1       0.036  10.230  23.147  0.00  0.00    +0.000 NA
ATOM     16  C   UNL     1       0.726   9.244  22.532  0.00  0.00    +0.000 A 
ATOM     17  H   UNL     1      -1.608  12.745  22.298  0.00  0.00    +0.000 HD
ATOM     18  H   UNL     1      -1.047  12.230  23.851  0.00  0.00    +0.000 HD
ENDBRANCH   6  10
BRANCH   2  19
ATOM     19  C   UNL     1       5.014   4.952  16.624  0.00  0.00    +0.000 A 
ATOM     20  C   UNL     1       4.618   4.299  15.447  0.00  0.00    +0.000 A 
ATOM     21  C   UNL     1       5.424   4.176  14.318  0.00  0.00    +0.000 A 
ATOM     22  C   UNL     1       6.675   4.724  14.360  0.00  0.00    +0.000 A 
ATOM     23  N   UNL     1       7.155   5.331  15.458  0.00  0.00    +0.000 NA
ATOM     24  C   UNL     1       6.353   5.390  16.583  0.00  0.00    +0.000 A 
BRANCH  24  25
ATOM     25  N   UNL     1       7.046   5.848  17.739  0.00  0.00    +0.000 N 
ATOM     26  C   UNL     1       7.658   7.078  17.855  0.00  0.00    +0.000 A 
ATOM     27  N   UNL     1       8.398   7.128  18.935  0.00  0.00    +0.000 NA
ATOM     28  C   UNL     1       8.256   5.873  19.444  0.00  0.00    +0.000 A 
ATOM     29  N   UNL     1       7.477   5.042  18.749  0.00  0.00    +0.000 NA
ENDBRANCH  24  25
ENDBRANCH   2  19
BRANCH   1  31
ATOM     30  C   UNL     1       4.626   2.592  19.258  0.00  0.00    +0.000 C 
ATOM     31  C   UNL     1       3.240   3.103  18.787  0.00  0.00    +0.000 C 
ATOM     32  C   UNL     1       2.614   2.455  17.521  0.00  0.00    +0.000 C 
ATOM     33  C   UNL     1       2.305   2.537  19.898  0.00  0.00    +0.000 C 
ENDBRANCH   1  31
TORSDOF 4
ENDMDL
MODEL 2
REMARK VINA RESULT:      -9.7      0.688      1.199
REMARK  Name = 
REMARK  7 active torsions:
REMARK  status: ('A' for Active; 'I' for Inactive)
REMARK    1  A    between atoms: C_1  and  C_2
REMARK    2  A    between atoms: C_2  and  C_3
REMARK    3  A    between atoms: C_2  and  C_4
REMARK    4  A    between atoms: C_2  and  N_5
REMARK    5  A    between atoms: C_6  and  C_7
REMARK    6  A    between atoms: C_12  and  N_13
REMARK    7  A    between atoms: C_21  and  C_22
REMARK                            x       y       z     vdW  Elec       q    Type
REMARK                         _______ _______ _______ _____ _____    ______ ____
ROOT
ATOM      1  N   UNL     1       3.561   4.464  18.322  0.00  0.00    +0.000 N 
ATOM      2  C   UNL     1       4.275   5.246  17.370  0.00  0.00    +0.000 A 
ATOM      3  N   UNL     1       3.923   6.518  17.525  0.00  0.00    +0.000 NA
ATOM      4  C   UNL     1       3.114   6.615  18.616  0.00  0.00    +0.000 A 
ATOM      5  C   UNL     1       2.551   7.770  19.214  0.00  0.00    +0.000 A 
ATOM      6  C   UNL     1       1.681   7.664  20.319  0.00  0.00    +0.000 A 
ATOM      7  C   UNL     1       1.419   6.377  20.794  0.00  0.00    +0.000 A 
ATOM      8  C   UNL     1       1.992   5.232  20.235  0.00  0.00    +0.000 A 
ATOM      9  C   UNL     1       2.846   5.356  19.132  0.00  0.00    +0.000 A 
ENDROOT
BRANCH   6  10
ATOM     10  C   UNL     1       1.013   8.819  20.950  0.00  0.00    +0.000 A 
ATOM     11  C   UNL     1       0.173   9.690  20.288  0.00  0.00    +0.000 A 
ATOM     12  N   UNL     1      -0.530  10.687  20.876  0.00  0.00    +0.000 NA
ATOM     13  C   UNL     1      -0.401  10.810  22.200  0.00  0.00    +0.000 A 
ATOM     14  N   UNL     1      -1.138  11.787  22.833  0.00  0.00    +0.000 N 
ATOM     15  N   UNL     1       0.420  10.076  22.952  0.00  0.00    +0.000 NA
ATOM     16  C   UNL     1       1.102   9.103  22.307  0.00  0.00    +0.000 A 
ATOM     17  H   UNL     1      -1.365  12.517  22.177  0.00  0.00    +0.000 HD
ATOM     18  H   UNL     1      -0.684  12.050  23.696  0.00  0.00    +0.000 HD
ENDBRANCH   6  10
BRANCH   2  19
ATOM     19  C   UNL     1       5.200   4.867  16.240  0.00  0.00    +0.000 A 
ATOM     20  C   UNL     1       4.753   4.307  15.033  0.00  0.00    +0.000 A 
ATOM     21  C   UNL     1       5.536   4.210  13.884  0.00  0.00    +0.000 A 
ATOM     22  C   UNL     1       6.814   4.691  13.937  0.00  0.00    +0.000 A 
ATOM     23  N   UNL     1       7.340   5.206  15.060  0.00  0.00    +0.000 NA
ATOM     24  C   UNL     1       6.559   5.239  16.201  0.00  0.00    +0.000 A 
BRANCH  24  25
ATOM     25  N   UNL     1       7.291   5.591  17.370  0.00  0.00    +0.000 N 
ATOM     26  C   UNL     1       7.531   4.748  18.434  0.00  0.00    +0.000 A 
ATOM     27  N   UNL     1       8.030   5.412  19.448  0.00  0.00    +0.000 NA
ATOM     28  C   UNL     1       8.037   6.692  18.983  0.00  0.00    +0.000 A 
ATOM     29  N   UNL     1       7.573   6.870  17.745  0.00  0.00    +0.000 NA
ENDBRANCH  24  25
ENDBRANCH   2  19
BRANCH   1  31
ATOM     30  C   UNL     1       2.114   2.451  18.268  0.00  0.00    +0.000 C 
ATOM     31  C   UNL     1       3.555   2.986  18.475  0.00  0.00    +0.000 C 
ATOM     32  C   UNL     1       4.307   2.579  19.772  0.00  0.00    +0.000 C 
ATOM     33  C   UNL     1       4.347   2.168  17.410  0.00  0.00    +0.000 C 
ENDBRANCH   1  31
TORSDOF 4
ENDMDL
MODEL 3
REMARK VINA RESULT:      -9.4      0.654      1.182
REMARK  Name = 
REMARK  7 active torsions:
REMARK  status: ('A' for Active; 'I' for Inactive)
REMARK    1  A    between atoms: C_1  and  C_2
REMARK    2  A    between atoms: C_2  and  C_3
REMARK    3  A    between atoms: C_2  and  C_4
REMARK    4  A    between atoms: C_2  and  N_5
REMARK    5  A    between atoms: C_6  and  C_7
REMARK    6  A    between atoms: C_12  and  N_13
REMARK    7  A    between atoms: C_21  and  C_22
REMARK                            x       y       z     vdW  Elec       q    Type
REMARK                         _______ _______ _______ _____ _____    ______ ____
ROOT
ATOM      1  N   UNL     1       3.604   4.489  18.430  0.00  0.00    +0.000 N 
ATOM      2  C   UNL     1       4.267   5.243  17.421  0.00  0.00    +0.000 A 
ATOM      3  N   UNL     1       3.866   6.507  17.512  0.00  0.00    +0.000 NA
ATOM      4  C   UNL     1       3.075   6.634  18.613  0.00  0.00    +0.000 A 
ATOM      5  C   UNL     1       2.477   7.798  19.157  0.00  0.00    +0.000 A 
ATOM      6  C   UNL     1       1.634   7.721  20.285  0.00  0.00    +0.000 A 
ATOM      7  C   UNL     1       1.432   6.453  20.836  0.00  0.00    +0.000 A 
ATOM      8  C   UNL     1       2.042   5.302  20.330  0.00  0.00    +0.000 A 
ATOM      9  C   UNL     1       2.868   5.397  19.203  0.00  0.00    +0.000 A 
ENDROOT
BRANCH   6  10
ATOM     10  C   UNL     1       0.931   8.882  20.864  0.00  0.00    +0.000 A 
ATOM     11  C   UNL     1       0.879   9.167  22.213  0.00  0.00    +0.000 A 
ATOM     12  N   UNL     1       0.331  10.284  22.749  0.00  0.00    +0.000 NA
ATOM     13  C   UNL     1      -0.176  11.174  21.890  0.00  0.00    +0.000 A 
ATOM     14  N   UNL     1      -0.700  12.340  22.402  0.00  0.00    +0.000 N 
ATOM     15  N   UNL     1      -0.243  10.997  20.570  0.00  0.00    +0.000 NA
ATOM     16  C   UNL     1       0.312   9.859  20.095  0.00  0.00    +0.000 A 
ATOM     17  H   UNL     1      -0.984  12.192  23.357  0.00  0.00    +0.000 HD
ATOM     18  H   UNL     1      -1.381  12.718  21.759  0.00  0.00    +0.000 HD
ENDBRANCH   6  10
BRANCH   2  19
ATOM     19  C   UNL     1       5.185   4.838  16.294  0.00  0.00    +0.000 A 
ATOM     20  C   UNL     1       4.731   4.252  15.102  0.00  0.00    +0.000 A 
ATOM     21  C   UNL     1       5.507   4.129  13.952  0.00  0.00    +0.000 A 
ATOM     22  C   UNL     1       6.786   4.608  13.987  0.00  0.00    +0.000 A 
ATOM     23  N   UNL     1       7.320   5.147  15.096  0.00  0.00    +0.000 NA
ATOM     24  C   UNL     1       6.545   5.206  16.240  0.00  0.00    +0.000 A 
BRANCH  24  25
ATOM     25  N   UNL     1       7.284   5.583  17.396  0.00  0.00    +0.000 N 
ATOM     26  C   UNL     1       7.580   4.745  18.450  0.00  0.00    +0.000 A 
ATOM     27  N   UNL     1       8.069   5.423  19.458  0.00  0.00    +0.000 NA
ATOM     28  C   UNL     1       8.015   6.704  19.002  0.00  0.00    +0.000 A 
ATOM     29  N   UNL     1       7.519   6.869  17.774  0.00  0.00    +0.000 NA
ENDBRANCH  24  25
ENDBRANCH   2  19
BRANCH   1  31
ATOM     30  C   UNL     1       4.790   2.707  19.681  0.00  0.00    +0.000 C 
ATOM     31  C   UNL     1       3.661   3.023  18.665  0.00  0.00    +0.000 C 
ATOM     32  C   UNL     1       3.663   2.263  17.310  0.00  0.00    +0.000 C 
ATOM     33  C   UNL     1       2.425   2.376  19.361  0.00  0.00    +0.000 C 
ENDBRANCH   1  31
TORSDOF 4
ENDMDL
MODEL 4
REMARK VINA RESULT:      -9.3      1.528      1.983
REMARK  Name = 
REMARK  7 active torsions:
REMARK  status: ('A' for Active; 'I' for Inactive)
REMARK    1  A    between atoms: C_1  and  C_2
REMARK    2  A    between atoms: C_2  and  C_3
REMARK    3  A    between atoms: C_2  and  C_4
REMARK    4  A    between atoms: C_2  and  N_5
REMARK    5  A    between atoms: C_6  and  C_7
REMARK    6  A    between atoms: C_12  and  N_13
REMARK    7  A    between atoms: C_21  and  C_22
REMARK                            x       y       z     vdW  Elec       q    Type
REMARK                         _______ _______ _______ _____ _____    ______ ____
ROOT
ATOM      1  N   UNL     1       3.688   5.504  18.220  0.00  0.00    +0.000 N 
ATOM      2  C   UNL     1       4.370   5.954  17.054  0.00  0.00    +0.000 A 
ATOM      3  N   UNL     1       3.953   7.185  16.775  0.00  0.00    +0.000 NA
ATOM      4  C   UNL     1       3.132   7.604  17.777  0.00  0.00    +0.000 A 
ATOM      5  C   UNL     1       2.508   8.863  17.957  0.00  0.00    +0.000 A 
ATOM      6  C   UNL     1       1.636   9.093  19.041  0.00  0.00    +0.000 A 
ATOM      7  C   UNL     1       1.434   8.029  19.924  0.00  0.00    +0.000 A 
ATOM      8  C   UNL     1       2.068   6.793  19.778  0.00  0.00    +0.000 A 
ATOM      9  C   UNL     1       2.923   6.580  18.689  0.00  0.00    +0.000 A 
ENDROOT
BRANCH   6  10
ATOM     10  C   UNL     1       0.906  10.358  19.253  0.00  0.00    +0.000 A 
ATOM     11  C   UNL     1       1.357  11.596  18.841  0.00  0.00    +0.000 A 
ATOM     12  N   UNL     1       0.651  12.747  18.932  0.00  0.00    +0.000 NA
ATOM     13  C   UNL     1      -0.580  12.657  19.445  0.00  0.00    +0.000 A 
ATOM     14  N   UNL     1      -1.339  13.804  19.510  0.00  0.00    +0.000 N 
ATOM     15  N   UNL     1      -1.114  11.537  19.935  0.00  0.00    +0.000 NA
ATOM     16  C   UNL     1      -0.358  10.422  19.824  0.00  0.00    +0.000 A 
ATOM     17  H   UNL     1      -0.734  14.609  19.529  0.00  0.00    +0.000 HD
ATOM     18  H   UNL     1      -2.030  13.714  20.241  0.00  0.00    +0.000 HD
ENDBRANCH   6  10
BRANCH   2  19
ATOM     19  C   UNL     1       5.321   5.263  16.108  0.00  0.00    +0.000 A 
ATOM     20  C   UNL     1       4.909   4.329  15.146  0.00  0.00    +0.000 A 
ATOM     21  C   UNL     1       5.710   3.894  14.092  0.00  0.00    +0.000 A 
ATOM     22  C   UNL     1       6.971   4.410  13.990  0.00  0.00    +0.000 A 
ATOM     23  N   UNL     1       7.465   5.277  14.888  0.00  0.00    +0.000 NA
ATOM     24  C   UNL     1       6.669   5.649  15.955  0.00  0.00    +0.000 A 
BRANCH  24  25
ATOM     25  N   UNL     1       7.373   6.384  16.949  0.00  0.00    +0.000 N 
ATOM     26  C   UNL     1       7.712   5.901  18.195  0.00  0.00    +0.000 A 
ATOM     27  N   UNL     1       8.150   6.867  18.964  0.00  0.00    +0.000 NA
ATOM     28  C   UNL     1       8.020   7.959  18.163  0.00  0.00    +0.000 A 
ATOM     29  N   UNL     1       7.525   7.737  16.943  0.00  0.00    +0.000 NA
ENDBRANCH  24  25
ENDBRANCH   2  19
BRANCH   1  31
ATOM     30  C   UNL     1       5.214   3.874  19.296  0.00  0.00    +0.000 C 
ATOM     31  C   UNL     1       3.755   4.165  18.862  0.00  0.00    +0.000 C 
ATOM     32  C   UNL     1       3.030   3.112  17.979  0.00  0.00    +0.000 C 
ATOM     33  C   UNL     1       2.988   3.994  20.208  0.00  0.00    +0.000 C 
ENDBRANCH   1  31
TORSDOF 4
ENDMDL
MODEL 5
REMARK VINA RESULT:      -9.2      0.498      1.213
REMARK  Name = 
REMARK  7 active torsions:
REMARK  status: ('A' for Active; 'I' for Inactive)
REMARK    1  A    between atoms: C_1  and  C_2
REMARK    2  A    between atoms: C_2  and  C_3
REMARK    3  A    between atoms: C_2  and  C_4
REMARK    4  A    between atoms: C_2  and  N_5
REMARK    5  A    between atoms: C_6  and  C_7
REMARK    6  A    between atoms: C_12  and  N_13
REMARK    7  A    between atoms: C_21  and  C_22
REMARK                            x       y       z     vdW  Elec       q    Type
REMARK                         _______ _______ _______ _____ _____    ______ ____
ROOT
ATOM      1  N   UNL     1       3.346   4.552  18.536  0.00  0.00    +0.000 N 
ATOM      2  C   UNL     1       4.089   5.333  17.605  0.00  0.00    +0.000 A 
ATOM      3  N   UNL     1       3.716   6.602  17.732  0.00  0.00    +0.000 NA
ATOM      4  C   UNL     1       2.863   6.701  18.789  0.00  0.00    +0.000 A 
ATOM      5  C   UNL     1       2.263   7.855  19.352  0.00  0.00    +0.000 A 
ATOM      6  C   UNL     1       1.351   7.750  20.422  0.00  0.00    +0.000 A 
ATOM      7  C   UNL     1       1.084   6.463  20.900  0.00  0.00    +0.000 A 
ATOM      8  C   UNL     1       1.693   5.320  20.376  0.00  0.00    +0.000 A 
ATOM      9  C   UNL     1       2.589   5.444  19.306  0.00  0.00    +0.000 A 
ENDROOT
BRANCH   6  10
ATOM     10  C   UNL     1       0.644   8.903  21.014  0.00  0.00    +0.000 A 
ATOM     11  C   UNL     1       0.069   8.903  22.268  0.00  0.00    +0.000 A 
ATOM     12  N   UNL     1      -0.487   9.984  22.865  0.00  0.00    +0.000 NA
ATOM     13  C   UNL     1      -0.450  11.132  22.181  0.00  0.00    +0.000 A 
ATOM     14  N   UNL     1      -0.967  12.258  22.780  0.00  0.00    +0.000 N 
ATOM     15  N   UNL     1       0.022  11.257  20.940  0.00  0.00    +0.000 NA
ATOM     16  C   UNL     1       0.555  10.142  20.393  0.00  0.00    +0.000 A 
ATOM     17  H   UNL     1      -1.646  11.990  23.475  0.00  0.00    +0.000 HD
ATOM     18  H   UNL     1      -1.250  12.921  22.072  0.00  0.00    +0.000 HD
ENDBRANCH   6  10
BRANCH   2  19
ATOM     19  C   UNL     1       5.063   4.954  16.516  0.00  0.00    +0.000 A 
ATOM     20  C   UNL     1       4.676   4.335  15.317  0.00  0.00    +0.000 A 
ATOM     21  C   UNL     1       5.498   4.232  14.196  0.00  0.00    +0.000 A 
ATOM     22  C   UNL     1       6.753   4.766  14.270  0.00  0.00    +0.000 A 
ATOM     23  N   UNL     1       7.223   5.341  15.389  0.00  0.00    +0.000 NA
ATOM     24  C   UNL     1       6.407   5.380  16.504  0.00  0.00    +0.000 A 
BRANCH  24  25
ATOM     25  N   UNL     1       7.088   5.802  17.681  0.00  0.00    +0.000 N 
ATOM     26  C   UNL     1       7.646   7.049  17.863  0.00  0.00    +0.000 A 
ATOM     27  N   UNL     1       8.391   7.071  18.941  0.00  0.00    +0.000 NA
ATOM     28  C   UNL     1       8.308   5.784  19.378  0.00  0.00    +0.000 A 
ATOM     29  N   UNL     1       7.560   4.960  18.641  0.00  0.00    +0.000 NA
ENDBRANCH  24  25
ENDBRANCH   2  19
BRANCH   1  31
ATOM     30  C   UNL     1       1.913   2.530  18.514  0.00  0.00    +0.000 C 
ATOM     31  C   UNL     1       3.352   3.076  18.703  0.00  0.00    +0.000 C 
ATOM     32  C   UNL     1       4.118   2.687  19.998  0.00  0.00    +0.000 C 
ATOM     33  C   UNL     1       4.140   2.252  17.640  0.00  0.00    +0.000 C 
ENDBRANCH   1  31
TORSDOF 4
ENDMDL
MODEL 6
REMARK VINA RESULT:      -8.9      1.646      2.062
REMARK  Name = 
REMARK  7 active torsions:
REMARK  status: ('A' for Active; 'I' for Inactive)
REMARK    1  A    between atoms: C_1  and  C_2
REMARK    2  A    between atoms: C_2  and  C_3
REMARK    3  A    between atoms: C_2  and  C_4
REMARK    4  A    between atoms: C_2  and  N_5
REMARK    5  A    between atoms: C_6  and  C_7
REMARK    6  A    between atoms: C_12  and  N_13
REMARK    7  A    between atoms: C_21  and  C_22
REMARK                            x       y       z     vdW  Elec       q    Type
REMARK                         _______ _______ _______ _____ _____    ______ ____
ROOT
ATOM      1  N   UNL     1       3.427   5.855  18.506  0.00  0.00    +0.000 N 
ATOM      2  C   UNL     1       4.165   6.243  17.352  0.00  0.00    +0.000 A 
ATOM      3  N   UNL     1       3.753   7.450  16.978  0.00  0.00    +0.000 NA
ATOM      4  C   UNL     1       2.877   7.918  17.909  0.00  0.00    +0.000 A 
ATOM      5  C   UNL     1       2.233   9.179  17.980  0.00  0.00    +0.000 A 
ATOM      6  C   UNL     1       1.304   9.462  19.002  0.00  0.00    +0.000 A 
ATOM      7  C   UNL     1       1.064   8.450  19.935  0.00  0.00    +0.000 A 
ATOM      8  C   UNL     1       1.716   7.215  19.897  0.00  0.00    +0.000 A 
ATOM      9  C   UNL     1       2.629   6.948  18.868  0.00  0.00    +0.000 A 
ENDROOT
BRANCH   6  10
ATOM     10  C   UNL     1       0.553  10.729  19.099  0.00  0.00    +0.000 A 
ATOM     11  C   UNL     1      -0.809  10.813  19.304  0.00  0.00    +0.000 A 
ATOM     12  N   UNL     1      -1.493  11.965  19.502  0.00  0.00    +0.000 NA
ATOM     13  C   UNL     1      -0.776  13.093  19.515  0.00  0.00    +0.000 A 
ATOM     14  N   UNL     1      -1.438  14.276  19.758  0.00  0.00    +0.000 N 
ATOM     15  N   UNL     1       0.533  13.159  19.273  0.00  0.00    +0.000 NA
ATOM     16  C   UNL     1       1.159  11.978  19.073  0.00  0.00    +0.000 A 
ATOM     17  H   UNL     1      -2.408  14.179  19.505  0.00  0.00    +0.000 HD
ATOM     18  H   UNL     1      -0.918  15.044  19.359  0.00  0.00    +0.000 HD
ENDBRANCH   6  10
BRANCH   2  19
ATOM     19  C   UNL     1       5.171   5.508  16.500  0.00  0.00    +0.000 A 
ATOM     20  C   UNL     1       4.815   4.540  15.549  0.00  0.00    +0.000 A 
ATOM     21  C   UNL     1       5.680   4.058  14.569  0.00  0.00    +0.000 A 
ATOM     22  C   UNL     1       6.951   4.560  14.532  0.00  0.00    +0.000 A 
ATOM     23  N   UNL     1       7.392   5.458  15.427  0.00  0.00    +0.000 NA
ATOM     24  C   UNL     1       6.529   5.877  16.423  0.00  0.00    +0.000 A 
BRANCH  24  25
ATOM     25  N   UNL     1       7.173   6.646  17.433  0.00  0.00    +0.000 N 
ATOM     26  C   UNL     1       7.556   7.964  17.297  0.00  0.00    +0.000 A 
ATOM     27  N   UNL     1       8.317   8.331  18.298  0.00  0.00    +0.000 NA
ATOM     28  C   UNL     1       8.426   7.182  19.019  0.00  0.00    +0.000 A 
ATOM     29  N   UNL     1       7.782   6.119  18.531  0.00  0.00    +0.000 NA
ENDBRANCH  24  25
ENDBRANCH   2  19
BRANCH   1  31
ATOM     30  C   UNL     1       4.940   4.218  19.590  0.00  0.00    +0.000 C 
ATOM     31  C   UNL     1       3.471   4.557  19.229  0.00  0.00    +0.000 C 
ATOM     32  C   UNL     1       2.641   3.490  18.464  0.00  0.00    +0.000 C 
ATOM     33  C   UNL     1       2.787   4.511  20.628  0.00  0.00    +0.000 C 
ENDBRANCH   1  31
TORSDOF 4
ENDMDL
MODEL 7
REMARK VINA RESULT:      -8.8      1.357      1.976
REMARK  Name = 
REMARK  7 active torsions:
REMARK  status: ('A' for Active; 'I' for Inactive)
REMARK    1  A    between atoms: C_1  and  C_2
REMARK    2  A    between atoms: C_2  and  C_3
REMARK    3  A    between atoms: C_2  and  C_4
REMARK    4  A    between atoms: C_2  and  N_5
REMARK    5  A    between atoms: C_6  and  C_7
REMARK    6  A    between atoms: C_12  and  N_13
REMARK    7  A    between atoms: C_21  and  C_22
REMARK                            x       y       z     vdW  Elec       q    Type
REMARK                         _______ _______ _______ _____ _____    ______ ____
ROOT
ATOM      1  N   UNL     1       3.712   5.337  18.229  0.00  0.00    +0.000 N 
ATOM      2  C   UNL     1       4.376   5.849  17.078  0.00  0.00    +0.000 A 
ATOM      3  N   UNL     1       3.948   7.089  16.865  0.00  0.00    +0.000 NA
ATOM      4  C   UNL     1       3.137   7.453  17.897  0.00  0.00    +0.000 A 
ATOM      5  C   UNL     1       2.507   8.697  18.147  0.00  0.00    +0.000 A 
ATOM      6  C   UNL     1       1.648   8.867  19.252  0.00  0.00    +0.000 A 
ATOM      7  C   UNL     1       1.464   7.759  20.084  0.00  0.00    +0.000 A 
ATOM      8  C   UNL     1       2.104   6.536  19.869  0.00  0.00    +0.000 A 
ATOM      9  C   UNL     1       2.946   6.384  18.760  0.00  0.00    +0.000 A 
ENDROOT
BRANCH   6  10
ATOM     10  C   UNL     1       0.913  10.115  19.536  0.00  0.00    +0.000 A 
ATOM     11  C   UNL     1      -0.009  10.262  20.552  0.00  0.00    +0.000 A 
ATOM     12  N   UNL     1      -0.609  11.428  20.890  0.00  0.00    +0.000 NA
ATOM     13  C   UNL     1      -0.257  12.509  20.188  0.00  0.00    +0.000 A 
ATOM     14  N   UNL     1      -0.818  13.717  20.538  0.00  0.00    +0.000 N 
ATOM     15  N   UNL     1       0.574  12.496  19.145  0.00  0.00    +0.000 NA
ATOM     16  C   UNL     1       1.135  11.302  18.850  0.00  0.00    +0.000 A 
ATOM     17  H   UNL     1      -1.696  13.560  21.006  0.00  0.00    +0.000 HD
ATOM     18  H   UNL     1      -0.810  14.339  19.742  0.00  0.00    +0.000 HD
ENDBRANCH   6  10
BRANCH   2  19
ATOM     19  C   UNL     1       5.319   5.213  16.087  0.00  0.00    +0.000 A 
ATOM     20  C   UNL     1       4.900   4.324  15.085  0.00  0.00    +0.000 A 
ATOM     21  C   UNL     1       5.690   3.948  14.000  0.00  0.00    +0.000 A 
ATOM     22  C   UNL     1       6.946   4.477  13.908  0.00  0.00    +0.000 A 
ATOM     23  N   UNL     1       7.447   5.302  14.841  0.00  0.00    +0.000 NA
ATOM     24  C   UNL     1       6.662   5.615  15.936  0.00  0.00    +0.000 A 
BRANCH  24  25
ATOM     25  N   UNL     1       7.375   6.305  16.956  0.00  0.00    +0.000 N 
ATOM     26  C   UNL     1       7.686   5.781  18.193  0.00  0.00    +0.000 A 
ATOM     27  N   UNL     1       8.142   6.714  18.991  0.00  0.00    +0.000 NA
ATOM     28  C   UNL     1       8.049   7.831  18.217  0.00  0.00    +0.000 A 
ATOM     29  N   UNL     1       7.563   7.653  16.986  0.00  0.00    +0.000 NA
ENDBRANCH  24  25
ENDBRANCH   2  19
BRANCH   1  31
ATOM     30  C   UNL     1       2.603   3.740  19.767  0.00  0.00    +0.000 C 
ATOM     31  C   UNL     1       3.796   3.969  18.802  0.00  0.00    +0.000 C 
ATOM     32  C   UNL     1       5.230   3.699  19.335  0.00  0.00    +0.000 C 
ATOM     33  C   UNL     1       3.625   2.781  17.808  0.00  0.00    +0.000 C 
ENDBRANCH   1  31
TORSDOF 4
ENDMDL
MODEL 8
REMARK VINA RESULT:      -8.7      0.925      1.207
REMARK  Name = 
REMARK  7 active torsions:
REMARK  status: ('A' for Active; 'I' for Inactive)
REMARK    1  A    between atoms: C_1  and  C_2
REMARK    2  A    between atoms: C_2  and  C_3
REMARK    3  A    between atoms: C_2  and  C_4
REMARK    4  A    between atoms: C_2  and  N_5
REMARK    5  A    between atoms: C_6  and  C_7
REMARK    6  A    between atoms: C_12  and  N_13
REMARK    7  A    between atoms: C_21  and  C_22
REMARK                            x       y       z     vdW  Elec       q    Type
REMARK                         _______ _______ _______ _____ _____    ______ ____
ROOT
ATOM      1  N   UNL     1       3.481   5.203  18.704  0.00  0.00    +0.000 N 
ATOM      2  C   UNL     1       4.139   5.821  17.604  0.00  0.00    +0.000 A 
ATOM      3  N   UNL     1       3.677   7.061  17.483  0.00  0.00    +0.000 NA
ATOM      4  C   UNL     1       2.848   7.320  18.531  0.00  0.00    +0.000 A 
ATOM      5  C   UNL     1       2.180   8.523  18.869  0.00  0.00    +0.000 A 
ATOM      6  C   UNL     1       1.307   8.583  19.975  0.00  0.00    +0.000 A 
ATOM      7  C   UNL     1       1.148   7.409  20.716  0.00  0.00    +0.000 A 
ATOM      8  C   UNL     1       1.825   6.225  20.414  0.00  0.00    +0.000 A 
ATOM      9  C   UNL     1       2.681   6.183  19.306  0.00  0.00    +0.000 A 
ENDROOT
BRANCH   6  10
ATOM     10  C   UNL     1       0.533   9.784  20.345  0.00  0.00    +0.000 A 
ATOM     11  C   UNL     1      -0.473  10.330  19.575  0.00  0.00    +0.000 A 
ATOM     12  N   UNL     1      -1.262  11.365  19.952  0.00  0.00    +0.000 NA
ATOM     13  C   UNL     1      -1.046  11.870  21.170  0.00  0.00    +0.000 A 
ATOM     14  N   UNL     1      -1.861  12.895  21.598  0.00  0.00    +0.000 N 
ATOM     15  N   UNL     1      -0.071  11.477  21.990  0.00  0.00    +0.000 NA
ATOM     16  C   UNL     1       0.689  10.447  21.556  0.00  0.00    +0.000 A 
ATOM     17  H   UNL     1      -2.242  13.379  20.801  0.00  0.00    +0.000 HD
ATOM     18  H   UNL     1      -1.381  13.441  22.300  0.00  0.00    +0.000 HD
ENDBRANCH   6  10
BRANCH   2  19
ATOM     19  C   UNL     1       5.109   5.289  16.577  0.00  0.00    +0.000 A 
ATOM     20  C   UNL     1       4.735   4.425  15.537  0.00  0.00    +0.000 A 
ATOM     21  C   UNL     1       5.535   4.148  14.430  0.00  0.00    +0.000 A 
ATOM     22  C   UNL     1       6.756   4.757  14.354  0.00  0.00    +0.000 A 
ATOM     23  N   UNL     1       7.215   5.566  15.321  0.00  0.00    +0.000 NA
ATOM     24  C   UNL     1       6.424   5.779  16.435  0.00  0.00    +0.000 A 
BRANCH  24  25
ATOM     25  N   UNL     1       7.104   6.464  17.481  0.00  0.00    +0.000 N 
ATOM     26  C   UNL     1       7.567   7.760  17.404  0.00  0.00    +0.000 A 
ATOM     27  N   UNL     1       8.340   8.038  18.424  0.00  0.00    +0.000 NA
ATOM     28  C   UNL     1       8.373   6.854  19.096  0.00  0.00    +0.000 A 
ATOM     29  N   UNL     1       7.671   5.855  18.559  0.00  0.00    +0.000 NA
ENDBRANCH  24  25
ENDBRANCH   2  19
BRANCH   1  31
ATOM     30  C   UNL     1       2.659   3.576  20.385  0.00  0.00    +0.000 C 
ATOM     31  C   UNL     1       3.599   3.797  19.171  0.00  0.00    +0.000 C 
ATOM     32  C   UNL     1       5.095   3.408  19.324  0.00  0.00    +0.000 C 
ATOM     33  C   UNL     1       3.108   2.689  18.191  0.00  0.00    +0.000 C 
ENDBRANCH   1  31
TORSDOF 4
ENDMDL
MODEL 9
REMARK VINA RESULT:      -8.7      1.558      1.999
REMARK  Name = 
REMARK  7 active torsions:
REMARK  status: ('A' for Active; 'I' for Inactive)
REMARK    1  A    between atoms: C_1  and  C_2
REMARK    2  A    between atoms: C_2  and  C_3
REMARK    3  A    between atoms: C_2  and  C_4
REMARK    4  A    between atoms: C_2  and  N_5
REMARK    5  A    between atoms: C_6  and  C_7
REMARK    6  A    between atoms: C_12  and  N_13
REMARK    7  A    between atoms: C_21  and  C_22
REMARK                            x       y       z     vdW  Elec       q    Type
REMARK                         _______ _______ _______ _____ _____    ______ ____
ROOT
ATOM      1  N   UNL     1       3.457   5.679  18.624  0.00  0.00    +0.000 N 
ATOM      2  C   UNL     1       4.156   6.135  17.470  0.00  0.00    +0.000 A 
ATOM      3  N   UNL     1       3.716   7.352  17.169  0.00  0.00    +0.000 NA
ATOM      4  C   UNL     1       2.861   7.760  18.146  0.00  0.00    +0.000 A 
ATOM      5  C   UNL     1       2.201   9.005  18.298  0.00  0.00    +0.000 A 
ATOM      6  C   UNL     1       1.298   9.224  19.359  0.00  0.00    +0.000 A 
ATOM      7  C   UNL     1       1.101   8.164  20.247  0.00  0.00    +0.000 A 
ATOM      8  C   UNL     1       1.769   6.942  20.129  0.00  0.00    +0.000 A 
ATOM      9  C   UNL     1       2.655   6.740  19.063  0.00  0.00    +0.000 A 
ENDROOT
BRANCH   6  10
ATOM     10  C   UNL     1       0.533  10.473  19.539  0.00  0.00    +0.000 A 
ATOM     11  C   UNL     1       1.103  11.718  19.709  0.00  0.00    +0.000 A 
ATOM     12  N   UNL     1       0.415  12.883  19.768  0.00  0.00    +0.000 NA
ATOM     13  C   UNL     1      -0.912  12.803  19.632  0.00  0.00    +0.000 A 
ATOM     14  N   UNL     1      -1.634  13.976  19.644  0.00  0.00    +0.000 N 
ATOM     15  N   UNL     1      -1.594  11.663  19.522  0.00  0.00    +0.000 NA
ATOM     16  C   UNL     1      -0.854  10.532  19.478  0.00  0.00    +0.000 A 
ATOM     17  H   UNL     1      -1.118  14.686  20.139  0.00  0.00    +0.000 HD
ATOM     18  H   UNL     1      -2.582  13.789  19.936  0.00  0.00    +0.000 HD
ENDBRANCH   6  10
BRANCH   2  19
ATOM     19  C   UNL     1       5.146   5.458  16.555  0.00  0.00    +0.000 A 
ATOM     20  C   UNL     1       4.780   4.511  15.586  0.00  0.00    +0.000 A 
ATOM     21  C   UNL     1       5.618   4.087  14.557  0.00  0.00    +0.000 A 
ATOM     22  C   UNL     1       6.871   4.628  14.487  0.00  0.00    +0.000 A 
ATOM     23  N   UNL     1       7.323   5.509  15.394  0.00  0.00    +0.000 NA
ATOM     24  C   UNL     1       6.490   5.870  16.437  0.00  0.00    +0.000 A 
BRANCH  24  25
ATOM     25  N   UNL     1       7.152   6.625  17.446  0.00  0.00    +0.000 N 
ATOM     26  C   UNL     1       7.564   7.933  17.309  0.00  0.00    +0.000 A 
ATOM     27  N   UNL     1       8.334   8.284  18.308  0.00  0.00    +0.000 NA
ATOM     28  C   UNL     1       8.419   7.132  19.030  0.00  0.00    +0.000 A 
ATOM     29  N   UNL     1       7.751   6.084  18.542  0.00  0.00    +0.000 NA
ENDBRANCH  24  25
ENDBRANCH   2  19
BRANCH   1  31
ATOM     30  C   UNL     1       2.695   4.361  20.580  0.00  0.00    +0.000 C 
ATOM     31  C   UNL     1       3.541   4.349  19.281  0.00  0.00    +0.000 C 
ATOM     32  C   UNL     1       5.023   3.892  19.377  0.00  0.00    +0.000 C 
ATOM     33  C   UNL     1       2.914   3.147  18.511  0.00  0.00    +0.000 C 
ENDBRANCH   1  31
TORSDOF 4
ENDMDL
