MODEL 1
REMARK VINA RESULT:      -7.8      0.000      0.000
REMARK  Name = 
REMARK  2 active torsions:
REMARK  status: ('A' for Active; 'I' for Inactive)
REMARK    1  A    between atoms: C_1  and  C_2
REMARK    2  A    between atoms: C_20  and  C_21
REMARK                            x       y       z     vdW  Elec       q    Type
REMARK                         _______ _______ _______ _____ _____    ______ ____
ROOT
ATOM      1  C   UNL     1       3.806   1.478  17.995  0.00  0.00    +0.000 C 
ATOM      2  C   UNL     1       3.839   2.935  17.716  0.00  0.00    +0.000 A 
ATOM      3  C   UNL     1       4.483   3.608  16.695  0.00  0.00    +0.000 A 
ATOM      4  O   UNL     1       4.260   4.958  16.773  0.00  0.00    +0.000 OA
ATOM      5  C   UNL     1       3.489   5.143  17.868  0.00  0.00    +0.000 A 
ATOM      6  C   UNL     1       3.206   3.949  18.475  0.00  0.00    +0.000 A 
ATOM      7  C   UNL     1       2.390   3.951  19.654  0.00  0.00    +0.000 C 
ATOM      8  O   UNL     1       1.866   2.943  20.106  0.00  0.00    +0.000 OA
ATOM      9  C   UNL     1       2.190   5.316  20.332  0.00  0.00    +0.000 C 
ATOM     10  O   UNL     1       1.987   5.341  21.537  0.00  0.00    +0.000 OA
ATOM     11  C   UNL     1       2.302   6.560  19.481  0.00  0.00    +0.000 A 
ATOM     12  C   UNL     1       2.992   6.457  18.252  0.00  0.00    +0.000 A 
ATOM     13  C   UNL     1       3.113   7.573  17.438  0.00  0.00    +0.000 A 
ATOM     14  C   UNL     1       2.508   8.776  17.812  0.00  0.00    +0.000 A 
ATOM     15  C   UNL     1       1.798   8.913  19.025  0.00  0.00    +0.000 A 
ATOM     16  C   UNL     1       1.712   7.791  19.882  0.00  0.00    +0.000 A 
ATOM     17  C   UNL     1       0.994   7.875  21.210  0.00  0.00    +0.000 C 
ATOM     18  C   UNL     1       0.250   9.155  21.549  0.00  0.00    +0.000 C 
ATOM     19  C   UNL     1       0.738  10.385  20.817  0.00  0.00    +0.000 C 
ATOM     20  C   UNL     1       0.969  10.163  19.314  0.00  0.00    +0.000 C 
ATOM     21  C   UNL     1       1.468  11.499  18.731  0.00  0.00    +0.000 C 
ENDROOT
TORSDOF 0
ENDMDL
MODEL 2
REMARK VINA RESULT:      -7.4      1.302      1.613
REMARK  Name = 
REMARK  2 active torsions:
REMARK  status: ('A' for Active; 'I' for Inactive)
REMARK    1  A    between atoms: C_1  and  C_2
REMARK    2  A    between atoms: C_20  and  C_21
REMARK                            x       y       z     vdW  Elec       q    Type
REMARK                         _______ _______ _______ _____ _____    ______ ____
ROOT
ATOM      1  C   UNL     1       5.243   3.501  16.615  0.00  0.00    +0.000 C 
ATOM      2  C   UNL     1       4.811   4.917  16.711  0.00  0.00    +0.000 A 
ATOM      3  C   UNL     1       5.166   5.988  15.913  0.00  0.00    +0.000 A 
ATOM      4  O   UNL     1       4.540   7.138  16.318  0.00  0.00    +0.000 OA
ATOM      5  C   UNL     1       3.802   6.796  17.399  0.00  0.00    +0.000 A 
ATOM      6  C   UNL     1       3.932   5.462  17.677  0.00  0.00    +0.000 A 
ATOM      7  C   UNL     1       3.212   4.917  18.792  0.00  0.00    +0.000 C 
ATOM      8  O   UNL     1       3.048   3.718  18.959  0.00  0.00    +0.000 OA
ATOM      9  C   UNL     1       2.632   5.938  19.783  0.00  0.00    +0.000 C 
ATOM     10  O   UNL     1       2.488   5.600  20.948  0.00  0.00    +0.000 OA
ATOM     11  C   UNL     1       2.312   7.326  19.275  0.00  0.00    +0.000 A 
ATOM     12  C   UNL     1       2.941   7.751  18.082  0.00  0.00    +0.000 A 
ATOM     13  C   UNL     1       2.673   9.015  17.578  0.00  0.00    +0.000 A 
ATOM     14  C   UNL     1       1.743   9.837  18.221  0.00  0.00    +0.000 A 
ATOM     15  C   UNL     1       1.083   9.441  19.405  0.00  0.00    +0.000 A 
ATOM     16  C   UNL     1       1.390   8.172  19.950  0.00  0.00    +0.000 A 
ATOM     17  C   UNL     1       0.745   7.696  21.233  0.00  0.00    +0.000 C 
ATOM     18  C   UNL     1      -0.342   8.554  21.857  0.00  0.00    +0.000 C 
ATOM     19  C   UNL     1      -0.294  10.017  21.472  0.00  0.00    +0.000 C 
ATOM     20  C   UNL     1      -0.077  10.257  19.970  0.00  0.00    +0.000 C 
ATOM     21  C   UNL     1      -0.045  11.783  19.757  0.00  0.00    +0.000 C 
ENDROOT
TORSDOF 0
ENDMDL
MODEL 3
REMARK VINA RESULT:      -7.3      1.613      3.748
REMARK  Name = 
REMARK  2 active torsions:
REMARK  status: ('A' for Active; 'I' for Inactive)
REMARK    1  A    between atoms: C_1  and  C_2
REMARK    2  A    between atoms: C_20  and  C_21
REMARK                            x       y       z     vdW  Elec       q    Type
REMARK                         _______ _______ _______ _____ _____    ______ ____
ROOT
ATOM      1  C   UNL     1       4.490   4.265  17.999  0.00  0.00    +0.000 C 
ATOM      2  C   UNL     1       3.541   4.892  18.952  0.00  0.00    +0.000 A 
ATOM      3  C   UNL     1       2.948   4.344  20.074  0.00  0.00    +0.000 A 
ATOM      4  O   UNL     1       2.138   5.253  20.702  0.00  0.00    +0.000 OA
ATOM      5  C   UNL     1       2.199   6.380  19.957  0.00  0.00    +0.000 A 
ATOM      6  C   UNL     1       3.035   6.213  18.886  0.00  0.00    +0.000 A 
ATOM      7  C   UNL     1       3.227   7.311  17.984  0.00  0.00    +0.000 C 
ATOM      8  O   UNL     1       4.138   7.356  17.170  0.00  0.00    +0.000 OA
ATOM      9  C   UNL     1       2.216   8.463  18.100  0.00  0.00    +0.000 C 
ATOM     10  O   UNL     1       1.980   9.132  17.105  0.00  0.00    +0.000 OA
ATOM     11  C   UNL     1       1.530   8.680  19.430  0.00  0.00    +0.000 A 
ATOM     12  C   UNL     1       1.506   7.601  20.342  0.00  0.00    +0.000 A 
ATOM     13  C   UNL     1       0.891   7.759  21.575  0.00  0.00    +0.000 A 
ATOM     14  C   UNL     1       0.348   8.997  21.929  0.00  0.00    +0.000 A 
ATOM     15  C   UNL     1       0.368  10.103  21.050  0.00  0.00    +0.000 A 
ATOM     16  C   UNL     1       0.951   9.933  19.772  0.00  0.00    +0.000 A 
ATOM     17  C   UNL     1       0.978  11.065  18.769  0.00  0.00    +0.000 C 
ATOM     18  C   UNL     1       0.484  12.433  19.209  0.00  0.00    +0.000 C 
ATOM     19  C   UNL     1      -0.476  12.414  20.379  0.00  0.00    +0.000 C 
ATOM     20  C   UNL     1      -0.035  11.496  21.530  0.00  0.00    +0.000 C 
ATOM     21  C   UNL     1      -1.118  11.588  22.622  0.00  0.00    +0.000 C 
ENDROOT
TORSDOF 0
ENDMDL
MODEL 4
REMARK VINA RESULT:      -7.3      2.531      6.534
REMARK  Name = 
REMARK  2 active torsions:
REMARK  status: ('A' for Active; 'I' for Inactive)
REMARK    1  A    between atoms: C_1  and  C_2
REMARK    2  A    between atoms: C_20  and  C_21
REMARK                            x       y       z     vdW  Elec       q    Type
REMARK                         _______ _______ _______ _____ _____    ______ ____
ROOT
ATOM      1  C   UNL     1      -0.588  13.574  21.502  0.00  0.00    +0.000 C 
ATOM      2  C   UNL     1       0.030  12.710  20.466  0.00  0.00    +0.000 A 
ATOM      3  C   UNL     1       0.411  13.037  19.178  0.00  0.00    +0.000 A 
ATOM      4  O   UNL     1       0.961  11.959  18.535  0.00  0.00    +0.000 OA
ATOM      5  C   UNL     1       0.904  10.934  19.415  0.00  0.00    +0.000 A 
ATOM      6  C   UNL     1       0.348  11.336  20.599  0.00  0.00    +0.000 A 
ATOM      7  C   UNL     1       0.212  10.379  21.658  0.00  0.00    +0.000 C 
ATOM      8  O   UNL     1      -0.014  10.691  22.817  0.00  0.00    +0.000 OA
ATOM      9  C   UNL     1       0.381   8.904  21.257  0.00  0.00    +0.000 C 
ATOM     10  O   UNL     1      -0.204   8.054  21.912  0.00  0.00    +0.000 OA
ATOM     11  C   UNL     1       1.226   8.585  20.045  0.00  0.00    +0.000 A 
ATOM     12  C   UNL     1       1.451   9.620  19.109  0.00  0.00    +0.000 A 
ATOM     13  C   UNL     1       2.224   9.371  17.985  0.00  0.00    +0.000 A 
ATOM     14  C   UNL     1       2.820   8.118  17.813  0.00  0.00    +0.000 A 
ATOM     15  C   UNL     1       2.631   7.065  18.735  0.00  0.00    +0.000 A 
ATOM     16  C   UNL     1       1.803   7.299  19.858  0.00  0.00    +0.000 A 
ATOM     17  C   UNL     1       1.531   6.207  20.869  0.00  0.00    +0.000 C 
ATOM     18  C   UNL     1       2.273   4.889  20.726  0.00  0.00    +0.000 C 
ATOM     19  C   UNL     1       2.770   4.590  19.328  0.00  0.00    +0.000 C 
ATOM     20  C   UNL     1       3.454   5.783  18.643  0.00  0.00    +0.000 C 
ATOM     21  C   UNL     1       3.886   5.312  17.241  0.00  0.00    +0.000 C 
ENDROOT
TORSDOF 0
ENDMDL
MODEL 5
REMARK VINA RESULT:      -7.3      1.712      6.570
REMARK  Name = 
REMARK  2 active torsions:
REMARK  status: ('A' for Active; 'I' for Inactive)
REMARK    1  A    between atoms: C_1  and  C_2
REMARK    2  A    between atoms: C_20  and  C_21
REMARK                            x       y       z     vdW  Elec       q    Type
REMARK                         _______ _______ _______ _____ _____    ______ ____
ROOT
ATOM      1  C   UNL     1       0.328  11.414  19.924  0.00  0.00    +0.000 C 
ATOM      2  C   UNL     1       0.649  10.029  20.348  0.00  0.00    +0.000 A 
ATOM      3  C   UNL     1       0.333   9.390  21.532  0.00  0.00    +0.000 A 
ATOM      4  O   UNL     1       0.797   8.100  21.539  0.00  0.00    +0.000 OA
ATOM      5  C   UNL     1       1.434   7.930  20.358  0.00  0.00    +0.000 A 
ATOM      6  C   UNL     1       1.373   9.069  19.601  0.00  0.00    +0.000 A 
ATOM      7  C   UNL     1       1.992   9.071  18.308  0.00  0.00    +0.000 C 
ATOM      8  O   UNL     1       1.768   9.923  17.460  0.00  0.00    +0.000 OA
ATOM      9  C   UNL     1       2.966   7.916  18.026  0.00  0.00    +0.000 C 
ATOM     10  O   UNL     1       3.880   8.106  17.237  0.00  0.00    +0.000 OA
ATOM     11  C   UNL     1       2.771   6.617  18.774  0.00  0.00    +0.000 A 
ATOM     12  C   UNL     1       2.018   6.654  19.970  0.00  0.00    +0.000 A 
ATOM     13  C   UNL     1       1.811   5.484  20.686  0.00  0.00    +0.000 A 
ATOM     14  C   UNL     1       2.300   4.271  20.194  0.00  0.00    +0.000 A 
ATOM     15  C   UNL     1       3.042   4.193  18.994  0.00  0.00    +0.000 A 
ATOM     16  C   UNL     1       3.298   5.390  18.286  0.00  0.00    +0.000 A 
ATOM     17  C   UNL     1       4.113   5.385  17.012  0.00  0.00    +0.000 C 
ATOM     18  C   UNL     1       4.541   4.047  16.434  0.00  0.00    +0.000 C 
ATOM     19  C   UNL     1       4.601   2.914  17.435  0.00  0.00    +0.000 C 
ATOM     20  C   UNL     1       3.381   2.843  18.367  0.00  0.00    +0.000 C 
ATOM     21  C   UNL     1       3.608   1.652  19.317  0.00  0.00    +0.000 C 
ENDROOT
TORSDOF 0
ENDMDL
MODEL 6
REMARK VINA RESULT:      -7.1      1.761      5.884
REMARK  Name = 
REMARK  2 active torsions:
REMARK  status: ('A' for Active; 'I' for Inactive)
REMARK    1  A    between atoms: C_1  and  C_2
REMARK    2  A    between atoms: C_20  and  C_21
REMARK                            x       y       z     vdW  Elec       q    Type
REMARK                         _______ _______ _______ _____ _____    ______ ____
ROOT
ATOM      1  C   UNL     1      -0.052  11.215  20.988  0.00  0.00    +0.000 C 
ATOM      2  C   UNL     1       0.699  10.536  19.903  0.00  0.00    +0.000 A 
ATOM      3  C   UNL     1       1.029  11.010  18.648  0.00  0.00    +0.000 A 
ATOM      4  O   UNL     1       1.744  10.082  17.938  0.00  0.00    +0.000 OA
ATOM      5  C   UNL     1       1.846   8.999  18.743  0.00  0.00    +0.000 A 
ATOM      6  C   UNL     1       1.229   9.224  19.944  0.00  0.00    +0.000 A 
ATOM      7  C   UNL     1       1.241   8.183  20.930  0.00  0.00    +0.000 C 
ATOM      8  O   UNL     1       0.964   8.372  22.106  0.00  0.00    +0.000 OA
ATOM      9  C   UNL     1       1.643   6.786  20.430  0.00  0.00    +0.000 C 
ATOM     10  O   UNL     1       1.197   5.810  21.013  0.00  0.00    +0.000 OA
ATOM     11  C   UNL     1       2.533   6.691  19.211  0.00  0.00    +0.000 A 
ATOM     12  C   UNL     1       2.595   7.813  18.354  0.00  0.00    +0.000 A 
ATOM     13  C   UNL     1       3.403   7.771  17.227  0.00  0.00    +0.000 A 
ATOM     14  C   UNL     1       4.189   6.643  16.976  0.00  0.00    +0.000 A 
ATOM     15  C   UNL     1       4.165   5.509  17.819  0.00  0.00    +0.000 A 
ATOM     16  C   UNL     1       3.306   5.528  18.943  0.00  0.00    +0.000 A 
ATOM     17  C   UNL     1       3.206   4.338  19.870  0.00  0.00    +0.000 C 
ATOM     18  C   UNL     1       4.147   3.166  19.646  0.00  0.00    +0.000 C 
ATOM     19  C   UNL     1       4.691   3.050  18.239  0.00  0.00    +0.000 C 
ATOM     20  C   UNL     1       5.181   4.382  17.650  0.00  0.00    +0.000 C 
ATOM     21  C   UNL     1       5.687   4.087  16.225  0.00  0.00    +0.000 C 
ENDROOT
TORSDOF 0
ENDMDL
MODEL 7
REMARK VINA RESULT:      -7.1      3.076      5.201
REMARK  Name = 
REMARK  2 active torsions:
REMARK  status: ('A' for Active; 'I' for Inactive)
REMARK    1  A    between atoms: C_1  and  C_2
REMARK    2  A    between atoms: C_20  and  C_21
REMARK                            x       y       z     vdW  Elec       q    Type
REMARK                         _______ _______ _______ _____ _____    ______ ____
ROOT
ATOM      1  C   UNL     1       8.208   5.731  13.741  0.00  0.00    +0.000 C 
ATOM      2  C   UNL     1       7.039   4.944  14.205  0.00  0.00    +0.000 A 
ATOM      3  C   UNL     1       6.493   3.798  13.658  0.00  0.00    +0.000 A 
ATOM      4  O   UNL     1       5.420   3.362  14.390  0.00  0.00    +0.000 OA
ATOM      5  C   UNL     1       5.270   4.255  15.396  0.00  0.00    +0.000 A 
ATOM      6  C   UNL     1       6.226   5.232  15.327  0.00  0.00    +0.000 A 
ATOM      7  C   UNL     1       6.226   6.267  16.321  0.00  0.00    +0.000 C 
ATOM      8  O   UNL     1       7.175   7.015  16.507  0.00  0.00    +0.000 OA
ATOM      9  C   UNL     1       4.951   6.384  17.171  0.00  0.00    +0.000 C 
ATOM     10  O   UNL     1       4.657   7.478  17.629  0.00  0.00    +0.000 OA
ATOM     11  C   UNL     1       4.100   5.149  17.358  0.00  0.00    +0.000 A 
ATOM     12  C   UNL     1       4.255   4.096  16.428  0.00  0.00    +0.000 A 
ATOM     13  C   UNL     1       3.498   2.942  16.565  0.00  0.00    +0.000 A 
ATOM     14  C   UNL     1       2.627   2.807  17.650  0.00  0.00    +0.000 A 
ATOM     15  C   UNL     1       2.457   3.831  18.607  0.00  0.00    +0.000 A 
ATOM     16  C   UNL     1       3.191   5.029  18.445  0.00  0.00    +0.000 A 
ATOM     17  C   UNL     1       3.035   6.179  19.414  0.00  0.00    +0.000 C 
ATOM     18  C   UNL     1       2.169   5.973  20.646  0.00  0.00    +0.000 C 
ATOM     19  C   UNL     1       1.131   4.880  20.516  0.00  0.00    +0.000 C 
ATOM     20  C   UNL     1       1.669   3.583  19.892  0.00  0.00    +0.000 C 
ATOM     21  C   UNL     1       0.492   2.591  19.825  0.00  0.00    +0.000 C 
ENDROOT
TORSDOF 0
ENDMDL
MODEL 8
REMARK VINA RESULT:      -7.1      1.369      3.280
REMARK  Name = 
REMARK  2 active torsions:
REMARK  status: ('A' for Active; 'I' for Inactive)
REMARK    1  A    between atoms: C_1  and  C_2
REMARK    2  A    between atoms: C_20  and  C_21
REMARK                            x       y       z     vdW  Elec       q    Type
REMARK                         _______ _______ _______ _____ _____    ______ ____
ROOT
ATOM      1  C   UNL     1       5.691   3.938  16.083  0.00  0.00    +0.000 C 
ATOM      2  C   UNL     1       4.679   4.138  17.150  0.00  0.00    +0.000 A 
ATOM      3  C   UNL     1       4.091   3.198  17.976  0.00  0.00    +0.000 A 
ATOM      4  O   UNL     1       3.210   3.784  18.846  0.00  0.00    +0.000 OA
ATOM      5  C   UNL     1       3.221   5.104  18.552  0.00  0.00    +0.000 A 
ATOM      6  C   UNL     1       4.093   5.370  17.532  0.00  0.00    +0.000 A 
ATOM      7  C   UNL     1       4.242   6.725  17.086  0.00  0.00    +0.000 C 
ATOM      8  O   UNL     1       5.170   7.101  16.386  0.00  0.00    +0.000 OA
ATOM      9  C   UNL     1       3.158   7.710  17.555  0.00  0.00    +0.000 C 
ATOM     10  O   UNL     1       2.908   8.676  16.851  0.00  0.00    +0.000 OA
ATOM     11  C   UNL     1       2.424   7.406  18.841  0.00  0.00    +0.000 A 
ATOM     12  C   UNL     1       2.442   6.073  19.310  0.00  0.00    +0.000 A 
ATOM     13  C   UNL     1       1.786   5.751  20.489  0.00  0.00    +0.000 A 
ATOM     14  C   UNL     1       1.158   6.755  21.231  0.00  0.00    +0.000 A 
ATOM     15  C   UNL     1       1.132   8.101  20.803  0.00  0.00    +0.000 A 
ATOM     16  C   UNL     1       1.759   8.425  19.577  0.00  0.00    +0.000 A 
ATOM     17  C   UNL     1       1.743   9.839  19.041  0.00  0.00    +0.000 C 
ATOM     18  C   UNL     1       1.153  10.935  19.913  0.00  0.00    +0.000 C 
ATOM     19  C   UNL     1       0.165  10.455  20.954  0.00  0.00    +0.000 C 
ATOM     20  C   UNL     1       0.631   9.210  21.725  0.00  0.00    +0.000 C 
ATOM     21  C   UNL     1      -0.485   8.855  22.726  0.00  0.00    +0.000 C 
ENDROOT
TORSDOF 0
ENDMDL
MODEL 9
REMARK VINA RESULT:      -7.0      1.279      3.207
REMARK  Name = 
REMARK  2 active torsions:
REMARK  status: ('A' for Active; 'I' for Inactive)
REMARK    1  A    between atoms: C_1  and  C_2
REMARK    2  A    between atoms: C_20  and  C_21
REMARK                            x       y       z     vdW  Elec       q    Type
REMARK                         _______ _______ _______ _____ _____    ______ ____
ROOT
ATOM      1  C   UNL     1       4.492   1.972  19.788  0.00  0.00    +0.000 C 
ATOM      2  C   UNL     1       3.509   2.973  20.273  0.00  0.00    +0.000 A 
ATOM      3  C   UNL     1       2.576   2.852  21.285  0.00  0.00    +0.000 A 
ATOM      4  O   UNL     1       1.858   4.009  21.440  0.00  0.00    +0.000 OA
ATOM      5  C   UNL     1       2.324   4.862  20.499  0.00  0.00    +0.000 A 
ATOM      6  C   UNL     1       3.324   4.282  19.766  0.00  0.00    +0.000 A 
ATOM      7  C   UNL     1       3.945   5.044  18.722  0.00  0.00    +0.000 C 
ATOM      8  O   UNL     1       5.004   4.726  18.201  0.00  0.00    +0.000 OA
ATOM      9  C   UNL     1       3.204   6.319  18.287  0.00  0.00    +0.000 C 
ATOM     10  O   UNL     1       3.347   6.710  17.139  0.00  0.00    +0.000 OA
ATOM     11  C   UNL     1       2.298   6.996  19.291  0.00  0.00    +0.000 A 
ATOM     12  C   UNL     1       1.839   6.230  20.386  0.00  0.00    +0.000 A 
ATOM     13  C   UNL     1       1.010   6.814  21.332  0.00  0.00    +0.000 A 
ATOM     14  C   UNL     1       0.679   8.167  21.226  0.00  0.00    +0.000 A 
ATOM     15  C   UNL     1       1.132   8.969  20.155  0.00  0.00    +0.000 A 
ATOM     16  C   UNL     1       1.938   8.366  19.161  0.00  0.00    +0.000 A 
ATOM     17  C   UNL     1       2.431   9.156  17.970  0.00  0.00    +0.000 C 
ATOM     18  C   UNL     1       2.154  10.649  17.928  0.00  0.00    +0.000 C 
ATOM     19  C   UNL     1       0.974  11.099  18.762  0.00  0.00    +0.000 C 
ATOM     20  C   UNL     1       0.938  10.484  20.170  0.00  0.00    +0.000 C 
ATOM     21  C   UNL     1      -0.318  11.035  20.872  0.00  0.00    +0.000 C 
ENDROOT
TORSDOF 0
ENDMDL
