MODEL 1
REMARK VINA RESULT:      -6.6      0.000      0.000
REMARK  Name = 
REMARK  8 active torsions:
REMARK  status: ('A' for Active; 'I' for Inactive)
REMARK    1  A    between atoms: C_1  and  N_2
REMARK    2  A    between atoms: N_2  and  C_3
REMARK    3  A    between atoms: N_2  and  S_22
REMARK    4  A    between atoms: C_7  and  C_8
REMARK    5  A    between atoms: N_13  and  C_14
REMARK    6  A    between atoms: C_14  and  C_15
REMARK    7  A    between atoms: N_19  and  C_20
REMARK    8  A    between atoms: S_22  and  C_25
REMARK                            x       y       z     vdW  Elec       q    Type
REMARK                         _______ _______ _______ _____ _____    ______ ____
ROOT
ATOM      1  C   UNL     1      -0.491  12.489  19.407  0.00  0.00    +0.000 C 
ATOM      2  C   UNL     1      -0.763  13.938  19.865  0.00  0.00    +0.000 C 
ATOM      3  C   UNL     1      -1.411  13.851  21.218  0.00  0.00    +0.000 A 
ATOM      4  C   UNL     1      -0.944  14.557  22.331  0.00  0.00    +0.000 A 
ATOM      5  C   UNL     1      -1.567  14.385  23.572  0.00  0.00    +0.000 A 
ATOM      6  C   UNL     1      -2.669  13.536  23.691  0.00  0.00    +0.000 A 
ATOM      7  C   UNL     1      -3.133  12.838  22.577  0.00  0.00    +0.000 A 
ATOM      8  C   UNL     1      -2.494  12.972  21.339  0.00  0.00    +0.000 A 
ATOM      9  N   UNL     1      -2.953  12.256  20.224  0.00  0.00    +0.000 N 
ATOM     10  C   UNL     1      -1.886  11.808  19.262  0.00  0.00    +0.000 C 
ENDROOT
BRANCH   1  12
ATOM     11  C   UNL     1       1.742  12.710  20.583  0.00  0.00    +0.000 C 
ATOM     12  N   UNL     1       0.583  11.840  20.271  0.00  0.00    +0.000 NA
BRANCH  12  13
ATOM     13  S   UNL     1       0.498  10.348  21.066  0.00  0.00    +0.000 S 
ATOM     14  O   UNL     1       1.474  10.374  22.140  0.00  0.00    +0.000 OA
ATOM     15  O   UNL     1      -0.872   9.996  21.346  0.00  0.00    +0.000 OA
BRANCH  13  16
ATOM     16  C   UNL     1       1.101   9.105  19.899  0.00  0.00    +0.000 A 
ATOM     17  C   UNL     1       1.317   9.454  18.558  0.00  0.00    +0.000 A 
ATOM     18  C   UNL     1       2.057   8.607  17.720  0.00  0.00    +0.000 A 
ATOM     19  C   UNL     1       2.598   7.421  18.217  0.00  0.00    +0.000 A 
ATOM     20  C   UNL     1       2.388   7.069  19.550  0.00  0.00    +0.000 A 
ATOM     21  C   UNL     1       1.643   7.908  20.392  0.00  0.00    +0.000 A 
ENDBRANCH  13  16
ENDBRANCH  12  13
ENDBRANCH   1  12
BRANCH   5  22
ATOM     22  C   UNL     1      -1.069  15.077  24.721  0.00  0.00    +0.000 C 
ATOM     23  N   UNL     1      -0.671  15.648  25.641  0.00  0.00    +0.000 NA
ENDBRANCH   5  22
BRANCH   9  24
ATOM     24  C   UNL     1      -4.127  12.927  19.632  0.00  0.00    +0.000 C 
BRANCH  24  25
ATOM     25  C   UNL     1      -5.314  12.057  19.425  0.00  0.00    +0.000 A 
ATOM     26  C   UNL     1      -6.291  11.652  20.311  0.00  0.00    +0.000 A 
ATOM     27  N   UNL     1      -7.230  10.876  19.689  0.00  0.00    +0.000 NA
ATOM     28  C   UNL     1      -6.823  10.777  18.443  0.00  0.00    +0.000 A 
ATOM     29  N   UNL     1      -5.635  11.423  18.249  0.00  0.00    +0.000 N 
ATOM     30  C   UNL     1      -4.863  11.383  17.032  0.00  0.00    +0.000 C 
ENDBRANCH  24  25
ENDBRANCH   9  24
TORSDOF 6
ENDMDL
MODEL 2
REMARK VINA RESULT:      -6.5      0.681      1.461
REMARK  Name = 
REMARK  8 active torsions:
REMARK  status: ('A' for Active; 'I' for Inactive)
REMARK    1  A    between atoms: C_1  and  N_2
REMARK    2  A    between atoms: N_2  and  C_3
REMARK    3  A    between atoms: N_2  and  S_22
REMARK    4  A    between atoms: C_7  and  C_8
REMARK    5  A    between atoms: N_13  and  C_14
REMARK    6  A    between atoms: C_14  and  C_15
REMARK    7  A    between atoms: N_19  and  C_20
REMARK    8  A    between atoms: S_22  and  C_25
REMARK                            x       y       z     vdW  Elec       q    Type
REMARK                         _______ _______ _______ _____ _____    ______ ____
ROOT
ATOM      1  C   UNL     1      -0.629  12.418  19.053  0.00  0.00    +0.000 C 
ATOM      2  C   UNL     1      -0.946  13.845  19.549  0.00  0.00    +0.000 C 
ATOM      3  C   UNL     1      -1.540  13.706  20.922  0.00  0.00    +0.000 A 
ATOM      4  C   UNL     1      -1.062  14.411  22.032  0.00  0.00    +0.000 A 
ATOM      5  C   UNL     1      -1.631  14.189  23.291  0.00  0.00    +0.000 A 
ATOM      6  C   UNL     1      -2.691  13.291  23.433  0.00  0.00    +0.000 A 
ATOM      7  C   UNL     1      -3.166  12.594  22.323  0.00  0.00    +0.000 A 
ATOM      8  C   UNL     1      -2.579  12.778  21.065  0.00  0.00    +0.000 A 
ATOM      9  N   UNL     1      -3.047  12.063  19.954  0.00  0.00    +0.000 N 
ATOM     10  C   UNL     1      -1.999  11.680  18.946  0.00  0.00    +0.000 C 
ENDROOT
BRANCH   1  12
ATOM     11  C   UNL     1       1.686  12.674  20.047  0.00  0.00    +0.000 C 
ATOM     12  N   UNL     1       0.502  11.800  19.865  0.00  0.00    +0.000 NA
BRANCH  12  13
ATOM     13  S   UNL     1       0.469  10.349  20.735  0.00  0.00    +0.000 S 
ATOM     14  O   UNL     1       1.178  10.575  21.980  0.00  0.00    +0.000 OA
ATOM     15  O   UNL     1      -0.863   9.797  20.754  0.00  0.00    +0.000 OA
BRANCH  13  16
ATOM     16  C   UNL     1       1.482   9.170  19.812  0.00  0.00    +0.000 A 
ATOM     17  C   UNL     1       1.819   7.937  20.391  0.00  0.00    +0.000 A 
ATOM     18  C   UNL     1       2.336   6.903  19.596  0.00  0.00    +0.000 A 
ATOM     19  C   UNL     1       2.503   7.085  18.224  0.00  0.00    +0.000 A 
ATOM     20  C   UNL     1       2.168   8.308  17.642  0.00  0.00    +0.000 A 
ATOM     21  C   UNL     1       1.657   9.348  18.431  0.00  0.00    +0.000 A 
ENDBRANCH  13  16
ENDBRANCH  12  13
ENDBRANCH   1  12
BRANCH   5  22
ATOM     22  C   UNL     1      -1.122  14.882  24.435  0.00  0.00    +0.000 C 
ATOM     23  N   UNL     1      -0.719  15.450  25.354  0.00  0.00    +0.000 NA
ENDBRANCH   5  22
BRANCH   9  24
ATOM     24  C   UNL     1      -4.270  12.693  19.418  0.00  0.00    +0.000 C 
BRANCH  24  25
ATOM     25  C   UNL     1      -5.466  11.812  19.371  0.00  0.00    +0.000 A 
ATOM     26  C   UNL     1      -5.865  10.895  18.421  0.00  0.00    +0.000 A 
ATOM     27  N   UNL     1      -7.022  10.268  18.794  0.00  0.00    +0.000 NA
ATOM     28  C   UNL     1      -7.351  10.812  19.944  0.00  0.00    +0.000 A 
ATOM     29  N   UNL     1      -6.474  11.795  20.306  0.00  0.00    +0.000 N 
ATOM     30  C   UNL     1      -6.635  12.670  21.440  0.00  0.00    +0.000 C 
ENDBRANCH  24  25
ENDBRANCH   9  24
TORSDOF 6
ENDMDL
MODEL 3
REMARK VINA RESULT:      -6.3      2.717      4.911
REMARK  Name = 
REMARK  8 active torsions:
REMARK  status: ('A' for Active; 'I' for Inactive)
REMARK    1  A    between atoms: C_1  and  N_2
REMARK    2  A    between atoms: N_2  and  C_3
REMARK    3  A    between atoms: N_2  and  S_22
REMARK    4  A    between atoms: C_7  and  C_8
REMARK    5  A    between atoms: N_13  and  C_14
REMARK    6  A    between atoms: C_14  and  C_15
REMARK    7  A    between atoms: N_19  and  C_20
REMARK    8  A    between atoms: S_22  and  C_25
REMARK                            x       y       z     vdW  Elec       q    Type
REMARK                         _______ _______ _______ _____ _____    ______ ____
ROOT
ATOM      1  C   UNL     1       0.787  11.658  20.183  0.00  0.00    +0.000 C 
ATOM      2  C   UNL     1       0.599  12.435  21.503  0.00  0.00    +0.000 C 
ATOM      3  C   UNL     1      -0.867  12.738  21.624  0.00  0.00    +0.000 A 
ATOM      4  C   UNL     1      -1.616  12.428  22.764  0.00  0.00    +0.000 A 
ATOM      5  C   UNL     1      -2.990  12.692  22.783  0.00  0.00    +0.000 A 
ATOM      6  C   UNL     1      -3.605  13.291  21.680  0.00  0.00    +0.000 A 
ATOM      7  C   UNL     1      -2.852  13.601  20.549  0.00  0.00    +0.000 A 
ATOM      8  C   UNL     1      -1.484  13.306  20.502  0.00  0.00    +0.000 A 
ATOM      9  N   UNL     1      -0.734  13.604  19.356  0.00  0.00    +0.000 N 
ATOM     10  C   UNL     1       0.372  12.634  19.040  0.00  0.00    +0.000 C 
ENDROOT
BRANCH   1  12
ATOM     11  C   UNL     1      -0.853   9.988  19.216  0.00  0.00    +0.000 C 
ATOM     12  N   UNL     1       0.149  10.278  20.269  0.00  0.00    +0.000 NA
BRANCH  12  13
ATOM     13  S   UNL     1       0.601   8.998  21.280  0.00  0.00    +0.000 S 
ATOM     14  O   UNL     1       1.489   9.539  22.293  0.00  0.00    +0.000 OA
ATOM     15  O   UNL     1      -0.552   8.225  21.672  0.00  0.00    +0.000 OA
BRANCH  13  16
ATOM     16  C   UNL     1       1.627   7.891  20.285  0.00  0.00    +0.000 A 
ATOM     17  C   UNL     1       1.719   6.533  20.624  0.00  0.00    +0.000 A 
ATOM     18  C   UNL     1       2.252   5.613  19.709  0.00  0.00    +0.000 A 
ATOM     19  C   UNL     1       2.679   6.036  18.451  0.00  0.00    +0.000 A 
ATOM     20  C   UNL     1       2.589   7.386  18.108  0.00  0.00    +0.000 A 
ATOM     21  C   UNL     1       2.063   8.312  19.019  0.00  0.00    +0.000 A 
ENDBRANCH  13  16
ENDBRANCH  12  13
ENDBRANCH   1  12
BRANCH   5  22
ATOM     22  C   UNL     1      -3.767  12.343  23.933  0.00  0.00    +0.000 C 
ATOM     23  N   UNL     1      -4.384  12.052  24.863  0.00  0.00    +0.000 NA
ENDBRANCH   5  22
BRANCH   9  24
ATOM     24  C   UNL     1      -0.372  15.036  19.339  0.00  0.00    +0.000 C 
BRANCH  24  25
ATOM     25  C   UNL     1       1.077  15.323  19.496  0.00  0.00    +0.000 A 
ATOM     26  C   UNL     1       2.120  15.172  18.606  0.00  0.00    +0.000 A 
ATOM     27  N   UNL     1       3.301  15.595  19.151  0.00  0.00    +0.000 NA
ATOM     28  C   UNL     1       2.998  15.974  20.372  0.00  0.00    +0.000 A 
ATOM     29  N   UNL     1       1.675  15.771  20.649  0.00  0.00    +0.000 N 
ATOM     30  C   UNL     1       1.064  15.955  21.942  0.00  0.00    +0.000 C 
ENDBRANCH  24  25
ENDBRANCH   9  24
TORSDOF 6
ENDMDL
MODEL 4
REMARK VINA RESULT:      -6.3      3.527      6.696
REMARK  Name = 
REMARK  8 active torsions:
REMARK  status: ('A' for Active; 'I' for Inactive)
REMARK    1  A    between atoms: C_1  and  N_2
REMARK    2  A    between atoms: N_2  and  C_3
REMARK    3  A    between atoms: N_2  and  S_22
REMARK    4  A    between atoms: C_7  and  C_8
REMARK    5  A    between atoms: N_13  and  C_14
REMARK    6  A    between atoms: C_14  and  C_15
REMARK    7  A    between atoms: N_19  and  C_20
REMARK    8  A    between atoms: S_22  and  C_25
REMARK                            x       y       z     vdW  Elec       q    Type
REMARK                         _______ _______ _______ _____ _____    ______ ____
ROOT
ATOM      1  C   UNL     1       0.700  13.343  18.907  0.00  0.00    +0.000 C 
ATOM      2  C   UNL     1      -0.786  12.942  19.026  0.00  0.00    +0.000 C 
ATOM      3  C   UNL     1      -0.948  12.269  20.359  0.00  0.00    +0.000 A 
ATOM      4  C   UNL     1      -1.922  12.649  21.288  0.00  0.00    +0.000 A 
ATOM      5  C   UNL     1      -1.979  12.012  22.532  0.00  0.00    +0.000 A 
ATOM      6  C   UNL     1      -1.087  10.980  22.833  0.00  0.00    +0.000 A 
ATOM      7  C   UNL     1      -0.121  10.603  21.902  0.00  0.00    +0.000 A 
ATOM      8  C   UNL     1      -0.029  11.259  20.669  0.00  0.00    +0.000 A 
ATOM      9  N   UNL     1       0.955  10.889  19.741  0.00  0.00    +0.000 N 
ATOM     10  C   UNL     1       1.513  12.012  18.910  0.00  0.00    +0.000 C 
ENDROOT
BRANCH   1  12
ATOM     11  C   UNL     1       2.031  14.059  20.938  0.00  0.00    +0.000 C 
ATOM     12  N   UNL     1       1.046  14.444  19.900  0.00  0.00    +0.000 NA
BRANCH  12  13
ATOM     13  S   UNL     1       0.602  16.076  19.821  0.00  0.00    +0.000 S 
ATOM     14  O   UNL     1       1.667  16.845  20.437  0.00  0.00    +0.000 OA
ATOM     15  O   UNL     1       0.140  16.415  18.498  0.00  0.00    +0.000 OA
BRANCH  13  16
ATOM     16  C   UNL     1      -0.827  16.276  20.912  0.00  0.00    +0.000 A 
ATOM     17  C   UNL     1      -2.119  16.321  20.367  0.00  0.00    +0.000 A 
ATOM     18  C   UNL     1      -3.239  16.173  21.199  0.00  0.00    +0.000 A 
ATOM     19  C   UNL     1      -3.078  15.963  22.568  0.00  0.00    +0.000 A 
ATOM     20  C   UNL     1      -1.795  15.916  23.115  0.00  0.00    +0.000 A 
ATOM     21  C   UNL     1      -0.671  16.070  22.291  0.00  0.00    +0.000 A 
ENDBRANCH  13  16
ENDBRANCH  12  13
ENDBRANCH   1  12
BRANCH   5  22
ATOM     22  C   UNL     1      -2.951  12.422  23.500  0.00  0.00    +0.000 C 
ATOM     23  N   UNL     1      -3.743  12.754  24.269  0.00  0.00    +0.000 NA
ENDBRANCH   5  22
BRANCH   9  24
ATOM     24  C   UNL     1       0.535   9.678  19.006  0.00  0.00    +0.000 C 
BRANCH  24  25
ATOM     25  C   UNL     1       1.615   8.688  18.752  0.00  0.00    +0.000 A 
ATOM     26  C   UNL     1       2.391   8.480  17.631  0.00  0.00    +0.000 A 
ATOM     27  N   UNL     1       3.300   7.479  17.839  0.00  0.00    +0.000 NA
ATOM     28  C   UNL     1       3.068   7.054  19.060  0.00  0.00    +0.000 A 
ATOM     29  N   UNL     1       2.016   7.713  19.632  0.00  0.00    +0.000 N 
ATOM     30  C   UNL     1       1.430   7.383  20.907  0.00  0.00    +0.000 C 
ENDBRANCH  24  25
ENDBRANCH   9  24
TORSDOF 6
ENDMDL
MODEL 5
REMARK VINA RESULT:      -6.2      2.436      3.868
REMARK  Name = 
REMARK  8 active torsions:
REMARK  status: ('A' for Active; 'I' for Inactive)
REMARK    1  A    between atoms: C_1  and  N_2
REMARK    2  A    between atoms: N_2  and  C_3
REMARK    3  A    between atoms: N_2  and  S_22
REMARK    4  A    between atoms: C_7  and  C_8
REMARK    5  A    between atoms: N_13  and  C_14
REMARK    6  A    between atoms: C_14  and  C_15
REMARK    7  A    between atoms: N_19  and  C_20
REMARK    8  A    between atoms: S_22  and  C_25
REMARK                            x       y       z     vdW  Elec       q    Type
REMARK                         _______ _______ _______ _____ _____    ______ ____
ROOT
ATOM      1  C   UNL     1      -2.030  11.874  20.923  0.00  0.00    +0.000 C 
ATOM      2  C   UNL     1      -2.456  13.274  20.432  0.00  0.00    +0.000 C 
ATOM      3  C   UNL     1      -1.301  14.198  20.698  0.00  0.00    +0.000 A 
ATOM      4  C   UNL     1      -0.748  15.025  19.716  0.00  0.00    +0.000 A 
ATOM      5  C   UNL     1       0.362  15.819  20.024  0.00  0.00    +0.000 A 
ATOM      6  C   UNL     1       0.895  15.809  21.315  0.00  0.00    +0.000 A 
ATOM      7  C   UNL     1       0.336  14.986  22.291  0.00  0.00    +0.000 A 
ATOM      8  C   UNL     1      -0.750  14.157  21.985  0.00  0.00    +0.000 A 
ATOM      9  N   UNL     1      -1.298  13.317  22.964  0.00  0.00    +0.000 N 
ATOM     10  C   UNL     1      -1.820  11.998  22.463  0.00  0.00    +0.000 C 
ENDROOT
BRANCH   1  12
ATOM     11  C   UNL     1      -1.265  11.164  18.616  0.00  0.00    +0.000 C 
ATOM     12  N   UNL     1      -0.918  11.307  20.050  0.00  0.00    +0.000 NA
BRANCH  12  13
ATOM     13  S   UNL     1       0.693  11.033  20.489  0.00  0.00    +0.000 S 
ATOM     14  O   UNL     1       1.492  12.082  19.882  0.00  0.00    +0.000 OA
ATOM     15  O   UNL     1       0.799  10.772  21.903  0.00  0.00    +0.000 OA
BRANCH  13  16
ATOM     16  C   UNL     1       1.201   9.506  19.664  0.00  0.00    +0.000 A 
ATOM     17  C   UNL     1       1.663   9.548  18.340  0.00  0.00    +0.000 A 
ATOM     18  C   UNL     1       2.335   8.445  17.792  0.00  0.00    +0.000 A 
ATOM     19  C   UNL     1       2.564   7.306  18.563  0.00  0.00    +0.000 A 
ATOM     20  C   UNL     1       2.108   7.258  19.880  0.00  0.00    +0.000 A 
ATOM     21  C   UNL     1       1.429   8.354  20.432  0.00  0.00    +0.000 A 
ENDBRANCH  13  16
ENDBRANCH  12  13
ENDBRANCH   1  12
BRANCH   5  22
ATOM     22  C   UNL     1       0.954  16.640  19.012  0.00  0.00    +0.000 C 
ATOM     23  N   UNL     1       1.420  17.299  18.188  0.00  0.00    +0.000 NA
ENDBRANCH   5  22
BRANCH   9  24
ATOM     24  C   UNL     1      -2.200  14.083  23.848  0.00  0.00    +0.000 C 
BRANCH  24  25
ATOM     25  C   UNL     1      -3.584  13.553  23.950  0.00  0.00    +0.000 A 
ATOM     26  C   UNL     1      -4.067  12.426  24.583  0.00  0.00    +0.000 A 
ATOM     27  N   UNL     1      -5.426  12.333  24.458  0.00  0.00    +0.000 NA
ATOM     28  C   UNL     1      -5.775  13.371  23.731  0.00  0.00    +0.000 A 
ATOM     29  N   UNL     1      -4.689  14.105  23.347  0.00  0.00    +0.000 N 
ATOM     30  C   UNL     1      -4.727  15.220  22.434  0.00  0.00    +0.000 C 
ENDBRANCH  24  25
ENDBRANCH   9  24
TORSDOF 6
ENDMDL
MODEL 6
REMARK VINA RESULT:      -6.2      2.629      4.615
REMARK  Name = 
REMARK  8 active torsions:
REMARK  status: ('A' for Active; 'I' for Inactive)
REMARK    1  A    between atoms: C_1  and  N_2
REMARK    2  A    between atoms: N_2  and  C_3
REMARK    3  A    between atoms: N_2  and  S_22
REMARK    4  A    between atoms: C_7  and  C_8
REMARK    5  A    between atoms: N_13  and  C_14
REMARK    6  A    between atoms: C_14  and  C_15
REMARK    7  A    between atoms: N_19  and  C_20
REMARK    8  A    between atoms: S_22  and  C_25
REMARK                            x       y       z     vdW  Elec       q    Type
REMARK                         _______ _______ _______ _____ _____    ______ ____
ROOT
ATOM      1  C   UNL     1       0.479  12.383  20.337  0.00  0.00    +0.000 C 
ATOM      2  C   UNL     1       0.261  13.013  21.728  0.00  0.00    +0.000 C 
ATOM      3  C   UNL     1      -1.219  13.226  21.881  0.00  0.00    +0.000 A 
ATOM      4  C   UNL     1      -1.943  12.765  22.985  0.00  0.00    +0.000 A 
ATOM      5  C   UNL     1      -3.328  12.954  23.033  0.00  0.00    +0.000 A 
ATOM      6  C   UNL     1      -3.981  13.627  21.997  0.00  0.00    +0.000 A 
ATOM      7  C   UNL     1      -3.253  14.087  20.901  0.00  0.00    +0.000 A 
ATOM      8  C   UNL     1      -1.872  13.870  20.823  0.00  0.00    +0.000 A 
ATOM      9  N   UNL     1      -1.146  14.320  19.711  0.00  0.00    +0.000 N 
ATOM     10  C   UNL     1       0.006  13.446  19.298  0.00  0.00    +0.000 C 
ENDROOT
BRANCH   1  12
ATOM     11  C   UNL     1      -1.150  10.761  19.275  0.00  0.00    +0.000 C 
ATOM     12  N   UNL     1      -0.086  10.970  20.286  0.00  0.00    +0.000 NA
BRANCH  12  13
ATOM     13  S   UNL     1       0.501   9.599  21.087  0.00  0.00    +0.000 S 
ATOM     14  O   UNL     1       1.572  10.035  21.963  0.00  0.00    +0.000 OA
ATOM     15  O   UNL     1      -0.587   8.812  21.614  0.00  0.00    +0.000 OA
BRANCH  13  16
ATOM     16  C   UNL     1       1.296   8.568  19.832  0.00  0.00    +0.000 A 
ATOM     17  C   UNL     1       1.639   9.121  18.590  0.00  0.00    +0.000 A 
ATOM     18  C   UNL     1       2.514   8.438  17.732  0.00  0.00    +0.000 A 
ATOM     19  C   UNL     1       3.062   7.214  18.113  0.00  0.00    +0.000 A 
ATOM     20  C   UNL     1       2.725   6.659  19.348  0.00  0.00    +0.000 A 
ATOM     21  C   UNL     1       1.847   7.333  20.208  0.00  0.00    +0.000 A 
ENDBRANCH  13  16
ENDBRANCH  12  13
ENDBRANCH   1  12
BRANCH   5  22
ATOM     22  C   UNL     1      -4.078  12.452  24.144  0.00  0.00    +0.000 C 
ATOM     23  N   UNL     1      -4.670  12.044  25.046  0.00  0.00    +0.000 NA
ENDBRANCH   5  22
BRANCH   9  24
ATOM     24  C   UNL     1      -0.859  15.763  19.837  0.00  0.00    +0.000 C 
BRANCH  24  25
ATOM     25  C   UNL     1       0.460  16.193  19.304  0.00  0.00    +0.000 A 
ATOM     26  C   UNL     1       1.735  15.947  19.769  0.00  0.00    +0.000 A 
ATOM     27  N   UNL     1       2.676  16.506  18.948  0.00  0.00    +0.000 NA
ATOM     28  C   UNL     1       1.991  17.115  18.006  0.00  0.00    +0.000 A 
ATOM     29  N   UNL     1       0.645  17.007  18.212  0.00  0.00    +0.000 N 
ATOM     30  C   UNL     1      -0.366  17.680  17.436  0.00  0.00    +0.000 C 
ENDBRANCH  24  25
ENDBRANCH   9  24
TORSDOF 6
ENDMDL
MODEL 7
REMARK VINA RESULT:      -6.2      4.026      6.867
REMARK  Name = 
REMARK  8 active torsions:
REMARK  status: ('A' for Active; 'I' for Inactive)
REMARK    1  A    between atoms: C_1  and  N_2
REMARK    2  A    between atoms: N_2  and  C_3
REMARK    3  A    between atoms: N_2  and  S_22
REMARK    4  A    between atoms: C_7  and  C_8
REMARK    5  A    between atoms: N_13  and  C_14
REMARK    6  A    between atoms: C_14  and  C_15
REMARK    7  A    between atoms: N_19  and  C_20
REMARK    8  A    between atoms: S_22  and  C_25
REMARK                            x       y       z     vdW  Elec       q    Type
REMARK                         _______ _______ _______ _____ _____    ______ ____
ROOT
ATOM      1  C   UNL     1       1.752  13.664  18.212  0.00  0.00    +0.000 C 
ATOM      2  C   UNL     1       0.210  13.707  18.256  0.00  0.00    +0.000 C 
ATOM      3  C   UNL     1      -0.192  13.401  19.671  0.00  0.00    +0.000 A 
ATOM      4  C   UNL     1      -1.059  14.214  20.407  0.00  0.00    +0.000 A 
ATOM      5  C   UNL     1      -1.346  13.895  21.739  0.00  0.00    +0.000 A 
ATOM      6  C   UNL     1      -0.793  12.752  22.321  0.00  0.00    +0.000 A 
ATOM      7  C   UNL     1       0.068  11.942  21.581  0.00  0.00    +0.000 A 
ATOM      8  C   UNL     1       0.393  12.273  20.260  0.00  0.00    +0.000 A 
ATOM      9  N   UNL     1       1.272  11.466  19.524  0.00  0.00    +0.000 N 
ATOM     10  C   UNL     1       2.159  12.198  18.553  0.00  0.00    +0.000 C 
ENDROOT
BRANCH   1  12
ATOM     11  C   UNL     1       2.652  14.512  20.422  0.00  0.00    +0.000 C 
ATOM     12  N   UNL     1       2.350  14.820  19.004  0.00  0.00    +0.000 NA
BRANCH  12  13
ATOM     13  S   UNL     1       2.889  16.307  18.403  0.00  0.00    +0.000 S 
ATOM     14  O   UNL     1       3.655  16.948  19.456  0.00  0.00    +0.000 OA
ATOM     15  O   UNL     1       3.462  16.149  17.089  0.00  0.00    +0.000 OA
BRANCH  13  16
ATOM     16  C   UNL     1       1.420  17.339  18.183  0.00  0.00    +0.000 A 
ATOM     17  C   UNL     1       1.246  18.060  16.993  0.00  0.00    +0.000 A 
ATOM     18  C   UNL     1      -0.004  18.614  16.681  0.00  0.00    +0.000 A 
ATOM     19  C   UNL     1      -1.087  18.439  17.541  0.00  0.00    +0.000 A 
ATOM     20  C   UNL     1      -0.921  17.722  18.726  0.00  0.00    +0.000 A 
ATOM     21  C   UNL     1       0.327  17.171  19.048  0.00  0.00    +0.000 A 
ENDBRANCH  13  16
ENDBRANCH  12  13
ENDBRANCH   1  12
BRANCH   5  22
ATOM     22  C   UNL     1      -2.205  14.744  22.507  0.00  0.00    +0.000 C 
ATOM     23  N   UNL     1      -2.887  15.429  23.136  0.00  0.00    +0.000 NA
ENDBRANCH   5  22
BRANCH   9  24
ATOM     24  C   UNL     1       0.563  10.283  18.998  0.00  0.00    +0.000 C 
BRANCH  24  25
ATOM     25  C   UNL     1       1.376   9.042  18.921  0.00  0.00    +0.000 A 
ATOM     26  C   UNL     1       1.982   8.435  17.840  0.00  0.00    +0.000 A 
ATOM     27  N   UNL     1       2.670   7.316  18.223  0.00  0.00    +0.000 NA
ATOM     28  C   UNL     1       2.467   7.216  19.517  0.00  0.00    +0.000 A 
ATOM     29  N   UNL     1       1.640   8.201  19.976  0.00  0.00    +0.000 N 
ATOM     30  C   UNL     1       1.118   8.284  21.317  0.00  0.00    +0.000 C 
ENDBRANCH  24  25
ENDBRANCH   9  24
TORSDOF 6
ENDMDL
MODEL 8
REMARK VINA RESULT:      -6.2      9.102     11.326
REMARK  Name = 
REMARK  8 active torsions:
REMARK  status: ('A' for Active; 'I' for Inactive)
REMARK    1  A    between atoms: C_1  and  N_2
REMARK    2  A    between atoms: N_2  and  C_3
REMARK    3  A    between atoms: N_2  and  S_22
REMARK    4  A    between atoms: C_7  and  C_8
REMARK    5  A    between atoms: N_13  and  C_14
REMARK    6  A    between atoms: C_14  and  C_15
REMARK    7  A    between atoms: N_19  and  C_20
REMARK    8  A    between atoms: S_22  and  C_25
REMARK                            x       y       z     vdW  Elec       q    Type
REMARK                         _______ _______ _______ _____ _____    ______ ____
ROOT
ATOM      1  C   UNL     1       4.546   5.261  16.106  0.00  0.00    +0.000 C 
ATOM      2  C   UNL     1       4.439   6.482  17.044  0.00  0.00    +0.000 C 
ATOM      3  C   UNL     1       5.789   6.665  17.676  0.00  0.00    +0.000 A 
ATOM      4  C   UNL     1       6.474   7.884  17.665  0.00  0.00    +0.000 A 
ATOM      5  C   UNL     1       7.753   7.965  18.227  0.00  0.00    +0.000 A 
ATOM      6  C   UNL     1       8.330   6.841  18.823  0.00  0.00    +0.000 A 
ATOM      7  C   UNL     1       7.640   5.629  18.834  0.00  0.00    +0.000 A 
ATOM      8  C   UNL     1       6.376   5.526  18.241  0.00  0.00    +0.000 A 
ATOM      9  N   UNL     1       5.693   4.302  18.239  0.00  0.00    +0.000 N 
ATOM     10  C   UNL     1       4.853   4.035  17.019  0.00  0.00    +0.000 C 
ENDROOT
BRANCH   1  12
ATOM     11  C   UNL     1       5.238   6.897  14.300  0.00  0.00    +0.000 C 
ATOM     12  N   UNL     1       5.451   5.567  14.919  0.00  0.00    +0.000 NA
BRANCH  12  13
ATOM     13  S   UNL     1       6.778   4.665  14.381  0.00  0.00    +0.000 S 
ATOM     14  O   UNL     1       7.795   5.607  13.949  0.00  0.00    +0.000 OA
ATOM     15  O   UNL     1       7.110   3.630  15.329  0.00  0.00    +0.000 OA
BRANCH  13  16
ATOM     16  C   UNL     1       6.248   3.810  12.879  0.00  0.00    +0.000 A 
ATOM     17  C   UNL     1       7.128   2.932  12.228  0.00  0.00    +0.000 A 
ATOM     18  C   UNL     1       6.646   2.044  11.256  0.00  0.00    +0.000 A 
ATOM     19  C   UNL     1       5.288   2.013  10.940  0.00  0.00    +0.000 A 
ATOM     20  C   UNL     1       4.407   2.882  11.585  0.00  0.00    +0.000 A 
ATOM     21  C   UNL     1       4.883   3.778  12.553  0.00  0.00    +0.000 A 
ENDBRANCH  13  16
ENDBRANCH  12  13
ENDBRANCH   1  12
BRANCH   5  22
ATOM     22  C   UNL     1       8.473   9.201  18.186  0.00  0.00    +0.000 C 
ATOM     23  N   UNL     1       9.058  10.195  18.166  0.00  0.00    +0.000 NA
ENDBRANCH   5  22
BRANCH   9  24
ATOM     24  C   UNL     1       5.040   4.078  19.544  0.00  0.00    +0.000 C 
BRANCH  24  25
ATOM     25  C   UNL     1       3.688   3.465  19.477  0.00  0.00    +0.000 A 
ATOM     26  C   UNL     1       3.305   2.172  19.184  0.00  0.00    +0.000 A 
ATOM     27  N   UNL     1       1.948   2.027  19.271  0.00  0.00    +0.000 NA
ATOM     28  C   UNL     1       1.495   3.220  19.582  0.00  0.00    +0.000 A 
ATOM     29  N   UNL     1       2.504   4.139  19.657  0.00  0.00    +0.000 N 
ATOM     30  C   UNL     1       2.319   5.556  19.843  0.00  0.00    +0.000 C 
ENDBRANCH  24  25
ENDBRANCH   9  24
TORSDOF 6
ENDMDL
MODEL 9
REMARK VINA RESULT:      -6.1      2.771      4.518
REMARK  Name = 
REMARK  8 active torsions:
REMARK  status: ('A' for Active; 'I' for Inactive)
REMARK    1  A    between atoms: C_1  and  N_2
REMARK    2  A    between atoms: N_2  and  C_3
REMARK    3  A    between atoms: N_2  and  S_22
REMARK    4  A    between atoms: C_7  and  C_8
REMARK    5  A    between atoms: N_13  and  C_14
REMARK    6  A    between atoms: C_14  and  C_15
REMARK    7  A    between atoms: N_19  and  C_20
REMARK    8  A    between atoms: S_22  and  C_25
REMARK                            x       y       z     vdW  Elec       q    Type
REMARK                         _______ _______ _______ _____ _____    ______ ____
ROOT
ATOM      1  C   UNL     1       0.924  12.322  20.437  0.00  0.00    +0.000 C 
ATOM      2  C   UNL     1       0.663  12.860  21.860  0.00  0.00    +0.000 C 
ATOM      3  C   UNL     1      -0.795  13.216  21.929  0.00  0.00    +0.000 A 
ATOM      4  C   UNL     1      -1.644  12.749  22.937  0.00  0.00    +0.000 A 
ATOM      5  C   UNL     1      -3.003  13.080  22.907  0.00  0.00    +0.000 A 
ATOM      6  C   UNL     1      -3.503  13.897  21.891  0.00  0.00    +0.000 A 
ATOM      7  C   UNL     1      -2.651  14.363  20.890  0.00  0.00    +0.000 A 
ATOM      8  C   UNL     1      -1.297  14.007  20.889  0.00  0.00    +0.000 A 
ATOM      9  N   UNL     1      -0.446  14.464  19.872  0.00  0.00    +0.000 N 
ATOM     10  C   UNL     1       0.641  13.507  19.464  0.00  0.00    +0.000 C 
ENDROOT
BRANCH   1  12
ATOM     11  C   UNL     1      -0.731  10.954  19.094  0.00  0.00    +0.000 C 
ATOM     12  N   UNL     1       0.225  10.985  20.226  0.00  0.00    +0.000 NA
BRANCH  12  13
ATOM     13  S   UNL     1       0.571   9.514  20.987  0.00  0.00    +0.000 S 
ATOM     14  O   UNL     1       1.582   9.775  21.995  0.00  0.00    +0.000 OA
ATOM     15  O   UNL     1      -0.645   8.827  21.347  0.00  0.00    +0.000 OA
BRANCH  13  16
ATOM     16  C   UNL     1       1.382   8.470  19.753  0.00  0.00    +0.000 A 
ATOM     17  C   UNL     1       1.733   9.009  18.506  0.00  0.00    +0.000 A 
ATOM     18  C   UNL     1       2.617   8.319  17.664  0.00  0.00    +0.000 A 
ATOM     19  C   UNL     1       3.168   7.102  18.066  0.00  0.00    +0.000 A 
ATOM     20  C   UNL     1       2.824   6.562  19.305  0.00  0.00    +0.000 A 
ATOM     21  C   UNL     1       1.935   7.243  20.149  0.00  0.00    +0.000 A 
ENDBRANCH  13  16
ENDBRANCH  12  13
ENDBRANCH   1  12
BRANCH   5  22
ATOM     22  C   UNL     1      -3.882  12.574  23.916  0.00  0.00    +0.000 C 
ATOM     23  N   UNL     1      -4.581  12.161  24.736  0.00  0.00    +0.000 NA
ENDBRANCH   5  22
BRANCH   9  24
ATOM     24  C   UNL     1      -0.027  15.854  20.141  0.00  0.00    +0.000 C 
BRANCH  24  25
ATOM     25  C   UNL     1      -0.126  16.778  18.981  0.00  0.00    +0.000 A 
ATOM     26  C   UNL     1      -1.218  17.431  18.448  0.00  0.00    +0.000 A 
ATOM     27  N   UNL     1      -0.855  18.222  17.393  0.00  0.00    +0.000 NA
ATOM     28  C   UNL     1       0.439  18.038  17.257  0.00  0.00    +0.000 A 
ATOM     29  N   UNL     1       0.916  17.125  18.155  0.00  0.00    +0.000 N 
ATOM     30  C   UNL     1       2.261  16.606  18.170  0.00  0.00    +0.000 C 
ENDBRANCH  24  25
ENDBRANCH   9  24
TORSDOF 6
ENDMDL
