MODEL 1
REMARK VINA RESULT:      -7.3      0.000      0.000
REMARK  Name = 
REMARK  6 active torsions:
REMARK  status: ('A' for Active; 'I' for Inactive)
REMARK    1  A    between atoms: C_1  and  C_2
REMARK    2  A    between atoms: N_4  and  C_5
REMARK    3  A    between atoms: C_8  and  C_9
REMARK    4  A    between atoms: C_9  and  O_11
REMARK    5  A    between atoms: O_11  and  C_12
REMARK    6  A    between atoms: C_12  and  C_13
REMARK                            x       y       z     vdW  Elec       q    Type
REMARK                         _______ _______ _______ _____ _____    ______ ____
ROOT
ATOM      1  C   UNL     1       1.824   7.035  20.364  0.00  0.00    +0.000 A 
ATOM      2  C   UNL     1       2.285   7.228  19.059  0.00  0.00    +0.000 A 
ATOM      3  C   UNL     1       2.454   6.151  18.191  0.00  0.00    +0.000 A 
ATOM      4  C   UNL     1       2.169   4.849  18.611  0.00  0.00    +0.000 A 
ATOM      5  C   UNL     1       1.702   4.640  19.914  0.00  0.00    +0.000 A 
ATOM      6  C   UNL     1       1.543   5.729  20.790  0.00  0.00    +0.000 A 
ENDROOT
BRANCH   1  10
ATOM      7  C   UNL     1       0.543   9.755  22.650  0.00  0.00    +0.000 C 
ATOM      8  C   UNL     1       0.435   8.530  21.784  0.00  0.00    +0.000 C 
ATOM      9  O   UNL     1      -0.660   8.003  21.603  0.00  0.00    +0.000 OA
ATOM     10  N   UNL     1       1.650   8.108  21.267  0.00  0.00    +0.000 N 
ATOM     11  H   UNL     1       2.489   8.537  21.633  0.00  0.00    +0.000 HD
ENDBRANCH   1  10
BRANCH   4  12
ATOM     12  C   UNL     1       2.411   3.758  17.634  0.00  0.00    +0.000 C 
ATOM     13  O   UNL     1       1.730   2.738  17.608  0.00  0.00    +0.000 OA
BRANCH  12  14
ATOM     14  O   UNL     1       3.432   4.049  16.799  0.00  0.00    +0.000 OA
BRANCH  14  15
ATOM     15  C   UNL     1       4.672   3.400  17.109  0.00  0.00    +0.000 C 
BRANCH  15  16
ATOM     16  C   UNL     1       5.706   4.432  17.484  0.00  0.00    +0.000 A 
ATOM     17  C   UNL     1       5.902   4.711  18.850  0.00  0.00    +0.000 A 
ATOM     18  C   UNL     1       6.802   5.695  19.263  0.00  0.00    +0.000 A 
ATOM     19  C   UNL     1       7.532   6.408  18.317  0.00  0.00    +0.000 A 
ATOM     20  C   UNL     1       7.376   6.122  16.961  0.00  0.00    +0.000 A 
ATOM     21  C   UNL     1       6.475   5.135  16.545  0.00  0.00    +0.000 A 
ATOM     22 BR   UNL     1       6.352   4.809  14.678  0.00  0.00    +0.000 Br
ENDBRANCH  15  16
ENDBRANCH  14  15
ENDBRANCH  12  14
ENDBRANCH   4  12
TORSDOF 5
ENDMDL
MODEL 2
REMARK VINA RESULT:      -7.1      3.283      5.976
REMARK  Name = 
REMARK  6 active torsions:
REMARK  status: ('A' for Active; 'I' for Inactive)
REMARK    1  A    between atoms: C_1  and  C_2
REMARK    2  A    between atoms: N_4  and  C_5
REMARK    3  A    between atoms: C_8  and  C_9
REMARK    4  A    between atoms: C_9  and  O_11
REMARK    5  A    between atoms: O_11  and  C_12
REMARK    6  A    between atoms: C_12  and  C_13
REMARK                            x       y       z     vdW  Elec       q    Type
REMARK                         _______ _______ _______ _____ _____    ______ ____
ROOT
ATOM      1  C   UNL     1       7.878   7.026  18.299  0.00  0.00    +0.000 A 
ATOM      2  C   UNL     1       7.418   7.123  16.983  0.00  0.00    +0.000 A 
ATOM      3  C   UNL     1       6.682   6.091  16.402  0.00  0.00    +0.000 A 
ATOM      4  C   UNL     1       6.392   4.932  17.126  0.00  0.00    +0.000 A 
ATOM      5  C   UNL     1       6.841   4.822  18.447  0.00  0.00    +0.000 A 
ATOM      6  C   UNL     1       7.593   5.861  19.026  0.00  0.00    +0.000 A 
ENDROOT
BRANCH   1  10
ATOM      7  C   UNL     1       9.565  10.247  19.322  0.00  0.00    +0.000 C 
ATOM      8  C   UNL     1       8.588   9.395  18.560  0.00  0.00    +0.000 C 
ATOM      9  O   UNL     1       7.847   9.909  17.727  0.00  0.00    +0.000 OA
ATOM     10  N   UNL     1       8.631   8.054  18.911  0.00  0.00    +0.000 N 
ATOM     11  H   UNL     1       9.170   7.801  19.727  0.00  0.00    +0.000 HD
ENDBRANCH   1  10
BRANCH   4  12
ATOM     12  C   UNL     1       5.635   3.869  16.419  0.00  0.00    +0.000 C 
ATOM     13  O   UNL     1       5.868   3.561  15.255  0.00  0.00    +0.000 OA
BRANCH  12  14
ATOM     14  O   UNL     1       4.706   3.299  17.217  0.00  0.00    +0.000 OA
BRANCH  14  15
ATOM     15  C   UNL     1       3.358   3.721  16.972  0.00  0.00    +0.000 C 
BRANCH  15  16
ATOM     16  C   UNL     1       2.619   3.844  18.281  0.00  0.00    +0.000 A 
ATOM     17  C   UNL     1       2.057   2.679  18.839  0.00  0.00    +0.000 A 
ATOM     18  C   UNL     1       1.312   2.733  20.019  0.00  0.00    +0.000 A 
ATOM     19  C   UNL     1       1.127   3.950  20.668  0.00  0.00    +0.000 A 
ATOM     20  C   UNL     1       1.704   5.108  20.148  0.00  0.00    +0.000 A 
ATOM     21  C   UNL     1       2.453   5.056  18.967  0.00  0.00    +0.000 A 
ATOM     22 BR   UNL     1       3.213   6.686  18.354  0.00  0.00    +0.000 Br
ENDBRANCH  15  16
ENDBRANCH  14  15
ENDBRANCH  12  14
ENDBRANCH   4  12
TORSDOF 5
ENDMDL
MODEL 3
REMARK VINA RESULT:      -7.0      3.337      6.105
REMARK  Name = 
REMARK  6 active torsions:
REMARK  status: ('A' for Active; 'I' for Inactive)
REMARK    1  A    between atoms: C_1  and  C_2
REMARK    2  A    between atoms: N_4  and  C_5
REMARK    3  A    between atoms: C_8  and  C_9
REMARK    4  A    between atoms: C_9  and  O_11
REMARK    5  A    between atoms: O_11  and  C_12
REMARK    6  A    between atoms: C_12  and  C_13
REMARK                            x       y       z     vdW  Elec       q    Type
REMARK                         _______ _______ _______ _____ _____    ______ ____
ROOT
ATOM      1  C   UNL     1       7.935   7.073  18.339  0.00  0.00    +0.000 A 
ATOM      2  C   UNL     1       7.851   5.786  18.877  0.00  0.00    +0.000 A 
ATOM      3  C   UNL     1       7.134   4.782  18.228  0.00  0.00    +0.000 A 
ATOM      4  C   UNL     1       6.478   5.044  17.023  0.00  0.00    +0.000 A 
ATOM      5  C   UNL     1       6.557   6.327  16.469  0.00  0.00    +0.000 A 
ATOM      6  C   UNL     1       7.272   7.340  17.133  0.00  0.00    +0.000 A 
ENDROOT
BRANCH   1  10
ATOM      7  C   UNL     1       9.559  10.309  19.413  0.00  0.00    +0.000 C 
ATOM      8  C   UNL     1       8.630   9.445  18.605  0.00  0.00    +0.000 C 
ATOM      9  O   UNL     1       7.943   9.947  17.720  0.00  0.00    +0.000 OA
ATOM     10  N   UNL     1       8.650   8.110  18.980  0.00  0.00    +0.000 N 
ATOM     11  H   UNL     1       9.136   7.870  19.832  0.00  0.00    +0.000 HD
ENDBRANCH   1  10
BRANCH   4  12
ATOM     12  C   UNL     1       5.708   3.928  16.419  0.00  0.00    +0.000 C 
ATOM     13  O   UNL     1       5.923   3.524  15.281  0.00  0.00    +0.000 OA
BRANCH  12  14
ATOM     14  O   UNL     1       4.791   3.428  17.275  0.00  0.00    +0.000 OA
BRANCH  14  15
ATOM     15  C   UNL     1       3.447   3.871  17.049  0.00  0.00    +0.000 C 
BRANCH  15  16
ATOM     16  C   UNL     1       2.684   3.866  18.350  0.00  0.00    +0.000 A 
ATOM     17  C   UNL     1       2.264   2.626  18.869  0.00  0.00    +0.000 A 
ATOM     18  C   UNL     1       1.505   2.554  20.038  0.00  0.00    +0.000 A 
ATOM     19  C   UNL     1       1.165   3.720  20.717  0.00  0.00    +0.000 A 
ATOM     20  C   UNL     1       1.601   4.955  20.237  0.00  0.00    +0.000 A 
ATOM     21  C   UNL     1       2.364   5.029  19.065  0.00  0.00    +0.000 A 
ATOM     22 BR   UNL     1       2.925   6.756  18.508  0.00  0.00    +0.000 Br
ENDBRANCH  15  16
ENDBRANCH  14  15
ENDBRANCH  12  14
ENDBRANCH   4  12
TORSDOF 5
ENDMDL
MODEL 4
REMARK VINA RESULT:      -6.9      3.494      6.567
REMARK  Name = 
REMARK  6 active torsions:
REMARK  status: ('A' for Active; 'I' for Inactive)
REMARK    1  A    between atoms: C_1  and  C_2
REMARK    2  A    between atoms: N_4  and  C_5
REMARK    3  A    between atoms: C_8  and  C_9
REMARK    4  A    between atoms: C_9  and  O_11
REMARK    5  A    between atoms: O_11  and  C_12
REMARK    6  A    between atoms: C_12  and  C_13
REMARK                            x       y       z     vdW  Elec       q    Type
REMARK                         _______ _______ _______ _____ _____    ______ ____
ROOT
ATOM      1  C   UNL     1       4.668   3.915  17.271  0.00  0.00    +0.000 A 
ATOM      2  C   UNL     1       5.137   4.560  18.419  0.00  0.00    +0.000 A 
ATOM      3  C   UNL     1       4.315   4.733  19.531  0.00  0.00    +0.000 A 
ATOM      4  C   UNL     1       2.999   4.268  19.520  0.00  0.00    +0.000 A 
ATOM      5  C   UNL     1       2.515   3.615  18.379  0.00  0.00    +0.000 A 
ATOM      6  C   UNL     1       3.345   3.452  17.255  0.00  0.00    +0.000 A 
ENDROOT
BRANCH   1  10
ATOM      7  C   UNL     1       6.622   4.220  14.053  0.00  0.00    +0.000 C 
ATOM      8  C   UNL     1       5.824   4.725  15.223  0.00  0.00    +0.000 C 
ATOM      9  O   UNL     1       5.549   5.918  15.307  0.00  0.00    +0.000 OA
ATOM     10  N   UNL     1       5.478   3.732  16.127  0.00  0.00    +0.000 N 
ATOM     11  H   UNL     1       5.914   2.826  16.017  0.00  0.00    +0.000 HD
ENDBRANCH   1  10
BRANCH   4  12
ATOM     12  C   UNL     1       2.183   4.526  20.732  0.00  0.00    +0.000 C 
ATOM     13  O   UNL     1       2.253   3.820  21.733  0.00  0.00    +0.000 OA
BRANCH  12  14
ATOM     14  O   UNL     1       1.402   5.619  20.589  0.00  0.00    +0.000 OA
BRANCH  14  15
ATOM     15  C   UNL     1       2.008   6.853  20.997  0.00  0.00    +0.000 C 
BRANCH  15  16
ATOM     16  C   UNL     1       1.738   7.917  19.963  0.00  0.00    +0.000 A 
ATOM     17  C   UNL     1       2.293   7.751  18.679  0.00  0.00    +0.000 A 
ATOM     18  C   UNL     1       2.130   8.726  17.693  0.00  0.00    +0.000 A 
ATOM     19  C   UNL     1       1.399   9.877  17.969  0.00  0.00    +0.000 A 
ATOM     20  C   UNL     1       0.813  10.042  19.224  0.00  0.00    +0.000 A 
ATOM     21  C   UNL     1       0.974   9.066  20.214  0.00  0.00    +0.000 A 
ATOM     22 BR   UNL     1       0.119   9.377  21.881  0.00  0.00    +0.000 Br
ENDBRANCH  15  16
ENDBRANCH  14  15
ENDBRANCH  12  14
ENDBRANCH   4  12
TORSDOF 5
ENDMDL
MODEL 5
REMARK VINA RESULT:      -6.9      2.547      3.209
REMARK  Name = 
REMARK  6 active torsions:
REMARK  status: ('A' for Active; 'I' for Inactive)
REMARK    1  A    between atoms: C_1  and  C_2
REMARK    2  A    between atoms: N_4  and  C_5
REMARK    3  A    between atoms: C_8  and  C_9
REMARK    4  A    between atoms: C_9  and  O_11
REMARK    5  A    between atoms: O_11  and  C_12
REMARK    6  A    between atoms: C_12  and  C_13
REMARK                            x       y       z     vdW  Elec       q    Type
REMARK                         _______ _______ _______ _____ _____    ______ ____
ROOT
ATOM      1  C   UNL     1       1.335   9.351  19.029  0.00  0.00    +0.000 A 
ATOM      2  C   UNL     1       1.290   8.656  20.240  0.00  0.00    +0.000 A 
ATOM      3  C   UNL     1       1.826   7.374  20.352  0.00  0.00    +0.000 A 
ATOM      4  C   UNL     1       2.417   6.753  19.250  0.00  0.00    +0.000 A 
ATOM      5  C   UNL     1       2.475   7.438  18.031  0.00  0.00    +0.000 A 
ATOM      6  C   UNL     1       1.924   8.728  17.919  0.00  0.00    +0.000 A 
ENDROOT
BRANCH   1  10
ATOM      7  C   UNL     1      -0.778  12.408  18.355  0.00  0.00    +0.000 C 
ATOM      8  C   UNL     1      -0.509  10.937  18.513  0.00  0.00    +0.000 C 
ATOM      9  O   UNL     1      -1.411  10.127  18.322  0.00  0.00    +0.000 OA
ATOM     10  N   UNL     1       0.795  10.650  18.886  0.00  0.00    +0.000 N 
ATOM     11  H   UNL     1       1.382  11.421  19.170  0.00  0.00    +0.000 HD
ENDBRANCH   1  10
BRANCH   4  12
ATOM     12  C   UNL     1       2.929   5.374  19.448  0.00  0.00    +0.000 C 
ATOM     13  O   UNL     1       2.200   4.389  19.391  0.00  0.00    +0.000 OA
BRANCH  12  14
ATOM     14  O   UNL     1       4.262   5.360  19.669  0.00  0.00    +0.000 OA
BRANCH  14  15
ATOM     15  C   UNL     1       4.950   4.216  19.147  0.00  0.00    +0.000 C 
BRANCH  15  16
ATOM     16  C   UNL     1       5.493   4.533  17.776  0.00  0.00    +0.000 A 
ATOM     17  C   UNL     1       4.745   4.122  16.654  0.00  0.00    +0.000 A 
ATOM     18  C   UNL     1       5.218   4.332  15.358  0.00  0.00    +0.000 A 
ATOM     19  C   UNL     1       6.440   4.968  15.159  0.00  0.00    +0.000 A 
ATOM     20  C   UNL     1       7.177   5.412  16.256  0.00  0.00    +0.000 A 
ATOM     21  C   UNL     1       6.705   5.204  17.557  0.00  0.00    +0.000 A 
ATOM     22 BR   UNL     1       7.774   5.864  18.981  0.00  0.00    +0.000 Br
ENDBRANCH  15  16
ENDBRANCH  14  15
ENDBRANCH  12  14
ENDBRANCH   4  12
TORSDOF 5
ENDMDL
MODEL 6
REMARK VINA RESULT:      -6.8      1.025      1.464
REMARK  Name = 
REMARK  6 active torsions:
REMARK  status: ('A' for Active; 'I' for Inactive)
REMARK    1  A    between atoms: C_1  and  C_2
REMARK    2  A    between atoms: N_4  and  C_5
REMARK    3  A    between atoms: C_8  and  C_9
REMARK    4  A    between atoms: C_9  and  O_11
REMARK    5  A    between atoms: O_11  and  C_12
REMARK    6  A    between atoms: C_12  and  C_13
REMARK                            x       y       z     vdW  Elec       q    Type
REMARK                         _______ _______ _______ _____ _____    ______ ____
ROOT
ATOM      1  C   UNL     1       1.825   7.657  20.089  0.00  0.00    +0.000 A 
ATOM      2  C   UNL     1       1.555   6.433  20.708  0.00  0.00    +0.000 A 
ATOM      3  C   UNL     1       1.771   5.229  20.041  0.00  0.00    +0.000 A 
ATOM      4  C   UNL     1       2.260   5.220  18.733  0.00  0.00    +0.000 A 
ATOM      5  C   UNL     1       2.541   6.437  18.101  0.00  0.00    +0.000 A 
ATOM      6  C   UNL     1       2.311   7.651  18.774  0.00  0.00    +0.000 A 
ENDROOT
BRANCH   1  10
ATOM      7  C   UNL     1       0.731  11.101  21.187  0.00  0.00    +0.000 C 
ATOM      8  C   UNL     1       0.674   9.843  20.365  0.00  0.00    +0.000 C 
ATOM      9  O   UNL     1      -0.157   9.737  19.467  0.00  0.00    +0.000 OA
ATOM     10  N   UNL     1       1.610   8.893  20.741  0.00  0.00    +0.000 N 
ATOM     11  H   UNL     1       2.116   9.048  21.602  0.00  0.00    +0.000 HD
ENDBRANCH   1  10
BRANCH   4  12
ATOM     12  C   UNL     1       2.426   3.895  18.085  0.00  0.00    +0.000 C 
ATOM     13  O   UNL     1       1.543   3.381  17.406  0.00  0.00    +0.000 OA
BRANCH  12  14
ATOM     14  O   UNL     1       3.648   3.369  18.323  0.00  0.00    +0.000 OA
BRANCH  14  15
ATOM     15  C   UNL     1       4.566   3.452  17.225  0.00  0.00    +0.000 C 
BRANCH  15  16
ATOM     16  C   UNL     1       5.644   4.459  17.539  0.00  0.00    +0.000 A 
ATOM     17  C   UNL     1       5.951   4.704  18.892  0.00  0.00    +0.000 A 
ATOM     18  C   UNL     1       6.897   5.664  19.254  0.00  0.00    +0.000 A 
ATOM     19  C   UNL     1       7.563   6.387  18.269  0.00  0.00    +0.000 A 
ATOM     20  C   UNL     1       7.296   6.135  16.924  0.00  0.00    +0.000 A 
ATOM     21  C   UNL     1       6.349   5.171  16.558  0.00  0.00    +0.000 A 
ATOM     22 BR   UNL     1       6.075   4.890  14.700  0.00  0.00    +0.000 Br
ENDBRANCH  15  16
ENDBRANCH  14  15
ENDBRANCH  12  14
ENDBRANCH   4  12
TORSDOF 5
ENDMDL
MODEL 7
REMARK VINA RESULT:      -6.6      2.188      2.592
REMARK  Name = 
REMARK  6 active torsions:
REMARK  status: ('A' for Active; 'I' for Inactive)
REMARK    1  A    between atoms: C_1  and  C_2
REMARK    2  A    between atoms: N_4  and  C_5
REMARK    3  A    between atoms: C_8  and  C_9
REMARK    4  A    between atoms: C_9  and  O_11
REMARK    5  A    between atoms: O_11  and  C_12
REMARK    6  A    between atoms: C_12  and  C_13
REMARK                            x       y       z     vdW  Elec       q    Type
REMARK                         _______ _______ _______ _____ _____    ______ ____
ROOT
ATOM      1  C   UNL     1       1.587   9.217  19.049  0.00  0.00    +0.000 A 
ATOM      2  C   UNL     1       1.469   8.412  20.185  0.00  0.00    +0.000 A 
ATOM      3  C   UNL     1       1.983   7.116  20.202  0.00  0.00    +0.000 A 
ATOM      4  C   UNL     1       2.626   6.593  19.078  0.00  0.00    +0.000 A 
ATOM      5  C   UNL     1       2.757   7.389  17.935  0.00  0.00    +0.000 A 
ATOM      6  C   UNL     1       2.227   8.692  17.918  0.00  0.00    +0.000 A 
ENDROOT
BRANCH   1  10
ATOM      7  C   UNL     1      -0.480  12.350  18.621  0.00  0.00    +0.000 C 
ATOM      8  C   UNL     1      -0.237  10.867  18.679  0.00  0.00    +0.000 C 
ATOM      9  O   UNL     1      -1.159  10.087  18.457  0.00  0.00    +0.000 OA
ATOM     10  N   UNL     1       1.069  10.532  19.002  0.00  0.00    +0.000 N 
ATOM     11  H   UNL     1       1.678  11.273  19.322  0.00  0.00    +0.000 HD
ENDBRANCH   1  10
BRANCH   4  12
ATOM     12  C   UNL     1       3.112   5.193  19.171  0.00  0.00    +0.000 C 
ATOM     13  O   UNL     1       3.114   4.569  20.227  0.00  0.00    +0.000 OA
BRANCH  12  14
ATOM     14  O   UNL     1       3.513   4.720  17.972  0.00  0.00    +0.000 OA
BRANCH  14  15
ATOM     15  C   UNL     1       4.757   4.009  17.987  0.00  0.00    +0.000 C 
BRANCH  15  16
ATOM     16  C   UNL     1       5.900   4.988  18.087  0.00  0.00    +0.000 A 
ATOM     17  C   UNL     1       6.656   5.007  19.276  0.00  0.00    +0.000 A 
ATOM     18  C   UNL     1       7.691   5.927  19.456  0.00  0.00    +0.000 A 
ATOM     19  C   UNL     1       7.997   6.833  18.447  0.00  0.00    +0.000 A 
ATOM     20  C   UNL     1       7.282   6.807  17.250  0.00  0.00    +0.000 A 
ATOM     21  C   UNL     1       6.245   5.884  17.065  0.00  0.00    +0.000 A 
ATOM     22 BR   UNL     1       5.347   5.917  15.392  0.00  0.00    +0.000 Br
ENDBRANCH  15  16
ENDBRANCH  14  15
ENDBRANCH  12  14
ENDBRANCH   4  12
TORSDOF 5
ENDMDL
MODEL 8
REMARK VINA RESULT:      -6.6      4.135      7.127
REMARK  Name = 
REMARK  6 active torsions:
REMARK  status: ('A' for Active; 'I' for Inactive)
REMARK    1  A    between atoms: C_1  and  C_2
REMARK    2  A    between atoms: N_4  and  C_5
REMARK    3  A    between atoms: C_8  and  C_9
REMARK    4  A    between atoms: C_9  and  O_11
REMARK    5  A    between atoms: O_11  and  C_12
REMARK    6  A    between atoms: C_12  and  C_13
REMARK                            x       y       z     vdW  Elec       q    Type
REMARK                         _______ _______ _______ _____ _____    ______ ____
ROOT
ATOM      1  C   UNL     1       5.441   4.433  14.511  0.00  0.00    +0.000 A 
ATOM      2  C   UNL     1       5.249   5.742  14.962  0.00  0.00    +0.000 A 
ATOM      3  C   UNL     1       5.806   6.176  16.164  0.00  0.00    +0.000 A 
ATOM      4  C   UNL     1       6.566   5.305  16.949  0.00  0.00    +0.000 A 
ATOM      5  C   UNL     1       6.772   3.993  16.508  0.00  0.00    +0.000 A 
ATOM      6  C   UNL     1       6.199   3.556  15.300  0.00  0.00    +0.000 A 
ENDROOT
BRANCH   1  10
ATOM      7  C   UNL     1       4.752   3.146  11.027  0.00  0.00    +0.000 C 
ATOM      8  C   UNL     1       5.607   3.490  12.216  0.00  0.00    +0.000 C 
ATOM      9  O   UNL     1       6.823   3.330  12.162  0.00  0.00    +0.000 OA
ATOM     10  N   UNL     1       4.884   3.966  13.299  0.00  0.00    +0.000 N 
ATOM     11  H   UNL     1       3.877   3.887  13.261  0.00  0.00    +0.000 HD
ENDBRANCH   1  10
BRANCH   4  12
ATOM     12  C   UNL     1       7.090   5.839  18.231  0.00  0.00    +0.000 C 
ATOM     13  O   UNL     1       7.875   6.781  18.277  0.00  0.00    +0.000 OA
BRANCH  12  14
ATOM     14  O   UNL     1       6.582   5.180  19.295  0.00  0.00    +0.000 OA
BRANCH  14  15
ATOM     15  C   UNL     1       5.249   5.558  19.660  0.00  0.00    +0.000 C 
BRANCH  15  16
ATOM     16  C   UNL     1       4.260   4.613  19.025  0.00  0.00    +0.000 A 
ATOM     17  C   UNL     1       4.504   3.229  19.127  0.00  0.00    +0.000 A 
ATOM     18  C   UNL     1       3.660   2.303  18.514  0.00  0.00    +0.000 A 
ATOM     19  C   UNL     1       2.550   2.742  17.799  0.00  0.00    +0.000 A 
ATOM     20  C   UNL     1       2.274   4.106  17.715  0.00  0.00    +0.000 A 
ATOM     21  C   UNL     1       3.118   5.038  18.331  0.00  0.00    +0.000 A 
ATOM     22 BR   UNL     1       2.643   6.870  18.175  0.00  0.00    +0.000 Br
ENDBRANCH  15  16
ENDBRANCH  14  15
ENDBRANCH  12  14
ENDBRANCH   4  12
TORSDOF 5
ENDMDL
MODEL 9
REMARK VINA RESULT:      -6.6      3.307      6.000
REMARK  Name = 
REMARK  6 active torsions:
REMARK  status: ('A' for Active; 'I' for Inactive)
REMARK    1  A    between atoms: C_1  and  C_2
REMARK    2  A    between atoms: N_4  and  C_5
REMARK    3  A    between atoms: C_8  and  C_9
REMARK    4  A    between atoms: C_9  and  O_11
REMARK    5  A    between atoms: O_11  and  C_12
REMARK    6  A    between atoms: C_12  and  C_13
REMARK                            x       y       z     vdW  Elec       q    Type
REMARK                         _______ _______ _______ _____ _____    ______ ____
ROOT
ATOM      1  C   UNL     1       7.768   7.062  18.217  0.00  0.00    +0.000 A 
ATOM      2  C   UNL     1       7.927   5.698  18.476  0.00  0.00    +0.000 A 
ATOM      3  C   UNL     1       7.170   4.745  17.797  0.00  0.00    +0.000 A 
ATOM      4  C   UNL     1       6.228   5.136  16.842  0.00  0.00    +0.000 A 
ATOM      5  C   UNL     1       6.060   6.498  16.567  0.00  0.00    +0.000 A 
ATOM      6  C   UNL     1       6.820   7.457  17.263  0.00  0.00    +0.000 A 
ENDROOT
BRANCH   1  10
ATOM      7  C   UNL     1       9.547  10.183  19.383  0.00  0.00    +0.000 C 
ATOM      8  C   UNL     1       8.602   9.383  18.529  0.00  0.00    +0.000 C 
ATOM      9  O   UNL     1       7.989   9.931  17.617  0.00  0.00    +0.000 OA
ATOM     10  N   UNL     1       8.519   8.049  18.895  0.00  0.00    +0.000 N 
ATOM     11  H   UNL     1       8.950   7.775  19.767  0.00  0.00    +0.000 HD
ENDBRANCH   1  10
BRANCH   4  12
ATOM     12  C   UNL     1       5.440   4.058  16.193  0.00  0.00    +0.000 C 
ATOM     13  O   UNL     1       5.934   3.285  15.378  0.00  0.00    +0.000 OA
BRANCH  12  14
ATOM     14  O   UNL     1       4.162   4.039  16.628  0.00  0.00    +0.000 OA
BRANCH  14  15
ATOM     15  C   UNL     1       3.953   3.338  17.861  0.00  0.00    +0.000 C 
BRANCH  15  16
ATOM     16  C   UNL     1       3.089   4.167  18.777  0.00  0.00    +0.000 A 
ATOM     17  C   UNL     1       3.528   5.463  19.112  0.00  0.00    +0.000 A 
ATOM     18  C   UNL     1       2.805   6.262  20.000  0.00  0.00    +0.000 A 
ATOM     19  C   UNL     1       1.624   5.784  20.558  0.00  0.00    +0.000 A 
ATOM     20  C   UNL     1       1.156   4.517  20.213  0.00  0.00    +0.000 A 
ATOM     21  C   UNL     1       1.878   3.715  19.321  0.00  0.00    +0.000 A 
ATOM     22 BR   UNL     1       1.145   2.014  18.900  0.00  0.00    +0.000 Br
ENDBRANCH  15  16
ENDBRANCH  14  15
ENDBRANCH  12  14
ENDBRANCH   4  12
TORSDOF 5
ENDMDL
