MODEL 1
REMARK VINA RESULT:      -8.3      0.000      0.000
REMARK  Name = 
REMARK  5 active torsions:
REMARK  status: ('A' for Active; 'I' for Inactive)
REMARK    1  A    between atoms: O_1  and  C_2
REMARK    2  A    between atoms: C_2  and  C_3
REMARK    3  A    between atoms: C_2  and  C_8
REMARK    4  A    between atoms: N_12  and  C_13
REMARK    5  A    between atoms: C_19  and  N_20
REMARK                            x       y       z     vdW  Elec       q    Type
REMARK                         _______ _______ _______ _____ _____    ______ ____
ROOT
ATOM      1  C   UNL     1       2.163   7.164  19.500  0.00  0.00    +0.000 A 
ATOM      2  N   UNL     1       2.484   7.298  18.197  0.00  0.00    +0.000 NA
ATOM      3  C   UNL     1       2.218   8.472  17.614  0.00  0.00    +0.000 A 
ATOM      4  N   UNL     1       1.604   9.513  18.176  0.00  0.00    +0.000 NA
ATOM      5  C   UNL     1       1.297   9.396  19.471  0.00  0.00    +0.000 A 
ATOM      6  C   UNL     1       0.662  10.473  20.094  0.00  0.00    +0.000 A 
ATOM      7  C   UNL     1       0.348  10.509  21.463  0.00  0.00    +0.000 A 
ATOM      8  C   UNL     1       0.728   9.396  22.207  0.00  0.00    +0.000 A 
ATOM      9  C   UNL     1       1.367   8.316  21.616  0.00  0.00    +0.000 A 
ATOM     10  C   UNL     1       1.608   8.255  20.219  0.00  0.00    +0.000 A 
ENDROOT
BRANCH   1  15
ATOM     11  C   UNL     1       3.693   3.870  19.398  0.00  0.00    +0.000 C 
ATOM     12  C   UNL     1       2.579   3.032  20.055  0.00  0.00    +0.000 C 
ATOM     13  C   UNL     1       1.224   3.721  20.029  0.00  0.00    +0.000 C 
ATOM     14  C   UNL     1       1.299   5.111  20.638  0.00  0.00    +0.000 C 
ATOM     15  N   UNL     1       2.363   5.898  20.026  0.00  0.00    +0.000 N 
ATOM     16  C   UNL     1       3.702   5.298  19.972  0.00  0.00    +0.000 C 
BRANCH  11  17
ATOM     17  C   UNL     1       3.650   3.783  17.850  0.00  0.00    +0.000 C 
BRANCH  17  18
ATOM     18  C   UNL     1       4.959   4.150  17.186  0.00  0.00    +0.000 A 
ATOM     19  C   UNL     1       6.189   4.352  17.901  0.00  0.00    +0.000 A 
ATOM     20  C   UNL     1       7.249   4.643  17.073  0.00  0.00    +0.000 A 
ATOM     21  S   UNL     1       6.784   4.687  15.431  0.00  0.00    +0.000 S 
ATOM     22  C   UNL     1       5.166   4.305  15.826  0.00  0.00    +0.000 A 
ENDBRANCH  17  18
BRANCH  17  23
ATOM     23  O   UNL     1       2.553   4.483  17.273  0.00  0.00    +0.000 OA
ATOM     24  H   UNL     1       2.431   5.298  17.799  0.00  0.00    +0.000 HD
ENDBRANCH  17  23
ENDBRANCH  11  17
ENDBRANCH   1  15
BRANCH   7  25
ATOM     25  N   UNL     1      -0.246  11.606  22.040  0.00  0.00    +0.000 N 
ATOM     26  C   UNL     1      -1.358  11.492  22.997  0.00  0.00    +0.000 C 
ATOM     27  C   UNL     1      -2.628  12.128  22.417  0.00  0.00    +0.000 C 
ATOM     28  O   UNL     1      -2.394  13.490  22.023  0.00  0.00    +0.000 OA
ATOM     29  C   UNL     1      -1.367  13.549  21.017  0.00  0.00    +0.000 C 
ATOM     30  C   UNL     1      -0.032  12.964  21.518  0.00  0.00    +0.000 C 
ENDBRANCH   7  25
TORSDOF 5
ENDMDL
MODEL 2
REMARK VINA RESULT:      -8.0      0.718      1.241
REMARK  Name = 
REMARK  5 active torsions:
REMARK  status: ('A' for Active; 'I' for Inactive)
REMARK    1  A    between atoms: O_1  and  C_2
REMARK    2  A    between atoms: C_2  and  C_3
REMARK    3  A    between atoms: C_2  and  C_8
REMARK    4  A    between atoms: N_12  and  C_13
REMARK    5  A    between atoms: C_19  and  N_20
REMARK                            x       y       z     vdW  Elec       q    Type
REMARK                         _______ _______ _______ _____ _____    ______ ____
ROOT
ATOM      1  C   UNL     1       2.223   7.216  19.453  0.00  0.00    +0.000 A 
ATOM      2  N   UNL     1       2.808   7.374  18.248  0.00  0.00    +0.000 NA
ATOM      3  C   UNL     1       2.568   8.515  17.591  0.00  0.00    +0.000 A 
ATOM      4  N   UNL     1       1.751   9.493  17.979  0.00  0.00    +0.000 NA
ATOM      5  C   UNL     1       1.180   9.354  19.179  0.00  0.00    +0.000 A 
ATOM      6  C   UNL     1       0.326  10.367  19.621  0.00  0.00    +0.000 A 
ATOM      7  C   UNL     1      -0.282  10.379  20.886  0.00  0.00    +0.000 A 
ATOM      8  C   UNL     1       0.026   9.311  21.724  0.00  0.00    +0.000 A 
ATOM      9  C   UNL     1       0.878   8.295  21.314  0.00  0.00    +0.000 A 
ATOM     10  C   UNL     1       1.424   8.251  20.005  0.00  0.00    +0.000 A 
ENDROOT
BRANCH   1  15
ATOM     11  C   UNL     1       3.699   3.896  19.488  0.00  0.00    +0.000 C 
ATOM     12  C   UNL     1       2.593   3.114  20.222  0.00  0.00    +0.000 C 
ATOM     13  C   UNL     1       1.249   3.823  20.198  0.00  0.00    +0.000 C 
ATOM     14  C   UNL     1       1.363   5.243  20.727  0.00  0.00    +0.000 C 
ATOM     15  N   UNL     1       2.419   5.977  20.041  0.00  0.00    +0.000 N 
ATOM     16  C   UNL     1       3.747   5.353  19.982  0.00  0.00    +0.000 C 
BRANCH  11  17
ATOM     17  C   UNL     1       3.608   3.725  17.948  0.00  0.00    +0.000 C 
BRANCH  17  18
ATOM     18  C   UNL     1       4.899   4.043  17.226  0.00  0.00    +0.000 A 
ATOM     19  C   UNL     1       5.032   4.058  15.796  0.00  0.00    +0.000 A 
ATOM     20  C   UNL     1       6.295   4.410  15.378  0.00  0.00    +0.000 A 
ATOM     21  S   UNL     1       7.340   4.720  16.692  0.00  0.00    +0.000 S 
ATOM     22  C   UNL     1       6.099   4.394  17.821  0.00  0.00    +0.000 A 
ENDBRANCH  17  18
BRANCH  17  23
ATOM     23  O   UNL     1       2.500   4.404  17.368  0.00  0.00    +0.000 OA
ATOM     24  H   UNL     1       2.415   4.075  16.452  0.00  0.00    +0.000 HD
ENDBRANCH  17  23
ENDBRANCH  11  17
ENDBRANCH   1  15
BRANCH   7  25
ATOM     25  N   UNL     1      -1.089  11.416  21.292  0.00  0.00    +0.000 N 
ATOM     26  C   UNL     1      -1.847  12.247  20.343  0.00  0.00    +0.000 C 
ATOM     27  C   UNL     1      -1.348  13.696  20.386  0.00  0.00    +0.000 C 
ATOM     28  O   UNL     1      -1.396  14.223  21.722  0.00  0.00    +0.000 OA
ATOM     29  C   UNL     1      -0.566  13.440  22.598  0.00  0.00    +0.000 C 
ATOM     30  C   UNL     1      -1.013  11.966  22.654  0.00  0.00    +0.000 C 
ENDBRANCH   7  25
TORSDOF 5
ENDMDL
MODEL 3
REMARK VINA RESULT:      -7.8      3.481      9.293
REMARK  Name = 
REMARK  5 active torsions:
REMARK  status: ('A' for Active; 'I' for Inactive)
REMARK    1  A    between atoms: O_1  and  C_2
REMARK    2  A    between atoms: C_2  and  C_3
REMARK    3  A    between atoms: C_2  and  C_8
REMARK    4  A    between atoms: N_12  and  C_13
REMARK    5  A    between atoms: C_19  and  N_20
REMARK                            x       y       z     vdW  Elec       q    Type
REMARK                         _______ _______ _______ _____ _____    ______ ____
ROOT
ATOM      1  C   UNL     1       1.295   8.752  19.544  0.00  0.00    +0.000 A 
ATOM      2  N   UNL     1       0.738   8.424  20.727  0.00  0.00    +0.000 NA
ATOM      3  C   UNL     1       1.099   7.260  21.278  0.00  0.00    +0.000 A 
ATOM      4  N   UNL     1       1.915   6.352  20.742  0.00  0.00    +0.000 NA
ATOM      5  C   UNL     1       2.486   6.675  19.579  0.00  0.00    +0.000 A 
ATOM      6  C   UNL     1       3.355   5.749  18.995  0.00  0.00    +0.000 A 
ATOM      7  C   UNL     1       4.073   5.991  17.813  0.00  0.00    +0.000 A 
ATOM      8  C   UNL     1       3.895   7.244  17.233  0.00  0.00    +0.000 A 
ATOM      9  C   UNL     1       3.045   8.185  17.796  0.00  0.00    +0.000 A 
ATOM     10  C   UNL     1       2.263   7.903  18.946  0.00  0.00    +0.000 A 
ENDROOT
BRANCH   1  15
ATOM     11  C   UNL     1       0.279  12.234  19.753  0.00  0.00    +0.000 C 
ATOM     12  C   UNL     1      -0.829  12.258  18.683  0.00  0.00    +0.000 C 
ATOM     13  C   UNL     1      -1.366  10.876  18.353  0.00  0.00    +0.000 C 
ATOM     14  C   UNL     1      -0.246   9.927  17.963  0.00  0.00    +0.000 C 
ATOM     15  N   UNL     1       0.809   9.915  18.969  0.00  0.00    +0.000 N 
ATOM     16  C   UNL     1       1.366  11.209  19.379  0.00  0.00    +0.000 C 
BRANCH  11  17
ATOM     17  C   UNL     1      -0.298  12.089  21.185  0.00  0.00    +0.000 C 
BRANCH  17  18
ATOM     18  C   UNL     1      -0.469  13.408  21.906  0.00  0.00    +0.000 A 
ATOM     19  C   UNL     1      -1.114  13.544  23.183  0.00  0.00    +0.000 A 
ATOM     20  C   UNL     1      -1.114  14.838  23.649  0.00  0.00    +0.000 A 
ATOM     21  S   UNL     1      -0.348  15.909  22.562  0.00  0.00    +0.000 S 
ATOM     22  C   UNL     1      -0.007  14.638  21.472  0.00  0.00    +0.000 A 
ENDBRANCH  17  18
BRANCH  17  23
ATOM     23  O   UNL     1       0.400  11.140  21.984  0.00  0.00    +0.000 OA
ATOM     24  H   UNL     1       1.103  10.760  21.421  0.00  0.00    +0.000 HD
ENDBRANCH  17  23
ENDBRANCH  11  17
ENDBRANCH   1  15
BRANCH   7  25
ATOM     25  N   UNL     1       4.944   5.063  17.293  0.00  0.00    +0.000 N 
ATOM     26  C   UNL     1       5.978   4.404  18.108  0.00  0.00    +0.000 C 
ATOM     27  C   UNL     1       7.376   4.792  17.610  0.00  0.00    +0.000 C 
ATOM     28  O   UNL     1       7.528   4.502  16.210  0.00  0.00    +0.000 OA
ATOM     29  C   UNL     1       6.561   5.239  15.441  0.00  0.00    +0.000 C 
ATOM     30  C   UNL     1       5.114   4.891  15.843  0.00  0.00    +0.000 C 
ENDBRANCH   7  25
TORSDOF 5
ENDMDL
MODEL 4
REMARK VINA RESULT:      -7.5      3.585      9.416
REMARK  Name = 
REMARK  5 active torsions:
REMARK  status: ('A' for Active; 'I' for Inactive)
REMARK    1  A    between atoms: O_1  and  C_2
REMARK    2  A    between atoms: C_2  and  C_3
REMARK    3  A    between atoms: C_2  and  C_8
REMARK    4  A    between atoms: N_12  and  C_13
REMARK    5  A    between atoms: C_19  and  N_20
REMARK                            x       y       z     vdW  Elec       q    Type
REMARK                         _______ _______ _______ _____ _____    ______ ____
ROOT
ATOM      1  C   UNL     1       1.138   9.037  19.411  0.00  0.00    +0.000 A 
ATOM      2  N   UNL     1       0.608   8.843  20.635  0.00  0.00    +0.000 NA
ATOM      3  C   UNL     1       1.015   7.767  21.320  0.00  0.00    +0.000 A 
ATOM      4  N   UNL     1       1.849   6.823  20.886  0.00  0.00    +0.000 NA
ATOM      5  C   UNL     1       2.392   7.015  19.681  0.00  0.00    +0.000 A 
ATOM      6  C   UNL     1       3.281   6.050  19.201  0.00  0.00    +0.000 A 
ATOM      7  C   UNL     1       3.973   6.162  17.984  0.00  0.00    +0.000 A 
ATOM      8  C   UNL     1       3.748   7.327  17.257  0.00  0.00    +0.000 A 
ATOM      9  C   UNL     1       2.877   8.306  17.713  0.00  0.00    +0.000 A 
ATOM     10  C   UNL     1       2.122   8.147  18.905  0.00  0.00    +0.000 A 
ENDROOT
BRANCH   1  15
ATOM     11  C   UNL     1       0.107  12.512  19.176  0.00  0.00    +0.000 C 
ATOM     12  C   UNL     1      -1.065  12.382  18.185  0.00  0.00    +0.000 C 
ATOM     13  C   UNL     1      -1.610  10.966  18.093  0.00  0.00    +0.000 C 
ATOM     14  C   UNL     1      -0.509   9.970  17.775  0.00  0.00    +0.000 C 
ATOM     15  N   UNL     1       0.607  10.104  18.705  0.00  0.00    +0.000 N 
ATOM     16  C   UNL     1       1.177  11.444  18.888  0.00  0.00    +0.000 C 
BRANCH  11  17
ATOM     17  C   UNL     1      -0.380  12.577  20.648  0.00  0.00    +0.000 C 
BRANCH  17  18
ATOM     18  C   UNL     1      -1.410  13.656  20.898  0.00  0.00    +0.000 A 
ATOM     19  C   UNL     1      -2.753  13.393  21.335  0.00  0.00    +0.000 A 
ATOM     20  C   UNL     1      -3.489  14.540  21.527  0.00  0.00    +0.000 A 
ATOM     21  S   UNL     1      -2.584  15.946  21.180  0.00  0.00    +0.000 S 
ATOM     22  C   UNL     1      -1.204  15.020  20.783  0.00  0.00    +0.000 A 
ENDBRANCH  17  18
BRANCH  17  23
ATOM     23  O   UNL     1       0.682  12.634  21.593  0.00  0.00    +0.000 OA
ATOM     24  H   UNL     1       0.521  13.420  22.151  0.00  0.00    +0.000 HD
ENDBRANCH  17  23
ENDBRANCH  11  17
ENDBRANCH   1  15
BRANCH   7  25
ATOM     25  N   UNL     1       4.865   5.202  17.568  0.00  0.00    +0.000 N 
ATOM     26  C   UNL     1       5.837   4.577  18.478  0.00  0.00    +0.000 C 
ATOM     27  C   UNL     1       7.268   4.927  18.051  0.00  0.00    +0.000 C 
ATOM     28  O   UNL     1       7.504   4.566  16.680  0.00  0.00    +0.000 OA
ATOM     29  C   UNL     1       6.597   5.271  15.815  0.00  0.00    +0.000 C 
ATOM     30  C   UNL     1       5.124   4.956  16.141  0.00  0.00    +0.000 C 
ENDBRANCH   7  25
TORSDOF 5
ENDMDL
MODEL 5
REMARK VINA RESULT:      -7.5      1.047      1.117
REMARK  Name = 
REMARK  5 active torsions:
REMARK  status: ('A' for Active; 'I' for Inactive)
REMARK    1  A    between atoms: O_1  and  C_2
REMARK    2  A    between atoms: C_2  and  C_3
REMARK    3  A    between atoms: C_2  and  C_8
REMARK    4  A    between atoms: N_12  and  C_13
REMARK    5  A    between atoms: C_19  and  N_20
REMARK                            x       y       z     vdW  Elec       q    Type
REMARK                         _______ _______ _______ _____ _____    ______ ____
ROOT
ATOM      1  C   UNL     1       2.163   7.194  19.255  0.00  0.00    +0.000 A 
ATOM      2  N   UNL     1       2.549   7.449  17.989  0.00  0.00    +0.000 NA
ATOM      3  C   UNL     1       2.345   8.685  17.519  0.00  0.00    +0.000 A 
ATOM      4  N   UNL     1       1.736   9.683  18.159  0.00  0.00    +0.000 NA
ATOM      5  C   UNL     1       1.365   9.446  19.420  0.00  0.00    +0.000 A 
ATOM      6  C   UNL     1       0.733  10.475  20.122  0.00  0.00    +0.000 A 
ATOM      7  C   UNL     1       0.357  10.382  21.472  0.00  0.00    +0.000 A 
ATOM      8  C   UNL     1       0.668   9.186  22.114  0.00  0.00    +0.000 A 
ATOM      9  C   UNL     1       1.302   8.151  21.443  0.00  0.00    +0.000 A 
ATOM     10  C   UNL     1       1.606   8.225  20.058  0.00  0.00    +0.000 A 
ENDROOT
BRANCH   1  15
ATOM     11  C   UNL     1       4.058   4.102  19.461  0.00  0.00    +0.000 C 
ATOM     12  C   UNL     1       2.909   3.076  19.431  0.00  0.00    +0.000 C 
ATOM     13  C   UNL     1       1.616   3.649  18.875  0.00  0.00    +0.000 C 
ATOM     14  C   UNL     1       1.208   4.911  19.615  0.00  0.00    +0.000 C 
ATOM     15  N   UNL     1       2.300   5.875  19.656  0.00  0.00    +0.000 N 
ATOM     16  C   UNL     1       3.601   5.402  20.146  0.00  0.00    +0.000 C 
BRANCH  11  17
ATOM     17  C   UNL     1       4.710   4.286  18.066  0.00  0.00    +0.000 C 
BRANCH  17  18
ATOM     18  C   UNL     1       5.824   5.310  18.048  0.00  0.00    +0.000 A 
ATOM     19  C   UNL     1       6.961   5.269  18.925  0.00  0.00    +0.000 A 
ATOM     20  C   UNL     1       7.855   6.290  18.692  0.00  0.00    +0.000 A 
ATOM     21  S   UNL     1       7.341   7.313  17.427  0.00  0.00    +0.000 S 
ATOM     22  C   UNL     1       5.927   6.385  17.182  0.00  0.00    +0.000 A 
ENDBRANCH  17  18
BRANCH  17  23
ATOM     23  O   UNL     1       3.767   4.518  17.026  0.00  0.00    +0.000 OA
ATOM     24  H   UNL     1       3.062   5.079  17.404  0.00  0.00    +0.000 HD
ENDBRANCH  17  23
ENDBRANCH  11  17
ENDBRANCH   1  15
BRANCH   7  25
ATOM     25  N   UNL     1      -0.232  11.434  22.133  0.00  0.00    +0.000 N 
ATOM     26  C   UNL     1      -1.355  11.254  23.067  0.00  0.00    +0.000 C 
ATOM     27  C   UNL     1      -2.611  11.950  22.530  0.00  0.00    +0.000 C 
ATOM     28  O   UNL     1      -2.359  13.337  22.253  0.00  0.00    +0.000 OA
ATOM     29  C   UNL     1      -1.322  13.468  21.265  0.00  0.00    +0.000 C 
ATOM     30  C   UNL     1       0.003  12.828  21.728  0.00  0.00    +0.000 C 
ENDBRANCH   7  25
TORSDOF 5
ENDMDL
MODEL 6
REMARK VINA RESULT:      -7.5      3.546      9.226
REMARK  Name = 
REMARK  5 active torsions:
REMARK  status: ('A' for Active; 'I' for Inactive)
REMARK    1  A    between atoms: O_1  and  C_2
REMARK    2  A    between atoms: C_2  and  C_3
REMARK    3  A    between atoms: C_2  and  C_8
REMARK    4  A    between atoms: N_12  and  C_13
REMARK    5  A    between atoms: C_19  and  N_20
REMARK                            x       y       z     vdW  Elec       q    Type
REMARK                         _______ _______ _______ _____ _____    ______ ____
ROOT
ATOM      1  C   UNL     1       1.091   9.216  19.496  0.00  0.00    +0.000 A 
ATOM      2  N   UNL     1       0.522   9.100  20.712  0.00  0.00    +0.000 NA
ATOM      3  C   UNL     1       0.835   8.022  21.440  0.00  0.00    +0.000 A 
ATOM      4  N   UNL     1       1.610   7.007  21.056  0.00  0.00    +0.000 NA
ATOM      5  C   UNL     1       2.192   7.120  19.860  0.00  0.00    +0.000 A 
ATOM      6  C   UNL     1       3.019   6.079  19.432  0.00  0.00    +0.000 A 
ATOM      7  C   UNL     1       3.745   6.102  18.229  0.00  0.00    +0.000 A 
ATOM      8  C   UNL     1       3.619   7.256  17.461  0.00  0.00    +0.000 A 
ATOM      9  C   UNL     1       2.811   8.308  17.865  0.00  0.00    +0.000 A 
ATOM     10  C   UNL     1       2.020   8.242  19.042  0.00  0.00    +0.000 A 
ENDROOT
BRANCH   1  15
ATOM     11  C   UNL     1       0.648  12.786  18.991  0.00  0.00    +0.000 C 
ATOM     12  C   UNL     1      -0.661  12.786  18.179  0.00  0.00    +0.000 C 
ATOM     13  C   UNL     1      -1.448  11.493  18.322  0.00  0.00    +0.000 C 
ATOM     14  C   UNL     1      -0.592  10.285  17.985  0.00  0.00    +0.000 C 
ATOM     15  N   UNL     1       0.653  10.293  18.744  0.00  0.00    +0.000 N 
ATOM     16  C   UNL     1       1.465  11.515  18.696  0.00  0.00    +0.000 C 
BRANCH  11  17
ATOM     17  C   UNL     1       0.399  13.074  20.496  0.00  0.00    +0.000 C 
BRANCH  17  18
ATOM     18  C   UNL     1       0.699  14.502  20.896  0.00  0.00    +0.000 A 
ATOM     19  C   UNL     1       1.189  15.501  19.988  0.00  0.00    +0.000 A 
ATOM     20  C   UNL     1       1.350  16.732  20.581  0.00  0.00    +0.000 A 
ATOM     21  S   UNL     1       0.924  16.706  22.234  0.00  0.00    +0.000 S 
ATOM     22  C   UNL     1       0.513  15.050  22.154  0.00  0.00    +0.000 A 
ENDBRANCH  17  18
BRANCH  17  23
ATOM     23  O   UNL     1       1.034  12.140  21.363  0.00  0.00    +0.000 OA
ATOM     24  H   UNL     1       1.331  11.395  20.806  0.00  0.00    +0.000 HD
ENDBRANCH  17  23
ENDBRANCH  11  17
ENDBRANCH   1  15
BRANCH   7  25
ATOM     25  N   UNL     1       4.574   5.068  17.866  0.00  0.00    +0.000 N 
ATOM     26  C   UNL     1       5.846   4.794  18.553  0.00  0.00    +0.000 C 
ATOM     27  C   UNL     1       7.025   4.997  17.594  0.00  0.00    +0.000 C 
ATOM     28  O   UNL     1       6.872   4.202  16.407  0.00  0.00    +0.000 OA
ATOM     29  C   UNL     1       5.667   4.567  15.713  0.00  0.00    +0.000 C 
ATOM     30  C   UNL     1       4.412   4.362  16.586  0.00  0.00    +0.000 C 
ENDBRANCH   7  25
TORSDOF 5
ENDMDL
MODEL 7
REMARK VINA RESULT:      -7.5      3.524      9.140
REMARK  Name = 
REMARK  5 active torsions:
REMARK  status: ('A' for Active; 'I' for Inactive)
REMARK    1  A    between atoms: O_1  and  C_2
REMARK    2  A    between atoms: C_2  and  C_3
REMARK    3  A    between atoms: C_2  and  C_8
REMARK    4  A    between atoms: N_12  and  C_13
REMARK    5  A    between atoms: C_19  and  N_20
REMARK                            x       y       z     vdW  Elec       q    Type
REMARK                         _______ _______ _______ _____ _____    ______ ____
ROOT
ATOM      1  C   UNL     1       1.029   9.738  19.746  0.00  0.00    +0.000 A 
ATOM      2  N   UNL     1       0.651   9.850  21.035  0.00  0.00    +0.000 NA
ATOM      3  C   UNL     1       0.895   8.811  21.842  0.00  0.00    +0.000 A 
ATOM      4  N   UNL     1       1.421   7.640  21.484  0.00  0.00    +0.000 NA
ATOM      5  C   UNL     1       1.814   7.525  20.213  0.00  0.00    +0.000 A 
ATOM      6  C   UNL     1       2.379   6.313  19.809  0.00  0.00    +0.000 A 
ATOM      7  C   UNL     1       2.897   6.084  18.523  0.00  0.00    +0.000 A 
ATOM      8  C   UNL     1       2.841   7.158  17.640  0.00  0.00    +0.000 A 
ATOM      9  C   UNL     1       2.292   8.375  18.017  0.00  0.00    +0.000 A 
ATOM     10  C   UNL     1       1.700   8.572  19.292  0.00  0.00    +0.000 A 
ENDROOT
BRANCH   1  15
ATOM     11  C   UNL     1       0.981  13.281  18.942  0.00  0.00    +0.000 C 
ATOM     12  C   UNL     1      -0.387  13.383  18.242  0.00  0.00    +0.000 C 
ATOM     13  C   UNL     1      -1.310  12.220  18.569  0.00  0.00    +0.000 C 
ATOM     14  C   UNL     1      -0.642  10.887  18.280  0.00  0.00    +0.000 C 
ATOM     15  N   UNL     1       0.659  10.797  18.932  0.00  0.00    +0.000 N 
ATOM     16  C   UNL     1       1.606  11.895  18.704  0.00  0.00    +0.000 C 
BRANCH  11  17
ATOM     17  C   UNL     1       0.908  13.724  20.428  0.00  0.00    +0.000 C 
BRANCH  17  18
ATOM     18  C   UNL     1       1.342  15.155  20.655  0.00  0.00    +0.000 A 
ATOM     19  C   UNL     1       1.260  15.824  21.924  0.00  0.00    +0.000 A 
ATOM     20  C   UNL     1       1.749  17.109  21.886  0.00  0.00    +0.000 A 
ATOM     21  S   UNL     1       2.304  17.536  20.329  0.00  0.00    +0.000 S 
ATOM     22  C   UNL     1       1.902  15.996  19.708  0.00  0.00    +0.000 A 
ENDBRANCH  17  18
BRANCH  17  23
ATOM     23  O   UNL     1       1.564  12.828  21.318  0.00  0.00    +0.000 OA
ATOM     24  H   UNL     1       2.271  13.337  21.761  0.00  0.00    +0.000 HD
ENDBRANCH  17  23
ENDBRANCH  11  17
ENDBRANCH   1  15
BRANCH   7  25
ATOM     25  N   UNL     1       3.476   4.885  18.180  0.00  0.00    +0.000 N 
ATOM     26  C   UNL     1       2.792   3.886  17.343  0.00  0.00    +0.000 C 
ATOM     27  C   UNL     1       2.541   2.603  18.144  0.00  0.00    +0.000 C 
ATOM     28  O   UNL     1       3.762   2.092  18.704  0.00  0.00    +0.000 OA
ATOM     29  C   UNL     1       4.348   3.061  19.590  0.00  0.00    +0.000 C 
ATOM     30  C   UNL     1       4.675   4.383  18.867  0.00  0.00    +0.000 C 
ENDBRANCH   7  25
TORSDOF 5
ENDMDL
MODEL 8
REMARK VINA RESULT:      -7.4      2.325      3.864
REMARK  Name = 
REMARK  5 active torsions:
REMARK  status: ('A' for Active; 'I' for Inactive)
REMARK    1  A    between atoms: O_1  and  C_2
REMARK    2  A    between atoms: C_2  and  C_3
REMARK    3  A    between atoms: C_2  and  C_8
REMARK    4  A    between atoms: N_12  and  C_13
REMARK    5  A    between atoms: C_19  and  N_20
REMARK                            x       y       z     vdW  Elec       q    Type
REMARK                         _______ _______ _______ _____ _____    ______ ____
ROOT
ATOM      1  C   UNL     1       2.674   6.657  18.874  0.00  0.00    +0.000 A 
ATOM      2  N   UNL     1       2.465   5.873  19.950  0.00  0.00    +0.000 NA
ATOM      3  C   UNL     1       1.777   6.396  20.971  0.00  0.00    +0.000 A 
ATOM      4  N   UNL     1       1.327   7.648  21.062  0.00  0.00    +0.000 NA
ATOM      5  C   UNL     1       1.514   8.428  19.994  0.00  0.00    +0.000 A 
ATOM      6  C   UNL     1       1.044   9.742  20.051  0.00  0.00    +0.000 A 
ATOM      7  C   UNL     1       1.112  10.644  18.977  0.00  0.00    +0.000 A 
ATOM      8  C   UNL     1       1.669  10.152  17.799  0.00  0.00    +0.000 A 
ATOM      9  C   UNL     1       2.136   8.848  17.711  0.00  0.00    +0.000 A 
ATOM     10  C   UNL     1       2.135   7.970  18.826  0.00  0.00    +0.000 A 
ENDROOT
BRANCH   1  15
ATOM     11  C   UNL     1       4.224   3.799  17.254  0.00  0.00    +0.000 C 
ATOM     12  C   UNL     1       5.532   4.444  16.757  0.00  0.00    +0.000 C 
ATOM     13  C   UNL     1       5.873   5.733  17.487  0.00  0.00    +0.000 C 
ATOM     14  C   UNL     1       4.719   6.719  17.435  0.00  0.00    +0.000 C 
ATOM     15  N   UNL     1       3.479   6.103  17.892  0.00  0.00    +0.000 N 
ATOM     16  C   UNL     1       3.085   4.834  17.269  0.00  0.00    +0.000 C 
BRANCH  11  17
ATOM     17  C   UNL     1       4.426   3.023  18.583  0.00  0.00    +0.000 C 
BRANCH  17  18
ATOM     18  C   UNL     1       3.151   2.839  19.377  0.00  0.00    +0.000 A 
ATOM     19  C   UNL     1       1.870   2.576  18.782  0.00  0.00    +0.000 A 
ATOM     20  C   UNL     1       0.870   2.413  19.713  0.00  0.00    +0.000 A 
ATOM     21  S   UNL     1       1.450   2.579  21.310  0.00  0.00    +0.000 S 
ATOM     22  C   UNL     1       3.042   2.859  20.757  0.00  0.00    +0.000 A 
ENDBRANCH  17  18
BRANCH  17  23
ATOM     23  O   UNL     1       5.477   3.544  19.388  0.00  0.00    +0.000 OA
ATOM     24  H   UNL     1       6.109   2.814  19.535  0.00  0.00    +0.000 HD
ENDBRANCH  17  23
ENDBRANCH  11  17
ENDBRANCH   1  15
BRANCH   7  25
ATOM     25  N   UNL     1       0.605  11.918  19.068  0.00  0.00    +0.000 N 
ATOM     26  C   UNL     1       1.183  12.938  19.957  0.00  0.00    +0.000 C 
ATOM     27  C   UNL     1       0.173  13.335  21.040  0.00  0.00    +0.000 C 
ATOM     28  O   UNL     1      -1.069  13.767  20.460  0.00  0.00    +0.000 OA
ATOM     29  C   UNL     1      -1.649  12.709  19.677  0.00  0.00    +0.000 C 
ATOM     30  C   UNL     1      -0.720  12.261  18.531  0.00  0.00    +0.000 C 
ENDBRANCH   7  25
TORSDOF 5
ENDMDL
MODEL 9
REMARK VINA RESULT:      -7.3      3.928      9.592
REMARK  Name = 
REMARK  5 active torsions:
REMARK  status: ('A' for Active; 'I' for Inactive)
REMARK    1  A    between atoms: O_1  and  C_2
REMARK    2  A    between atoms: C_2  and  C_3
REMARK    3  A    between atoms: C_2  and  C_8
REMARK    4  A    between atoms: N_12  and  C_13
REMARK    5  A    between atoms: C_19  and  N_20
REMARK                            x       y       z     vdW  Elec       q    Type
REMARK                         _______ _______ _______ _____ _____    ______ ____
ROOT
ATOM      1  C   UNL     1       0.210   9.754  19.666  0.00  0.00    +0.000 A 
ATOM      2  N   UNL     1      -0.048   9.865  20.984  0.00  0.00    +0.000 NA
ATOM      3  C   UNL     1       0.620   9.056  21.815  0.00  0.00    +0.000 A 
ATOM      4  N   UNL     1       1.477   8.097  21.463  0.00  0.00    +0.000 NA
ATOM      5  C   UNL     1       1.753   7.991  20.161  0.00  0.00    +0.000 A 
ATOM      6  C   UNL     1       2.656   7.003  19.760  0.00  0.00    +0.000 A 
ATOM      7  C   UNL     1       3.086   6.830  18.434  0.00  0.00    +0.000 A 
ATOM      8  C   UNL     1       2.574   7.728  17.502  0.00  0.00    +0.000 A 
ATOM      9  C   UNL     1       1.681   8.723  17.873  0.00  0.00    +0.000 A 
ATOM     10  C   UNL     1       1.192   8.840  19.200  0.00  0.00    +0.000 A 
ENDROOT
BRANCH   1  15
ATOM     11  C   UNL     1      -2.102  12.508  19.147  0.00  0.00    +0.000 C 
ATOM     12  C   UNL     1      -2.927  11.952  17.971  0.00  0.00    +0.000 C 
ATOM     13  C   UNL     1      -2.816  10.443  17.828  0.00  0.00    +0.000 C 
ATOM     14  C   UNL     1      -1.365  10.002  17.739  0.00  0.00    +0.000 C 
ATOM     15  N   UNL     1      -0.582  10.540  18.845  0.00  0.00    +0.000 N 
ATOM     16  C   UNL     1      -0.655  11.986  19.084  0.00  0.00    +0.000 C 
BRANCH  11  17
ATOM     17  C   UNL     1      -2.818  12.301  20.508  0.00  0.00    +0.000 C 
BRANCH  17  18
ATOM     18  C   UNL     1      -4.045  13.169  20.686  0.00  0.00    +0.000 A 
ATOM     19  C   UNL     1      -5.391  12.673  20.614  0.00  0.00    +0.000 A 
ATOM     20  C   UNL     1      -6.334  13.649  20.844  0.00  0.00    +0.000 A 
ATOM     21  S   UNL     1      -5.620  15.171  21.141  0.00  0.00    +0.000 S 
ATOM     22  C   UNL     1      -4.048  14.523  20.972  0.00  0.00    +0.000 A 
ENDBRANCH  17  18
BRANCH  17  23
ATOM     23  O   UNL     1      -1.943  12.392  21.627  0.00  0.00    +0.000 OA
ATOM     24  H   UNL     1      -1.267  11.695  21.514  0.00  0.00    +0.000 HD
ENDBRANCH  17  23
ENDBRANCH  11  17
ENDBRANCH   1  15
BRANCH   7  25
ATOM     25  N   UNL     1       4.004   5.865  18.091  0.00  0.00    +0.000 N 
ATOM     26  C   UNL     1       3.707   4.426  18.170  0.00  0.00    +0.000 C 
ATOM     27  C   UNL     1       4.606   3.753  19.214  0.00  0.00    +0.000 C 
ATOM     28  O   UNL     1       5.995   4.002  18.942  0.00  0.00    +0.000 OA
ATOM     29  C   UNL     1       6.263   5.415  18.969  0.00  0.00    +0.000 C 
ATOM     30  C   UNL     1       5.430   6.183  17.923  0.00  0.00    +0.000 C 
ENDBRANCH   7  25
TORSDOF 5
ENDMDL
