MODEL 1
REMARK VINA RESULT:      -8.5      0.000      0.000
REMARK  Name = 
REMARK  5 active torsions:
REMARK  status: ('A' for Active; 'I' for Inactive)
REMARK    1  A    between atoms: C_7  and  O_8
REMARK    2  A    between atoms: O_8  and  C_9
REMARK    3  A    between atoms: C_9  and  C_10
REMARK    4  A    between atoms: N_13  and  C_14
REMARK    5  A    between atoms: C_14  and  C_15
REMARK                            x       y       z     vdW  Elec       q    Type
REMARK                         _______ _______ _______ _____ _____    ______ ____
ROOT
ATOM      1  O   UNL     1       1.262   8.677  20.754  0.00  0.00    +0.000 OA
ENDROOT
BRANCH   1   8
ATOM      2  N   UNL     1      -0.663  14.444  18.563  0.00  0.00    +0.000 N 
ATOM      3  C   UNL     1      -0.308  13.263  19.246  0.00  0.00    +0.000 A 
ATOM      4  N   UNL     1       0.517  12.362  18.665  0.00  0.00    +0.000 NA
ATOM      5  C   UNL     1       0.863  11.191  19.263  0.00  0.00    +0.000 A 
ATOM      6  N   UNL     1       1.761  10.353  18.545  0.00  0.00    +0.000 N 
ATOM      7  C   UNL     1       0.329  10.893  20.561  0.00  0.00    +0.000 A 
ATOM      8  C   UNL     1       0.549   9.688  21.295  0.00  0.00    +0.000 A 
ATOM      9  C   UNL     1      -0.015   9.542  22.581  0.00  0.00    +0.000 A 
ATOM     10  C   UNL     1      -0.809  10.536  23.133  0.00  0.00    +0.000 A 
ATOM     11  C   UNL     1      -1.066  11.695  22.418  0.00  0.00    +0.000 A 
ATOM     12  C   UNL     1      -0.509  11.881  21.148  0.00  0.00    +0.000 A 
ATOM     13  N   UNL     1      -0.801  13.022  20.481  0.00  0.00    +0.000 NA
ATOM     14  H   UNL     1      -0.298  14.629  17.619  0.00  0.00    +0.000 HD
ATOM     15  H   UNL     1      -1.314  15.117  18.994  0.00  0.00    +0.000 HD
ATOM     16  H   UNL     1       2.110  10.669  17.628  0.00  0.00    +0.000 HD
ATOM     17  H   UNL     1       2.149   9.470  18.887  0.00  0.00    +0.000 HD
ENDBRANCH   1   8
BRANCH   1  18
ATOM     18  C   UNL     1       0.936   7.331  20.747  0.00  0.00    +0.000 C 
BRANCH  18  19
ATOM     19  C   UNL     1       2.115   6.422  20.306  0.00  0.00    +0.000 C 
ATOM     20  C   UNL     1       1.847   4.903  20.312  0.00  0.00    +0.000 C 
ATOM     21  C   UNL     1       3.147   4.147  19.982  0.00  0.00    +0.000 C 
ATOM     22  N   UNL     1       3.700   4.555  18.665  0.00  0.00    +0.000 NA
ATOM     23  C   UNL     1       3.883   6.025  18.587  0.00  0.00    +0.000 C 
ATOM     24  C   UNL     1       2.599   6.794  18.901  0.00  0.00    +0.000 C 
BRANCH  22  25
ATOM     25  C   UNL     1       5.030   3.938  18.441  0.00  0.00    +0.000 C 
BRANCH  25  26
ATOM     26  C   UNL     1       5.646   4.271  17.103  0.00  0.00    +0.000 A 
ATOM     27  C   UNL     1       4.890   4.113  15.928  0.00  0.00    +0.000 A 
ATOM     28  C   UNL     1       5.463   4.365  14.678  0.00  0.00    +0.000 A 
ATOM     29  C   UNL     1       6.794   4.777  14.590  0.00  0.00    +0.000 A 
ATOM     30  F   UNL     1       7.352   5.008  13.376  0.00  0.00    +0.000 F 
ATOM     31  C   UNL     1       7.552   4.944  15.753  0.00  0.00    +0.000 A 
ATOM     32  C   UNL     1       6.984   4.693  17.007  0.00  0.00    +0.000 A 
ATOM     33  F   UNL     1       7.740   4.843  18.124  0.00  0.00    +0.000 F 
ENDBRANCH  25  26
ENDBRANCH  22  25
ENDBRANCH  18  19
ENDBRANCH   1  18
TORSDOF 5
ENDMDL
MODEL 2
REMARK VINA RESULT:      -8.4      0.827      1.231
REMARK  Name = 
REMARK  5 active torsions:
REMARK  status: ('A' for Active; 'I' for Inactive)
REMARK    1  A    between atoms: C_7  and  O_8
REMARK    2  A    between atoms: O_8  and  C_9
REMARK    3  A    between atoms: C_9  and  C_10
REMARK    4  A    between atoms: N_13  and  C_14
REMARK    5  A    between atoms: C_14  and  C_15
REMARK                            x       y       z     vdW  Elec       q    Type
REMARK                         _______ _______ _______ _____ _____    ______ ____
ROOT
ATOM      1  O   UNL     1       1.499   8.091  21.056  0.00  0.00    +0.000 OA
ENDROOT
BRANCH   1   8
ATOM      2  N   UNL     1      -1.114  13.019  17.790  0.00  0.00    +0.000 N 
ATOM      3  C   UNL     1      -0.604  12.060  18.690  0.00  0.00    +0.000 A 
ATOM      4  N   UNL     1       0.272  11.122  18.261  0.00  0.00    +0.000 NA
ATOM      5  C   UNL     1       0.766  10.153  19.077  0.00  0.00    +0.000 A 
ATOM      6  N   UNL     1       1.700   9.252  18.496  0.00  0.00    +0.000 N 
ATOM      7  C   UNL     1       0.340  10.117  20.446  0.00  0.00    +0.000 A 
ATOM      8  C   UNL     1       0.720   9.136  21.411  0.00  0.00    +0.000 A 
ATOM      9  C   UNL     1       0.248   9.243  22.738  0.00  0.00    +0.000 A 
ATOM     10  C   UNL     1      -0.607  10.267  23.115  0.00  0.00    +0.000 A 
ATOM     11  C   UNL     1      -1.019  11.205  22.181  0.00  0.00    +0.000 A 
ATOM     12  C   UNL     1      -0.557  11.140  20.862  0.00  0.00    +0.000 A 
ATOM     13  N   UNL     1      -0.999  12.069  19.981  0.00  0.00    +0.000 NA
ATOM     14  H   UNL     1      -0.824  13.012  16.803  0.00  0.00    +0.000 HD
ATOM     15  H   UNL     1      -1.803  13.715  18.109  0.00  0.00    +0.000 HD
ATOM     16  H   UNL     1       1.963   9.377  17.507  0.00  0.00    +0.000 HD
ATOM     17  H   UNL     1       2.194   8.507  18.995  0.00  0.00    +0.000 HD
ENDBRANCH   1   8
BRANCH   1  18
ATOM     18  C   UNL     1       1.196   6.745  21.166  0.00  0.00    +0.000 C 
BRANCH  18  19
ATOM     19  C   UNL     1       1.900   5.873  20.092  0.00  0.00    +0.000 C 
ATOM     20  C   UNL     1       2.998   6.568  19.261  0.00  0.00    +0.000 C 
ATOM     21  C   UNL     1       3.496   5.612  18.161  0.00  0.00    +0.000 C 
ATOM     22  N   UNL     1       4.024   4.346  18.731  0.00  0.00    +0.000 NA
ATOM     23  C   UNL     1       3.027   3.696  19.616  0.00  0.00    +0.000 C 
ATOM     24  C   UNL     1       2.528   4.625  20.722  0.00  0.00    +0.000 C 
BRANCH  22  25
ATOM     25  C   UNL     1       4.347   3.379  17.653  0.00  0.00    +0.000 C 
BRANCH  25  26
ATOM     26  C   UNL     1       5.256   3.932  16.583  0.00  0.00    +0.000 A 
ATOM     27  C   UNL     1       4.821   3.963  15.245  0.00  0.00    +0.000 A 
ATOM     28  C   UNL     1       5.672   4.420  14.235  0.00  0.00    +0.000 A 
ATOM     29  C   UNL     1       6.962   4.852  14.549  0.00  0.00    +0.000 A 
ATOM     30  F   UNL     1       7.790   5.283  13.566  0.00  0.00    +0.000 F 
ATOM     31  C   UNL     1       7.401   4.831  15.876  0.00  0.00    +0.000 A 
ATOM     32  C   UNL     1       6.555   4.374  16.893  0.00  0.00    +0.000 A 
ATOM     33  F   UNL     1       7.004   4.345  18.172  0.00  0.00    +0.000 F 
ENDBRANCH  25  26
ENDBRANCH  22  25
ENDBRANCH  18  19
ENDBRANCH   1  18
TORSDOF 5
ENDMDL
MODEL 3
REMARK VINA RESULT:      -8.3      1.725      2.723
REMARK  Name = 
REMARK  5 active torsions:
REMARK  status: ('A' for Active; 'I' for Inactive)
REMARK    1  A    between atoms: C_7  and  O_8
REMARK    2  A    between atoms: O_8  and  C_9
REMARK    3  A    between atoms: C_9  and  C_10
REMARK    4  A    between atoms: N_13  and  C_14
REMARK    5  A    between atoms: C_14  and  C_15
REMARK                            x       y       z     vdW  Elec       q    Type
REMARK                         _______ _______ _______ _____ _____    ______ ____
ROOT
ATOM      1  O   UNL     1       0.980   8.723  21.064  0.00  0.00    +0.000 OA
ENDROOT
BRANCH   1   8
ATOM      2  N   UNL     1      -2.604  13.520  23.496  0.00  0.00    +0.000 N 
ATOM      3  C   UNL     1      -1.910  12.535  22.763  0.00  0.00    +0.000 A 
ATOM      4  N   UNL     1      -1.358  11.476  23.399  0.00  0.00    +0.000 NA
ATOM      5  C   UNL     1      -0.648  10.517  22.748  0.00  0.00    +0.000 A 
ATOM      6  N   UNL     1      -0.150   9.448  23.542  0.00  0.00    +0.000 N 
ATOM      7  C   UNL     1      -0.469  10.633  21.329  0.00  0.00    +0.000 A 
ATOM      8  C   UNL     1       0.293   9.746  20.511  0.00  0.00    +0.000 A 
ATOM      9  C   UNL     1       0.357   9.963  19.117  0.00  0.00    +0.000 A 
ATOM     10  C   UNL     1      -0.282  11.045  18.530  0.00  0.00    +0.000 A 
ATOM     11  C   UNL     1      -0.993  11.939  19.314  0.00  0.00    +0.000 A 
ATOM     12  C   UNL     1      -1.092  11.745  20.696  0.00  0.00    +0.000 A 
ATOM     13  N   UNL     1      -1.784  12.653  21.424  0.00  0.00    +0.000 NA
ATOM     14  H   UNL     1      -2.697  13.440  24.518  0.00  0.00    +0.000 HD
ATOM     15  H   UNL     1      -3.000  14.342  23.016  0.00  0.00    +0.000 HD
ATOM     16  H   UNL     1      -0.355   9.441  24.552  0.00  0.00    +0.000 HD
ATOM     17  H   UNL     1       0.356   8.632  23.187  0.00  0.00    +0.000 HD
ENDBRANCH   1   8
BRANCH   1  18
ATOM     18  C   UNL     1       0.626   7.384  21.075  0.00  0.00    +0.000 C 
BRANCH  18  19
ATOM     19  C   UNL     1       1.803   6.442  20.705  0.00  0.00    +0.000 C 
ATOM     20  C   UNL     1       1.469   4.939  20.605  0.00  0.00    +0.000 C 
ATOM     21  C   UNL     1       2.762   4.138  20.364  0.00  0.00    +0.000 C 
ATOM     22  N   UNL     1       3.460   4.580  19.131  0.00  0.00    +0.000 NA
ATOM     23  C   UNL     1       3.713   6.041  19.147  0.00  0.00    +0.000 C 
ATOM     24  C   UNL     1       2.439   6.855  19.373  0.00  0.00    +0.000 C 
BRANCH  22  25
ATOM     25  C   UNL     1       4.778   3.911  19.005  0.00  0.00    +0.000 C 
BRANCH  25  26
ATOM     26  C   UNL     1       5.473   4.162  17.689  0.00  0.00    +0.000 A 
ATOM     27  C   UNL     1       6.811   4.597  17.677  0.00  0.00    +0.000 A 
ATOM     28  C   UNL     1       7.451   4.886  16.469  0.00  0.00    +0.000 A 
ATOM     29  C   UNL     1       6.764   4.744  15.262  0.00  0.00    +0.000 A 
ATOM     30  F   UNL     1       7.382   5.037  14.092  0.00  0.00    +0.000 F 
ATOM     31  C   UNL     1       5.436   4.306  15.262  0.00  0.00    +0.000 A 
ATOM     32  C   UNL     1       4.789   4.014  16.469  0.00  0.00    +0.000 A 
ATOM     33  F   UNL     1       3.495   3.607  16.450  0.00  0.00    +0.000 F 
ENDBRANCH  25  26
ENDBRANCH  22  25
ENDBRANCH  18  19
ENDBRANCH   1  18
TORSDOF 5
ENDMDL
MODEL 4
REMARK VINA RESULT:      -8.3      4.198      9.173
REMARK  Name = 
REMARK  5 active torsions:
REMARK  status: ('A' for Active; 'I' for Inactive)
REMARK    1  A    between atoms: C_7  and  O_8
REMARK    2  A    between atoms: O_8  and  C_9
REMARK    3  A    between atoms: C_9  and  C_10
REMARK    4  A    between atoms: N_13  and  C_14
REMARK    5  A    between atoms: C_14  and  C_15
REMARK                            x       y       z     vdW  Elec       q    Type
REMARK                         _______ _______ _______ _____ _____    ______ ____
ROOT
ATOM      1  O   UNL     1       4.173   4.360  18.923  0.00  0.00    +0.000 OA
ENDROOT
BRANCH   1   8
ATOM      2  N   UNL     1       7.305   5.108  13.319  0.00  0.00    +0.000 N 
ATOM      3  C   UNL     1       6.826   4.979  14.639  0.00  0.00    +0.000 A 
ATOM      4  N   UNL     1       5.623   4.406  14.874  0.00  0.00    +0.000 NA
ATOM      5  C   UNL     1       5.097   4.288  16.122  0.00  0.00    +0.000 A 
ATOM      6  N   UNL     1       3.836   3.639  16.220  0.00  0.00    +0.000 N 
ATOM      7  C   UNL     1       5.843   4.798  17.237  0.00  0.00    +0.000 A 
ATOM      8  C   UNL     1       5.407   4.803  18.597  0.00  0.00    +0.000 A 
ATOM      9  C   UNL     1       6.262   5.308  19.601  0.00  0.00    +0.000 A 
ATOM     10  C   UNL     1       7.506   5.832  19.287  0.00  0.00    +0.000 A 
ATOM     11  C   UNL     1       7.928   5.872  17.967  0.00  0.00    +0.000 A 
ATOM     12  C   UNL     1       7.115   5.364  16.948  0.00  0.00    +0.000 A 
ATOM     13  N   UNL     1       7.563   5.439  15.673  0.00  0.00    +0.000 NA
ATOM     14  H   UNL     1       6.744   4.767  12.526  0.00  0.00    +0.000 HD
ATOM     15  H   UNL     1       8.208   5.571  13.137  0.00  0.00    +0.000 HD
ATOM     16  H   UNL     1       3.391   3.283  15.360  0.00  0.00    +0.000 HD
ATOM     17  H   UNL     1       3.342   3.433  17.092  0.00  0.00    +0.000 HD
ENDBRANCH   1   8
BRANCH   1  18
ATOM     18  C   UNL     1       3.341   4.853  19.913  0.00  0.00    +0.000 C 
BRANCH  18  19
ATOM     19  C   UNL     1       2.901   6.320  19.662  0.00  0.00    +0.000 C 
ATOM     20  C   UNL     1       2.529   6.683  18.209  0.00  0.00    +0.000 C 
ATOM     21  C   UNL     1       2.248   8.194  18.110  0.00  0.00    +0.000 C 
ATOM     22  N   UNL     1       1.156   8.611  19.026  0.00  0.00    +0.000 NA
ATOM     23  C   UNL     1       1.434   8.193  20.422  0.00  0.00    +0.000 C 
ATOM     24  C   UNL     1       1.704   6.693  20.544  0.00  0.00    +0.000 C 
BRANCH  22  25
ATOM     25  C   UNL     1       1.012  10.087  19.034  0.00  0.00    +0.000 C 
BRANCH  25  26
ATOM     26  C   UNL     1      -0.385  10.571  18.729  0.00  0.00    +0.000 A 
ATOM     27  C   UNL     1      -1.146   9.928  17.734  0.00  0.00    +0.000 A 
ATOM     28  C   UNL     1      -2.419  10.398  17.403  0.00  0.00    +0.000 A 
ATOM     29  C   UNL     1      -2.947  11.512  18.060  0.00  0.00    +0.000 A 
ATOM     30  F   UNL     1      -4.177  11.974  17.727  0.00  0.00    +0.000 F 
ATOM     31  C   UNL     1      -2.202  12.153  19.054  0.00  0.00    +0.000 A 
ATOM     32  C   UNL     1      -0.926  11.688  19.391  0.00  0.00    +0.000 A 
ATOM     33  F   UNL     1      -0.211  12.334  20.347  0.00  0.00    +0.000 F 
ENDBRANCH  25  26
ENDBRANCH  22  25
ENDBRANCH  18  19
ENDBRANCH   1  18
TORSDOF 5
ENDMDL
MODEL 5
REMARK VINA RESULT:      -8.3      3.483      4.752
REMARK  Name = 
REMARK  5 active torsions:
REMARK  status: ('A' for Active; 'I' for Inactive)
REMARK    1  A    between atoms: C_7  and  O_8
REMARK    2  A    between atoms: O_8  and  C_9
REMARK    3  A    between atoms: C_9  and  C_10
REMARK    4  A    between atoms: N_13  and  C_14
REMARK    5  A    between atoms: C_14  and  C_15
REMARK                            x       y       z     vdW  Elec       q    Type
REMARK                         _______ _______ _______ _____ _____    ______ ____
ROOT
ATOM      1  O   UNL     1      -1.302  11.112  19.268  0.00  0.00    +0.000 OA
ENDROOT
BRANCH   1   8
ATOM      2  N   UNL     1      -7.261  13.354  18.157  0.00  0.00    +0.000 N 
ATOM      3  C   UNL     1      -6.001  12.725  18.223  0.00  0.00    +0.000 A 
ATOM      4  N   UNL     1      -5.243  12.833  19.339  0.00  0.00    +0.000 NA
ATOM      5  C   UNL     1      -4.006  12.278  19.443  0.00  0.00    +0.000 A 
ATOM      6  N   UNL     1      -3.337  12.450  20.685  0.00  0.00    +0.000 N 
ATOM      7  C   UNL     1      -3.478  11.553  18.323  0.00  0.00    +0.000 A 
ATOM      8  C   UNL     1      -2.180  10.962  18.252  0.00  0.00    +0.000 A 
ATOM      9  C   UNL     1      -1.801  10.246  17.095  0.00  0.00    +0.000 A 
ATOM     10  C   UNL     1      -2.656  10.134  16.010  0.00  0.00    +0.000 A 
ATOM     11  C   UNL     1      -3.905  10.735  16.046  0.00  0.00    +0.000 A 
ATOM     12  C   UNL     1      -4.320  11.438  17.182  0.00  0.00    +0.000 A 
ATOM     13  N   UNL     1      -5.541  12.022  17.166  0.00  0.00    +0.000 NA
ATOM     14  H   UNL     1      -7.613  13.898  18.956  0.00  0.00    +0.000 HD
ATOM     15  H   UNL     1      -7.826  13.296  17.297  0.00  0.00    +0.000 HD
ATOM     16  H   UNL     1      -3.813  12.967  21.440  0.00  0.00    +0.000 HD
ATOM     17  H   UNL     1      -2.427  12.048  20.929  0.00  0.00    +0.000 HD
ENDBRANCH   1   8
BRANCH   1  18
ATOM     18  C   UNL     1       0.079  11.039  19.200  0.00  0.00    +0.000 C 
BRANCH  18  19
ATOM     19  C   UNL     1       0.612   9.581  19.224  0.00  0.00    +0.000 C 
ATOM     20  C   UNL     1       1.745   9.251  18.231  0.00  0.00    +0.000 C 
ATOM     21  C   UNL     1       2.062   7.745  18.291  0.00  0.00    +0.000 C 
ATOM     22  N   UNL     1       2.455   7.321  19.659  0.00  0.00    +0.000 NA
ATOM     23  C   UNL     1       1.431   7.709  20.659  0.00  0.00    +0.000 C 
ATOM     24  C   UNL     1       1.110   9.203  20.623  0.00  0.00    +0.000 C 
BRANCH  22  25
ATOM     25  C   UNL     1       2.599   5.846  19.730  0.00  0.00    +0.000 C 
BRANCH  25  26
ATOM     26  C   UNL     1       3.674   5.288  18.831  0.00  0.00    +0.000 A 
ATOM     27  C   UNL     1       5.028   5.516  19.137  0.00  0.00    +0.000 A 
ATOM     28  C   UNL     1       6.035   5.052  18.285  0.00  0.00    +0.000 A 
ATOM     29  C   UNL     1       5.700   4.357  17.121  0.00  0.00    +0.000 A 
ATOM     30  F   UNL     1       6.677   3.920  16.289  0.00  0.00    +0.000 F 
ATOM     31  C   UNL     1       4.358   4.120  16.811  0.00  0.00    +0.000 A 
ATOM     32  C   UNL     1       3.345   4.581  17.660  0.00  0.00    +0.000 A 
ATOM     33  F   UNL     1       2.047   4.357  17.334  0.00  0.00    +0.000 F 
ENDBRANCH  25  26
ENDBRANCH  22  25
ENDBRANCH  18  19
ENDBRANCH   1  18
TORSDOF 5
ENDMDL
MODEL 6
REMARK VINA RESULT:      -8.3      0.990      1.337
REMARK  Name = 
REMARK  5 active torsions:
REMARK  status: ('A' for Active; 'I' for Inactive)
REMARK    1  A    between atoms: C_7  and  O_8
REMARK    2  A    between atoms: O_8  and  C_9
REMARK    3  A    between atoms: C_9  and  C_10
REMARK    4  A    between atoms: N_13  and  C_14
REMARK    5  A    between atoms: C_14  and  C_15
REMARK                            x       y       z     vdW  Elec       q    Type
REMARK                         _______ _______ _______ _____ _____    ______ ____
ROOT
ATOM      1  O   UNL     1       0.917   8.522  20.880  0.00  0.00    +0.000 OA
ENDROOT
BRANCH   1   8
ATOM      2  N   UNL     1      -0.758  14.232  18.361  0.00  0.00    +0.000 N 
ATOM      3  C   UNL     1      -0.451  13.079  19.112  0.00  0.00    +0.000 A 
ATOM      4  N   UNL     1       0.319  12.104  18.576  0.00  0.00    +0.000 NA
ATOM      5  C   UNL     1       0.617  10.956  19.241  0.00  0.00    +0.000 A 
ATOM      6  N   UNL     1       1.460  10.032  18.565  0.00  0.00    +0.000 N 
ATOM      7  C   UNL     1       0.091  10.766  20.562  0.00  0.00    +0.000 A 
ATOM      8  C   UNL     1       0.264   9.599  21.367  0.00  0.00    +0.000 A 
ATOM      9  C   UNL     1      -0.285   9.561  22.668  0.00  0.00    +0.000 A 
ATOM     10  C   UNL     1      -1.019  10.625  23.168  0.00  0.00    +0.000 A 
ATOM     11  C   UNL     1      -1.230  11.750  22.386  0.00  0.00    +0.000 A 
ATOM     12  C   UNL     1      -0.687  11.829  21.099  0.00  0.00    +0.000 A 
ATOM     13  N   UNL     1      -0.933  12.940  20.365  0.00  0.00    +0.000 NA
ATOM     14  H   UNL     1      -0.401  14.340  17.402  0.00  0.00    +0.000 HD
ATOM     15  H   UNL     1      -1.369  14.962  18.758  0.00  0.00    +0.000 HD
ATOM     16  H   UNL     1       1.809  10.273  17.625  0.00  0.00    +0.000 HD
ATOM     17  H   UNL     1       1.810   9.153  18.955  0.00  0.00    +0.000 HD
ENDBRANCH   1   8
BRANCH   1  18
ATOM     18  C   UNL     1       0.689   7.192  21.191  0.00  0.00    +0.000 C 
BRANCH  18  19
ATOM     19  C   UNL     1       1.855   6.259  20.765  0.00  0.00    +0.000 C 
ATOM     20  C   UNL     1       1.500   4.772  20.559  0.00  0.00    +0.000 C 
ATOM     21  C   UNL     1       2.783   3.970  20.273  0.00  0.00    +0.000 C 
ATOM     22  N   UNL     1       3.498   4.486  19.078  0.00  0.00    +0.000 NA
ATOM     23  C   UNL     1       3.772   5.939  19.198  0.00  0.00    +0.000 C 
ATOM     24  C   UNL     1       2.509   6.755  19.471  0.00  0.00    +0.000 C 
BRANCH  22  25
ATOM     25  C   UNL     1       4.807   3.807  18.916  0.00  0.00    +0.000 C 
BRANCH  25  26
ATOM     26  C   UNL     1       5.498   4.106  17.607  0.00  0.00    +0.000 A 
ATOM     27  C   UNL     1       6.829   4.562  17.608  0.00  0.00    +0.000 A 
ATOM     28  C   UNL     1       7.464   4.895  16.409  0.00  0.00    +0.000 A 
ATOM     29  C   UNL     1       6.779   4.776  15.198  0.00  0.00    +0.000 A 
ATOM     30  F   UNL     1       7.392   5.112  14.037  0.00  0.00    +0.000 F 
ATOM     31  C   UNL     1       5.458   4.318  15.186  0.00  0.00    +0.000 A 
ATOM     32  C   UNL     1       4.816   3.983  16.383  0.00  0.00    +0.000 A 
ATOM     33  F   UNL     1       3.528   3.556  16.353  0.00  0.00    +0.000 F 
ENDBRANCH  25  26
ENDBRANCH  22  25
ENDBRANCH  18  19
ENDBRANCH   1  18
TORSDOF 5
ENDMDL
MODEL 7
REMARK VINA RESULT:      -8.3      4.055      9.333
REMARK  Name = 
REMARK  5 active torsions:
REMARK  status: ('A' for Active; 'I' for Inactive)
REMARK    1  A    between atoms: C_7  and  O_8
REMARK    2  A    between atoms: O_8  and  C_9
REMARK    3  A    between atoms: C_9  and  C_10
REMARK    4  A    between atoms: N_13  and  C_14
REMARK    5  A    between atoms: C_14  and  C_15
REMARK                            x       y       z     vdW  Elec       q    Type
REMARK                         _______ _______ _______ _____ _____    ______ ____
ROOT
ATOM      1  O   UNL     1       3.908   4.566  19.036  0.00  0.00    +0.000 OA
ENDROOT
BRANCH   1   8
ATOM      2  N   UNL     1       6.995   4.412  13.360  0.00  0.00    +0.000 N 
ATOM      3  C   UNL     1       6.530   4.466  14.689  0.00  0.00    +0.000 A 
ATOM      4  N   UNL     1       5.277   4.055  14.990  0.00  0.00    +0.000 NA
ATOM      5  C   UNL     1       4.765   4.119  16.248  0.00  0.00    +0.000 A 
ATOM      6  N   UNL     1       3.443   3.626  16.421  0.00  0.00    +0.000 N 
ATOM      7  C   UNL     1       5.583   4.650  17.301  0.00  0.00    +0.000 A 
ATOM      8  C   UNL     1       5.177   4.836  18.657  0.00  0.00    +0.000 A 
ATOM      9  C   UNL     1       6.100   5.341  19.599  0.00  0.00    +0.000 A 
ATOM     10  C   UNL     1       7.388   5.691  19.224  0.00  0.00    +0.000 A 
ATOM     11  C   UNL     1       7.787   5.554  17.904  0.00  0.00    +0.000 A 
ATOM     12  C   UNL     1       6.904   5.042  16.947  0.00  0.00    +0.000 A 
ATOM     13  N   UNL     1       7.333   4.941  15.667  0.00  0.00    +0.000 NA
ATOM     14  H   UNL     1       6.386   4.059  12.609  0.00  0.00    +0.000 HD
ATOM     15  H   UNL     1       7.940   4.752  13.125  0.00  0.00    +0.000 HD
ATOM     16  H   UNL     1       2.946   3.239  15.604  0.00  0.00    +0.000 HD
ATOM     17  H   UNL     1       2.946   3.562  17.313  0.00  0.00    +0.000 HD
ENDBRANCH   1   8
BRANCH   1  18
ATOM     18  C   UNL     1       3.176   5.201  20.024  0.00  0.00    +0.000 C 
BRANCH  18  19
ATOM     19  C   UNL     1       2.787   6.658  19.651  0.00  0.00    +0.000 C 
ATOM     20  C   UNL     1       2.401   6.906  18.178  0.00  0.00    +0.000 C 
ATOM     21  C   UNL     1       2.175   8.412  17.951  0.00  0.00    +0.000 C 
ATOM     22  N   UNL     1       1.118   8.951  18.844  0.00  0.00    +0.000 NA
ATOM     23  C   UNL     1       1.407   8.646  20.267  0.00  0.00    +0.000 C 
ATOM     24  C   UNL     1       1.623   7.153  20.516  0.00  0.00    +0.000 C 
BRANCH  22  25
ATOM     25  C   UNL     1       1.031  10.427  18.723  0.00  0.00    +0.000 C 
BRANCH  25  26
ATOM     26  C   UNL     1      -0.377  10.967  18.788  0.00  0.00    +0.000 A 
ATOM     27  C   UNL     1      -0.704  11.955  19.734  0.00  0.00    +0.000 A 
ATOM     28  C   UNL     1      -2.015  12.426  19.843  0.00  0.00    +0.000 A 
ATOM     29  C   UNL     1      -3.012  11.916  19.009  0.00  0.00    +0.000 A 
ATOM     30  F   UNL     1      -4.286  12.365  19.125  0.00  0.00    +0.000 F 
ATOM     31  C   UNL     1      -2.697  10.939  18.061  0.00  0.00    +0.000 A 
ATOM     32  C   UNL     1      -1.386  10.463  17.946  0.00  0.00    +0.000 A 
ATOM     33  F   UNL     1      -1.102   9.501  17.032  0.00  0.00    +0.000 F 
ENDBRANCH  25  26
ENDBRANCH  22  25
ENDBRANCH  18  19
ENDBRANCH   1  18
TORSDOF 5
ENDMDL
MODEL 8
REMARK VINA RESULT:      -8.2      4.338     10.395
REMARK  Name = 
REMARK  5 active torsions:
REMARK  status: ('A' for Active; 'I' for Inactive)
REMARK    1  A    between atoms: C_7  and  O_8
REMARK    2  A    between atoms: O_8  and  C_9
REMARK    3  A    between atoms: C_9  and  C_10
REMARK    4  A    between atoms: N_13  and  C_14
REMARK    5  A    between atoms: C_14  and  C_15
REMARK                            x       y       z     vdW  Elec       q    Type
REMARK                         _______ _______ _______ _____ _____    ______ ____
ROOT
ATOM      1  O   UNL     1       2.622   7.609  18.496  0.00  0.00    +0.000 OA
ENDROOT
BRANCH   1   8
ATOM      2  N   UNL     1       4.894   1.775  20.099  0.00  0.00    +0.000 N 
ATOM      3  C   UNL     1       4.588   3.066  19.623  0.00  0.00    +0.000 A 
ATOM      4  N   UNL     1       3.655   3.820  20.249  0.00  0.00    +0.000 NA
ATOM      5  C   UNL     1       3.294   5.055  19.811  0.00  0.00    +0.000 A 
ATOM      6  N   UNL     1       2.320   5.743  20.585  0.00  0.00    +0.000 N 
ATOM      7  C   UNL     1       3.923   5.582  18.634  0.00  0.00    +0.000 A 
ATOM      8  C   UNL     1       3.618   6.833  18.017  0.00  0.00    +0.000 A 
ATOM      9  C   UNL     1       4.342   7.243  16.875  0.00  0.00    +0.000 A 
ATOM     10  C   UNL     1       5.324   6.436  16.321  0.00  0.00    +0.000 A 
ATOM     11  C   UNL     1       5.606   5.201  16.884  0.00  0.00    +0.000 A 
ATOM     12  C   UNL     1       4.920   4.770  18.025  0.00  0.00    +0.000 A 
ATOM     13  N   UNL     1       5.218   3.550  18.530  0.00  0.00    +0.000 NA
ATOM     14  H   UNL     1       4.411   1.397  20.926  0.00  0.00    +0.000 HD
ATOM     15  H   UNL     1       5.584   1.189  19.606  0.00  0.00    +0.000 HD
ATOM     16  H   UNL     1       1.946   5.289  21.432  0.00  0.00    +0.000 HD
ATOM     17  H   UNL     1       1.989   6.696  20.411  0.00  0.00    +0.000 HD
ENDBRANCH   1   8
BRANCH   1  18
ATOM     18  C   UNL     1       1.707   8.346  17.762  0.00  0.00    +0.000 C 
BRANCH  18  19
ATOM     19  C   UNL     1       1.163   9.579  18.533  0.00  0.00    +0.000 C 
ATOM     20  C   UNL     1      -0.213  10.113  18.085  0.00  0.00    +0.000 C 
ATOM     21  C   UNL     1      -0.541  11.406  18.854  0.00  0.00    +0.000 C 
ATOM     22  N   UNL     1      -0.542  11.186  20.322  0.00  0.00    +0.000 NA
ATOM     23  C   UNL     1       0.733  10.582  20.779  0.00  0.00    +0.000 C 
ATOM     24  C   UNL     1       1.071   9.290  20.035  0.00  0.00    +0.000 C 
BRANCH  22  25
ATOM     25  C   UNL     1      -0.700  12.472  21.046  0.00  0.00    +0.000 C 
BRANCH  25  26
ATOM     26  C   UNL     1      -2.011  12.608  21.781  0.00  0.00    +0.000 A 
ATOM     27  C   UNL     1      -3.033  13.412  21.245  0.00  0.00    +0.000 A 
ATOM     28  C   UNL     1      -4.232  13.591  21.940  0.00  0.00    +0.000 A 
ATOM     29  C   UNL     1      -4.422  12.971  23.177  0.00  0.00    +0.000 A 
ATOM     30  F   UNL     1      -5.580  13.157  23.857  0.00  0.00    +0.000 F 
ATOM     31  C   UNL     1      -3.415  12.164  23.716  0.00  0.00    +0.000 A 
ATOM     32  C   UNL     1      -2.212  11.980  23.024  0.00  0.00    +0.000 A 
ATOM     33  F   UNL     1      -1.240  11.208  23.571  0.00  0.00    +0.000 F 
ENDBRANCH  25  26
ENDBRANCH  22  25
ENDBRANCH  18  19
ENDBRANCH   1  18
TORSDOF 5
ENDMDL
MODEL 9
REMARK VINA RESULT:      -8.2      1.393      2.132
REMARK  Name = 
REMARK  5 active torsions:
REMARK  status: ('A' for Active; 'I' for Inactive)
REMARK    1  A    between atoms: C_7  and  O_8
REMARK    2  A    between atoms: O_8  and  C_9
REMARK    3  A    between atoms: C_9  and  C_10
REMARK    4  A    between atoms: N_13  and  C_14
REMARK    5  A    between atoms: C_14  and  C_15
REMARK                            x       y       z     vdW  Elec       q    Type
REMARK                         _______ _______ _______ _____ _____    ______ ____
ROOT
ATOM      1  O   UNL     1       0.682   8.317  20.529  0.00  0.00    +0.000 OA
ENDROOT
BRANCH   1   8
ATOM      2  N   UNL     1      -0.874  14.354  18.827  0.00  0.00    +0.000 N 
ATOM      3  C   UNL     1      -0.564  13.111  19.413  0.00  0.00    +0.000 A 
ATOM      4  N   UNL     1       0.076  12.159  18.694  0.00  0.00    +0.000 NA
ATOM      5  C   UNL     1       0.367  10.931  19.197  0.00  0.00    +0.000 A 
ATOM      6  N   UNL     1       1.066  10.042  18.335  0.00  0.00    +0.000 N 
ATOM      7  C   UNL     1      -0.022  10.625  20.544  0.00  0.00    +0.000 A 
ATOM      8  C   UNL     1       0.159   9.369  21.198  0.00  0.00    +0.000 A 
ATOM      9  C   UNL     1      -0.244   9.217  22.543  0.00  0.00    +0.000 A 
ATOM     10  C   UNL     1      -0.846  10.259  23.232  0.00  0.00    +0.000 A 
ATOM     11  C   UNL     1      -1.066  11.473  22.600  0.00  0.00    +0.000 A 
ATOM     12  C   UNL     1      -0.663  11.664  21.274  0.00  0.00    +0.000 A 
ATOM     13  N   UNL     1      -0.914  12.861  20.694  0.00  0.00    +0.000 NA
ATOM     14  H   UNL     1      -0.618  14.548  17.849  0.00  0.00    +0.000 HD
ATOM     15  H   UNL     1      -1.387  15.069  19.366  0.00  0.00    +0.000 HD
ATOM     16  H   UNL     1       1.325  10.366  17.391  0.00  0.00    +0.000 HD
ATOM     17  H   UNL     1       1.398   9.108  18.589  0.00  0.00    +0.000 HD
ENDBRANCH   1   8
BRANCH   1  18
ATOM     18  C   UNL     1       1.041   7.087  21.053  0.00  0.00    +0.000 C 
BRANCH  18  19
ATOM     19  C   UNL     1       2.130   6.365  20.214  0.00  0.00    +0.000 C 
ATOM     20  C   UNL     1       2.066   4.824  20.191  0.00  0.00    +0.000 C 
ATOM     21  C   UNL     1       3.285   4.267  19.432  0.00  0.00    +0.000 C 
ATOM     22  N   UNL     1       3.350   4.787  18.042  0.00  0.00    +0.000 NA
ATOM     23  C   UNL     1       3.317   6.270  18.018  0.00  0.00    +0.000 C 
ATOM     24  C   UNL     1       2.108   6.842  18.758  0.00  0.00    +0.000 C 
BRANCH  22  25
ATOM     25  C   UNL     1       4.612   4.369  17.384  0.00  0.00    +0.000 C 
BRANCH  25  26
ATOM     26  C   UNL     1       5.801   5.233  17.726  0.00  0.00    +0.000 A 
ATOM     27  C   UNL     1       6.503   5.013  18.926  0.00  0.00    +0.000 A 
ATOM     28  C   UNL     1       7.572   5.839  19.283  0.00  0.00    +0.000 A 
ATOM     29  C   UNL     1       7.950   6.892  18.448  0.00  0.00    +0.000 A 
ATOM     30  F   UNL     1       8.979   7.701  18.802  0.00  0.00    +0.000 F 
ATOM     31  C   UNL     1       7.264   7.116  17.251  0.00  0.00    +0.000 A 
ATOM     32  C   UNL     1       6.193   6.291  16.887  0.00  0.00    +0.000 A 
ATOM     33  F   UNL     1       5.527   6.534  15.730  0.00  0.00    +0.000 F 
ENDBRANCH  25  26
ENDBRANCH  22  25
ENDBRANCH  18  19
ENDBRANCH   1  18
TORSDOF 5
ENDMDL
