MODEL 1
REMARK VINA RESULT:      -6.9      0.000      0.000
REMARK  Name = 
REMARK  7 active torsions:
REMARK  status: ('A' for Active; 'I' for Inactive)
REMARK    1  A    between atoms: C_1  and  C_2
REMARK    2  A    between atoms: C_2  and  N_3
REMARK    3  A    between atoms: C_4  and  S_5
REMARK    4  A    between atoms: S_5  and  C_6
REMARK    5  A    between atoms: C_6  and  C_7
REMARK    6  A    between atoms: C_7  and  C_9
REMARK    7  A    between atoms: C_20  and  C_21
REMARK                            x       y       z     vdW  Elec       q    Type
REMARK                         _______ _______ _______ _____ _____    ______ ____
ROOT
ATOM      1  S   UNL     1       3.571   1.724  17.730  0.00  0.00    +0.000 S 
ENDROOT
BRANCH   1   3
ATOM      2  N   UNL     1       5.110   4.017  17.669  0.00  0.00    +0.000 N 
ATOM      3  C   UNL     1       4.575   2.974  18.394  0.00  0.00    +0.000 A 
ATOM      4  N   UNL     1       4.949   3.069  19.646  0.00  0.00    +0.000 NA
ATOM      5  N   UNL     1       5.743   4.187  19.759  0.00  0.00    +0.000 NA
ATOM      6  C   UNL     1       5.837   4.768  18.576  0.00  0.00    +0.000 A 
BRANCH   6   7
ATOM      7  C   UNL     1       6.623   5.960  18.340  0.00  0.00    +0.000 A 
ATOM      8  C   UNL     1       7.856   6.333  18.850  0.00  0.00    +0.000 A 
ATOM      9  C   UNL     1       8.307   7.601  18.368  0.00  0.00    +0.000 A 
ATOM     10  C   UNL     1       7.424   8.150  17.469  0.00  0.00    +0.000 A 
ATOM     11  S   UNL     1       6.061   7.151  17.225  0.00  0.00    +0.000 S 
ENDBRANCH   6   7
BRANCH   2  13
ATOM     12  C   UNL     1       6.198   3.795  15.455  0.00  0.00    +0.000 C 
ATOM     13  C   UNL     1       4.982   4.249  16.242  0.00  0.00    +0.000 C 
ENDBRANCH   2  13
ENDBRANCH   1   3
BRANCH   1  14
ATOM     14  C   UNL     1       2.351   1.452  19.069  0.00  0.00    +0.000 C 
BRANCH  14  15
ATOM     15  C   UNL     1       1.236   2.516  19.087  0.00  0.00    +0.000 C 
ATOM     16  O   UNL     1       0.137   2.324  18.567  0.00  0.00    +0.000 OA
BRANCH  15  17
ATOM     17  C   UNL     1       1.535   3.808  19.738  0.00  0.00    +0.000 A 
ATOM     18  C   UNL     1       1.637   4.026  21.103  0.00  0.00    +0.000 A 
ATOM     19  N   UNL     1       1.975   5.337  21.318  0.00  0.00    +0.000 N 
ATOM     20  C   UNL     1       2.127   5.993  20.122  0.00  0.00    +0.000 A 
ATOM     21  C   UNL     1       2.524   7.315  19.866  0.00  0.00    +0.000 A 
ATOM     22  C   UNL     1       2.579   7.736  18.538  0.00  0.00    +0.000 A 
ATOM     23  C   UNL     1       2.220   6.873  17.507  0.00  0.00    +0.000 A 
ATOM     24  C   UNL     1       1.828   5.554  17.779  0.00  0.00    +0.000 A 
ATOM     25  C   UNL     1       1.801   5.083  19.113  0.00  0.00    +0.000 A 
ATOM     26  H   UNL     1       2.111   5.766  22.224  0.00  0.00    +0.000 HD
ENDBRANCH  15  17
ENDBRANCH  14  15
ENDBRANCH   1  14
TORSDOF 6
ENDMDL
MODEL 2
REMARK VINA RESULT:      -6.9      3.400      6.361
REMARK  Name = 
REMARK  7 active torsions:
REMARK  status: ('A' for Active; 'I' for Inactive)
REMARK    1  A    between atoms: C_1  and  C_2
REMARK    2  A    between atoms: C_2  and  N_3
REMARK    3  A    between atoms: C_4  and  S_5
REMARK    4  A    between atoms: S_5  and  C_6
REMARK    5  A    between atoms: C_6  and  C_7
REMARK    6  A    between atoms: C_7  and  C_9
REMARK    7  A    between atoms: C_20  and  C_21
REMARK                            x       y       z     vdW  Elec       q    Type
REMARK                         _______ _______ _______ _____ _____    ______ ____
ROOT
ATOM      1  S   UNL     1       2.317   6.134  19.948  0.00  0.00    +0.000 S 
ENDROOT
BRANCH   1   3
ATOM      2  N   UNL     1       1.353   8.699  19.605  0.00  0.00    +0.000 N 
ATOM      3  C   UNL     1       2.084   7.638  19.116  0.00  0.00    +0.000 A 
ATOM      4  N   UNL     1       2.560   7.938  17.932  0.00  0.00    +0.000 NA
ATOM      5  N   UNL     1       2.143   9.213  17.628  0.00  0.00    +0.000 NA
ATOM      6  C   UNL     1       1.424   9.681  18.633  0.00  0.00    +0.000 A 
BRANCH   6   7
ATOM      7  C   UNL     1       0.810  10.992  18.623  0.00  0.00    +0.000 A 
ATOM      8  C   UNL     1      -0.523  11.354  18.519  0.00  0.00    +0.000 A 
ATOM      9  C   UNL     1      -0.729  12.769  18.550  0.00  0.00    +0.000 A 
ATOM     10  C   UNL     1       0.451  13.454  18.716  0.00  0.00    +0.000 A 
ATOM     11  S   UNL     1       1.790  12.399  18.816  0.00  0.00    +0.000 S 
ENDBRANCH   6   7
BRANCH   2  13
ATOM     12  C   UNL     1       1.465   9.231  22.022  0.00  0.00    +0.000 C 
ATOM     13  C   UNL     1       0.618   8.755  20.855  0.00  0.00    +0.000 C 
ENDBRANCH   2  13
ENDBRANCH   1   3
BRANCH   1  14
ATOM     14  C   UNL     1       2.060   4.905  18.614  0.00  0.00    +0.000 C 
BRANCH  14  15
ATOM     15  C   UNL     1       3.109   3.777  18.631  0.00  0.00    +0.000 C 
ATOM     16  O   UNL     1       2.815   2.610  18.889  0.00  0.00    +0.000 OA
BRANCH  15  17
ATOM     17  C   UNL     1       4.512   4.144  18.344  0.00  0.00    +0.000 A 
ATOM     18  C   UNL     1       5.512   4.329  19.285  0.00  0.00    +0.000 A 
ATOM     19  N   UNL     1       6.686   4.610  18.634  0.00  0.00    +0.000 N 
ATOM     20  C   UNL     1       6.495   4.587  17.274  0.00  0.00    +0.000 A 
ATOM     21  C   UNL     1       7.422   4.755  16.234  0.00  0.00    +0.000 A 
ATOM     22  C   UNL     1       6.950   4.702  14.923  0.00  0.00    +0.000 A 
ATOM     23  C   UNL     1       5.594   4.520  14.666  0.00  0.00    +0.000 A 
ATOM     24  C   UNL     1       4.681   4.352  15.717  0.00  0.00    +0.000 A 
ATOM     25  C   UNL     1       5.134   4.358  17.058  0.00  0.00    +0.000 A 
ATOM     26  H   UNL     1       7.575   4.792  19.081  0.00  0.00    +0.000 HD
ENDBRANCH  15  17
ENDBRANCH  14  15
ENDBRANCH   1  14
TORSDOF 6
ENDMDL
MODEL 3
REMARK VINA RESULT:      -6.9      3.486      6.596
REMARK  Name = 
REMARK  7 active torsions:
REMARK  status: ('A' for Active; 'I' for Inactive)
REMARK    1  A    between atoms: C_1  and  C_2
REMARK    2  A    between atoms: C_2  and  N_3
REMARK    3  A    between atoms: C_4  and  S_5
REMARK    4  A    between atoms: S_5  and  C_6
REMARK    5  A    between atoms: C_6  and  C_7
REMARK    6  A    between atoms: C_7  and  C_9
REMARK    7  A    between atoms: C_20  and  C_21
REMARK                            x       y       z     vdW  Elec       q    Type
REMARK                         _______ _______ _______ _____ _____    ______ ____
ROOT
ATOM      1  S   UNL     1       2.723   6.071  19.625  0.00  0.00    +0.000 S 
ENDROOT
BRANCH   1   3
ATOM      2  N   UNL     1       1.464   8.529  19.615  0.00  0.00    +0.000 N 
ATOM      3  C   UNL     1       2.268   7.613  18.972  0.00  0.00    +0.000 A 
ATOM      4  N   UNL     1       2.621   8.081  17.800  0.00  0.00    +0.000 NA
ATOM      5  N   UNL     1       2.047   9.323  17.658  0.00  0.00    +0.000 NA
ATOM      6  C   UNL     1       1.357   9.604  18.749  0.00  0.00    +0.000 A 
BRANCH   6   7
ATOM      7  C   UNL     1       0.605  10.829  18.916  0.00  0.00    +0.000 A 
ATOM      8  C   UNL     1      -0.743  11.024  19.173  0.00  0.00    +0.000 A 
ATOM      9  C   UNL     1      -1.106  12.403  19.271  0.00  0.00    +0.000 A 
ATOM     10  C   UNL     1      -0.018  13.231  19.123  0.00  0.00    +0.000 A 
ATOM     11  S   UNL     1       1.419  12.350  18.854  0.00  0.00    +0.000 S 
ENDBRANCH   6   7
BRANCH   2  13
ATOM     12  C   UNL     1       1.393   9.298  21.968  0.00  0.00    +0.000 C 
ATOM     13  C   UNL     1       0.820   8.377  20.906  0.00  0.00    +0.000 C 
ENDBRANCH   2  13
ENDBRANCH   1   3
BRANCH   1  14
ATOM     14  C   UNL     1       2.436   4.947  18.207  0.00  0.00    +0.000 C 
BRANCH  14  15
ATOM     15  C   UNL     1       3.741   4.354  17.641  0.00  0.00    +0.000 C 
ATOM     16  O   UNL     1       3.936   3.141  17.572  0.00  0.00    +0.000 OA
BRANCH  15  17
ATOM     17  C   UNL     1       4.784   5.301  17.194  0.00  0.00    +0.000 A 
ATOM     18  C   UNL     1       4.776   6.019  16.008  0.00  0.00    +0.000 A 
ATOM     19  N   UNL     1       5.884   6.825  15.972  0.00  0.00    +0.000 N 
ATOM     20  C   UNL     1       6.618   6.682  17.123  0.00  0.00    +0.000 A 
ATOM     21  C   UNL     1       7.780   7.350  17.537  0.00  0.00    +0.000 A 
ATOM     22  C   UNL     1       8.340   6.991  18.763  0.00  0.00    +0.000 A 
ATOM     23  C   UNL     1       7.771   5.979  19.531  0.00  0.00    +0.000 A 
ATOM     24  C   UNL     1       6.607   5.323  19.104  0.00  0.00    +0.000 A 
ATOM     25  C   UNL     1       5.991   5.691  17.885  0.00  0.00    +0.000 A 
ATOM     26  H   UNL     1       6.127   7.454  15.217  0.00  0.00    +0.000 HD
ENDBRANCH  15  17
ENDBRANCH  14  15
ENDBRANCH   1  14
TORSDOF 6
ENDMDL
MODEL 4
REMARK VINA RESULT:      -6.8      4.242      8.045
REMARK  Name = 
REMARK  7 active torsions:
REMARK  status: ('A' for Active; 'I' for Inactive)
REMARK    1  A    between atoms: C_1  and  C_2
REMARK    2  A    between atoms: C_2  and  N_3
REMARK    3  A    between atoms: C_4  and  S_5
REMARK    4  A    between atoms: S_5  and  C_6
REMARK    5  A    between atoms: C_6  and  C_7
REMARK    6  A    between atoms: C_7  and  C_9
REMARK    7  A    between atoms: C_20  and  C_21
REMARK                            x       y       z     vdW  Elec       q    Type
REMARK                         _______ _______ _______ _____ _____    ______ ____
ROOT
ATOM      1  S   UNL     1       7.265   7.044  17.327  0.00  0.00    +0.000 S 
ENDROOT
BRANCH   1   3
ATOM      2  N   UNL     1       5.010   5.683  18.155  0.00  0.00    +0.000 N 
ATOM      3  C   UNL     1       6.361   5.917  18.287  0.00  0.00    +0.000 A 
ATOM      4  N   UNL     1       6.847   5.169  19.247  0.00  0.00    +0.000 NA
ATOM      5  N   UNL     1       5.810   4.428  19.763  0.00  0.00    +0.000 NA
ATOM      6  C   UNL     1       4.702   4.725  19.106  0.00  0.00    +0.000 A 
BRANCH   6   7
ATOM      7  C   UNL     1       3.417   4.138  19.417  0.00  0.00    +0.000 A 
ATOM      8  C   UNL     1       2.784   3.029  18.877  0.00  0.00    +0.000 A 
ATOM      9  C   UNL     1       1.506   2.767  19.461  0.00  0.00    +0.000 A 
ATOM     10  C   UNL     1       1.208   3.661  20.462  0.00  0.00    +0.000 A 
ATOM     11  S   UNL     1       2.451   4.810  20.680  0.00  0.00    +0.000 S 
ENDBRANCH   6   7
BRANCH   2  13
ATOM     12  C   UNL     1       3.200   7.360  17.938  0.00  0.00    +0.000 C 
ATOM     13  C   UNL     1       4.090   6.342  17.247  0.00  0.00    +0.000 C 
ENDBRANCH   2  13
ENDBRANCH   1   3
BRANCH   1  14
ATOM     14  C   UNL     1       8.154   8.016  18.599  0.00  0.00    +0.000 C 
BRANCH  14  15
ATOM     15  C   UNL     1       8.384   9.481  18.179  0.00  0.00    +0.000 C 
ATOM     16  O   UNL     1       7.944   9.938  17.124  0.00  0.00    +0.000 OA
BRANCH  15  17
ATOM     17  C   UNL     1       9.181  10.336  19.084  0.00  0.00    +0.000 A 
ATOM     18  C   UNL     1       9.116  10.336  20.468  0.00  0.00    +0.000 A 
ATOM     19  N   UNL     1      10.040  11.225  20.954  0.00  0.00    +0.000 N 
ATOM     20  C   UNL     1      10.740  11.798  19.921  0.00  0.00    +0.000 A 
ATOM     21  C   UNL     1      11.809  12.707  19.956  0.00  0.00    +0.000 A 
ATOM     22  C   UNL     1      12.331  13.150  18.741  0.00  0.00    +0.000 A 
ATOM     23  C   UNL     1      11.781  12.721  17.537  0.00  0.00    +0.000 A 
ATOM     24  C   UNL     1      10.714  11.811  17.519  0.00  0.00    +0.000 A 
ATOM     25  C   UNL     1      10.188  11.310  18.734  0.00  0.00    +0.000 A 
ATOM     26  H   UNL     1      10.202  11.425  21.932  0.00  0.00    +0.000 HD
ENDBRANCH  15  17
ENDBRANCH  14  15
ENDBRANCH   1  14
TORSDOF 6
ENDMDL
MODEL 5
REMARK VINA RESULT:      -6.8      4.009      7.036
REMARK  Name = 
REMARK  7 active torsions:
REMARK  status: ('A' for Active; 'I' for Inactive)
REMARK    1  A    between atoms: C_1  and  C_2
REMARK    2  A    between atoms: C_2  and  N_3
REMARK    3  A    between atoms: C_4  and  S_5
REMARK    4  A    between atoms: S_5  and  C_6
REMARK    5  A    between atoms: C_6  and  C_7
REMARK    6  A    between atoms: C_7  and  C_9
REMARK    7  A    between atoms: C_20  and  C_21
REMARK                            x       y       z     vdW  Elec       q    Type
REMARK                         _______ _______ _______ _____ _____    ______ ____
ROOT
ATOM      1  S   UNL     1       2.077   7.910  17.797  0.00  0.00    +0.000 S 
ENDROOT
BRANCH   1   3
ATOM      2  N   UNL     1       0.800   9.643  19.527  0.00  0.00    +0.000 N 
ATOM      3  C   UNL     1       1.568   8.514  19.341  0.00  0.00    +0.000 A 
ATOM      4  N   UNL     1       1.858   7.982  20.503  0.00  0.00    +0.000 NA
ATOM      5  N   UNL     1       1.278   8.763  21.475  0.00  0.00    +0.000 NA
ATOM      6  C   UNL     1       0.632   9.760  20.895  0.00  0.00    +0.000 A 
BRANCH   6   7
ATOM      7  C   UNL     1      -0.070  10.785  21.638  0.00  0.00    +0.000 A 
ATOM      8  C   UNL     1      -1.002  10.673  22.657  0.00  0.00    +0.000 A 
ATOM      9  C   UNL     1      -1.468  11.935  23.139  0.00  0.00    +0.000 A 
ATOM     10  C   UNL     1      -0.851  12.985  22.501  0.00  0.00    +0.000 A 
ATOM     11  S   UNL     1       0.264  12.449  21.325  0.00  0.00    +0.000 S 
ENDBRANCH   6   7
BRANCH   2  13
ATOM     12  C   UNL     1      -1.126  10.283  18.108  0.00  0.00    +0.000 C 
ATOM     13  C   UNL     1       0.314  10.550  18.504  0.00  0.00    +0.000 C 
ENDBRANCH   2  13
ENDBRANCH   1   3
BRANCH   1  14
ATOM     14  C   UNL     1       3.872   7.648  18.052  0.00  0.00    +0.000 C 
BRANCH  14  15
ATOM     15  C   UNL     1       4.433   6.492  17.201  0.00  0.00    +0.000 C 
ATOM     16  O   UNL     1       4.786   6.648  16.032  0.00  0.00    +0.000 OA
BRANCH  15  17
ATOM     17  C   UNL     1       4.518   5.157  17.831  0.00  0.00    +0.000 A 
ATOM     18  C   UNL     1       5.669   4.565  18.326  0.00  0.00    +0.000 A 
ATOM     19  N   UNL     1       5.341   3.353  18.877  0.00  0.00    +0.000 N 
ATOM     20  C   UNL     1       3.987   3.138  18.785  0.00  0.00    +0.000 A 
ATOM     21  C   UNL     1       3.213   2.072  19.268  0.00  0.00    +0.000 A 
ATOM     22  C   UNL     1       1.841   2.094  19.016  0.00  0.00    +0.000 A 
ATOM     23  C   UNL     1       1.274   3.131  18.282  0.00  0.00    +0.000 A 
ATOM     24  C   UNL     1       2.061   4.190  17.809  0.00  0.00    +0.000 A 
ATOM     25  C   UNL     1       3.449   4.219  18.082  0.00  0.00    +0.000 A 
ATOM     26  H   UNL     1       5.991   2.710  19.308  0.00  0.00    +0.000 HD
ENDBRANCH  15  17
ENDBRANCH  14  15
ENDBRANCH   1  14
TORSDOF 6
ENDMDL
MODEL 6
REMARK VINA RESULT:      -6.8      3.704      6.729
REMARK  Name = 
REMARK  7 active torsions:
REMARK  status: ('A' for Active; 'I' for Inactive)
REMARK    1  A    between atoms: C_1  and  C_2
REMARK    2  A    between atoms: C_2  and  N_3
REMARK    3  A    between atoms: C_4  and  S_5
REMARK    4  A    between atoms: S_5  and  C_6
REMARK    5  A    between atoms: C_6  and  C_7
REMARK    6  A    between atoms: C_7  and  C_9
REMARK    7  A    between atoms: C_20  and  C_21
REMARK                            x       y       z     vdW  Elec       q    Type
REMARK                         _______ _______ _______ _____ _____    ______ ____
ROOT
ATOM      1  S   UNL     1       2.459   7.123  18.558  0.00  0.00    +0.000 S 
ENDROOT
BRANCH   1   3
ATOM      2  N   UNL     1       1.212   9.234  19.829  0.00  0.00    +0.000 N 
ATOM      3  C   UNL     1       1.791   7.986  19.907  0.00  0.00    +0.000 A 
ATOM      4  N   UNL     1       1.767   7.565  21.148  0.00  0.00    +0.000 NA
ATOM      5  N   UNL     1       1.166   8.541  21.907  0.00  0.00    +0.000 NA
ATOM      6  C   UNL     1       0.821   9.545  21.119  0.00  0.00    +0.000 A 
BRANCH   6   7
ATOM      7  C   UNL     1       0.186  10.751  21.607  0.00  0.00    +0.000 A 
ATOM      8  C   UNL     1       0.290  12.060  21.164  0.00  0.00    +0.000 A 
ATOM      9  C   UNL     1      -0.506  12.978  21.917  0.00  0.00    +0.000 A 
ATOM     10  C   UNL     1      -1.230  12.342  22.897  0.00  0.00    +0.000 A 
ATOM     11  S   UNL     1      -0.938  10.659  22.914  0.00  0.00    +0.000 S 
ENDBRANCH   6   7
BRANCH   2  13
ATOM     12  C   UNL     1      -0.281   9.979  17.999  0.00  0.00    +0.000 C 
ATOM     13  C   UNL     1       1.087  10.071  18.650  0.00  0.00    +0.000 C 
ENDBRANCH   2  13
ENDBRANCH   1   3
BRANCH   1  14
ATOM     14  C   UNL     1       1.829   5.424  18.831  0.00  0.00    +0.000 C 
BRANCH  14  15
ATOM     15  C   UNL     1       2.566   4.371  17.980  0.00  0.00    +0.000 C 
ATOM     16  O   UNL     1       1.965   3.556  17.280  0.00  0.00    +0.000 OA
BRANCH  15  17
ATOM     17  C   UNL     1       4.042   4.351  18.043  0.00  0.00    +0.000 A 
ATOM     18  C   UNL     1       4.804   4.029  19.155  0.00  0.00    +0.000 A 
ATOM     19  N   UNL     1       6.130   4.073  18.811  0.00  0.00    +0.000 N 
ATOM     20  C   UNL     1       6.268   4.391  17.482  0.00  0.00    +0.000 A 
ATOM     21  C   UNL     1       7.428   4.485  16.697  0.00  0.00    +0.000 A 
ATOM     22  C   UNL     1       7.284   4.850  15.359  0.00  0.00    +0.000 A 
ATOM     23  C   UNL     1       6.027   5.140  14.837  0.00  0.00    +0.000 A 
ATOM     24  C   UNL     1       4.878   5.040  15.634  0.00  0.00    +0.000 A 
ATOM     25  C   UNL     1       4.985   4.631  16.985  0.00  0.00    +0.000 A 
ATOM     26  H   UNL     1       6.904   3.883  19.434  0.00  0.00    +0.000 HD
ENDBRANCH  15  17
ENDBRANCH  14  15
ENDBRANCH   1  14
TORSDOF 6
ENDMDL
MODEL 7
REMARK VINA RESULT:      -6.8      5.033      6.765
REMARK  Name = 
REMARK  7 active torsions:
REMARK  status: ('A' for Active; 'I' for Inactive)
REMARK    1  A    between atoms: C_1  and  C_2
REMARK    2  A    between atoms: C_2  and  N_3
REMARK    3  A    between atoms: C_4  and  S_5
REMARK    4  A    between atoms: S_5  and  C_6
REMARK    5  A    between atoms: C_6  and  C_7
REMARK    6  A    between atoms: C_7  and  C_9
REMARK    7  A    between atoms: C_20  and  C_21
REMARK                            x       y       z     vdW  Elec       q    Type
REMARK                         _______ _______ _______ _____ _____    ______ ____
ROOT
ATOM      1  S   UNL     1       1.131   8.573  21.251  0.00  0.00    +0.000 S 
ENDROOT
BRANCH   1   3
ATOM      2  N   UNL     1       2.376   6.661  19.696  0.00  0.00    +0.000 N 
ATOM      3  C   UNL     1       1.890   7.943  19.824  0.00  0.00    +0.000 A 
ATOM      4  N   UNL     1       2.100   8.608  18.714  0.00  0.00    +0.000 NA
ATOM      5  N   UNL     1       2.733   7.760  17.835  0.00  0.00    +0.000 NA
ATOM      6  C   UNL     1       2.894   6.583  18.416  0.00  0.00    +0.000 A 
BRANCH   6   7
ATOM      7  C   UNL     1       3.553   5.467  17.771  0.00  0.00    +0.000 A 
ATOM      8  C   UNL     1       3.071   4.209  17.448  0.00  0.00    +0.000 A 
ATOM      9  C   UNL     1       4.042   3.378  16.807  0.00  0.00    +0.000 A 
ATOM     10  C   UNL     1       5.235   4.036  16.621  0.00  0.00    +0.000 A 
ATOM     11  S   UNL     1       5.183   5.631  17.228  0.00  0.00    +0.000 S 
ENDBRANCH   6   7
BRANCH   2  13
ATOM     12  C   UNL     1       1.235   4.647  20.578  0.00  0.00    +0.000 C 
ATOM     13  C   UNL     1       2.389   5.623  20.711  0.00  0.00    +0.000 C 
ENDBRANCH   2  13
ENDBRANCH   1   3
BRANCH   1  14
ATOM     14  C   UNL     1      -0.477   9.170  20.607  0.00  0.00    +0.000 C 
BRANCH  14  15
ATOM     15  C   UNL     1      -0.406  10.611  20.066  0.00  0.00    +0.000 C 
ATOM     16  O   UNL     1       0.607  11.302  20.170  0.00  0.00    +0.000 OA
BRANCH  15  17
ATOM     17  C   UNL     1      -1.618  11.161  19.424  0.00  0.00    +0.000 A 
ATOM     18  C   UNL     1      -2.405  12.188  19.921  0.00  0.00    +0.000 A 
ATOM     19  N   UNL     1      -3.407  12.451  19.023  0.00  0.00    +0.000 N 
ATOM     20  C   UNL     1      -3.287  11.639  17.922  0.00  0.00    +0.000 A 
ATOM     21  C   UNL     1      -4.048  11.605  16.743  0.00  0.00    +0.000 A 
ATOM     22  C   UNL     1      -3.718  10.653  15.779  0.00  0.00    +0.000 A 
ATOM     23  C   UNL     1      -2.684   9.749  16.003  0.00  0.00    +0.000 A 
ATOM     24  C   UNL     1      -1.932   9.797  17.185  0.00  0.00    +0.000 A 
ATOM     25  C   UNL     1      -2.214  10.778  18.166  0.00  0.00    +0.000 A 
ATOM     26  H   UNL     1      -4.127  13.153  19.136  0.00  0.00    +0.000 HD
ENDBRANCH  15  17
ENDBRANCH  14  15
ENDBRANCH   1  14
TORSDOF 6
ENDMDL
MODEL 8
REMARK VINA RESULT:      -6.8      3.613      6.423
REMARK  Name = 
REMARK  7 active torsions:
REMARK  status: ('A' for Active; 'I' for Inactive)
REMARK    1  A    between atoms: C_1  and  C_2
REMARK    2  A    between atoms: C_2  and  N_3
REMARK    3  A    between atoms: C_4  and  S_5
REMARK    4  A    between atoms: S_5  and  C_6
REMARK    5  A    between atoms: C_6  and  C_7
REMARK    6  A    between atoms: C_7  and  C_9
REMARK    7  A    between atoms: C_20  and  C_21
REMARK                            x       y       z     vdW  Elec       q    Type
REMARK                         _______ _______ _______ _____ _____    ______ ____
ROOT
ATOM      1  S   UNL     1       2.347   6.330  19.558  0.00  0.00    +0.000 S 
ENDROOT
BRANCH   1   3
ATOM      2  N   UNL     1       1.391   8.892  19.940  0.00  0.00    +0.000 N 
ATOM      3  C   UNL     1       1.895   7.937  19.085  0.00  0.00    +0.000 A 
ATOM      4  N   UNL     1       1.968   8.425  17.871  0.00  0.00    +0.000 NA
ATOM      5  N   UNL     1       1.508   9.720  17.915  0.00  0.00    +0.000 NA
ATOM      6  C   UNL     1       1.167  10.012  19.159  0.00  0.00    +0.000 A 
BRANCH   6   7
ATOM      7  C   UNL     1       0.617  11.293  19.548  0.00  0.00    +0.000 A 
ATOM      8  C   UNL     1      -0.687  11.654  19.846  0.00  0.00    +0.000 A 
ATOM      9  C   UNL     1      -0.827  13.033  20.193  0.00  0.00    +0.000 A 
ATOM     10  C   UNL     1       0.382  13.688  20.189  0.00  0.00    +0.000 A 
ATOM     11  S   UNL     1       1.666  12.649  19.755  0.00  0.00    +0.000 S 
ENDBRANCH   6   7
BRANCH   2  13
ATOM     12  C   UNL     1      -0.353   8.419  21.634  0.00  0.00    +0.000 C 
ATOM     13  C   UNL     1       1.104   8.740  21.354  0.00  0.00    +0.000 C 
ENDBRANCH   2  13
ENDBRANCH   1   3
BRANCH   1  14
ATOM     14  C   UNL     1       1.707   5.320  18.170  0.00  0.00    +0.000 C 
BRANCH  14  15
ATOM     15  C   UNL     1       2.712   4.251  17.697  0.00  0.00    +0.000 C 
ATOM     16  O   UNL     1       2.390   3.338  16.937  0.00  0.00    +0.000 OA
BRANCH  15  17
ATOM     17  C   UNL     1       4.096   4.340  18.208  0.00  0.00    +0.000 A 
ATOM     18  C   UNL     1       4.701   3.444  19.074  0.00  0.00    +0.000 A 
ATOM     19  N   UNL     1       6.000   3.833  19.277  0.00  0.00    +0.000 N 
ATOM     20  C   UNL     1       6.283   4.956  18.539  0.00  0.00    +0.000 A 
ATOM     21  C   UNL     1       7.490   5.656  18.395  0.00  0.00    +0.000 A 
ATOM     22  C   UNL     1       7.496   6.793  17.588  0.00  0.00    +0.000 A 
ATOM     23  C   UNL     1       6.325   7.229  16.974  0.00  0.00    +0.000 A 
ATOM     24  C   UNL     1       5.126   6.517  17.126  0.00  0.00    +0.000 A 
ATOM     25  C   UNL     1       5.097   5.336  17.905  0.00  0.00    +0.000 A 
ATOM     26  H   UNL     1       6.669   3.358  19.869  0.00  0.00    +0.000 HD
ENDBRANCH  15  17
ENDBRANCH  14  15
ENDBRANCH   1  14
TORSDOF 6
ENDMDL
MODEL 9
REMARK VINA RESULT:      -6.7      4.065      6.940
REMARK  Name = 
REMARK  7 active torsions:
REMARK  status: ('A' for Active; 'I' for Inactive)
REMARK    1  A    between atoms: C_1  and  C_2
REMARK    2  A    between atoms: C_2  and  N_3
REMARK    3  A    between atoms: C_4  and  S_5
REMARK    4  A    between atoms: S_5  and  C_6
REMARK    5  A    between atoms: C_6  and  C_7
REMARK    6  A    between atoms: C_7  and  C_9
REMARK    7  A    between atoms: C_20  and  C_21
REMARK                            x       y       z     vdW  Elec       q    Type
REMARK                         _______ _______ _______ _____ _____    ______ ____
ROOT
ATOM      1  S   UNL     1       2.134   7.908  17.859  0.00  0.00    +0.000 S 
ENDROOT
BRANCH   1   3
ATOM      2  N   UNL     1       0.872   9.692  19.547  0.00  0.00    +0.000 N 
ATOM      3  C   UNL     1       1.621   8.547  19.388  0.00  0.00    +0.000 A 
ATOM      4  N   UNL     1       1.890   8.028  20.561  0.00  0.00    +0.000 NA
ATOM      5  N   UNL     1       1.315   8.836  21.514  0.00  0.00    +0.000 NA
ATOM      6  C   UNL     1       0.693   9.834  20.912  0.00  0.00    +0.000 A 
BRANCH   6   7
ATOM      7  C   UNL     1       0.003  10.885  21.630  0.00  0.00    +0.000 A 
ATOM      8  C   UNL     1      -0.052  12.248  21.388  0.00  0.00    +0.000 A 
ATOM      9  C   UNL     1      -0.851  12.959  22.335  0.00  0.00    +0.000 A 
ATOM     10  C   UNL     1      -1.422  12.116  23.259  0.00  0.00    +0.000 A 
ATOM     11  S   UNL     1      -0.981  10.488  22.991  0.00  0.00    +0.000 S 
ENDBRANCH   6   7
BRANCH   2  13
ATOM     12  C   UNL     1      -1.021  10.330  18.084  0.00  0.00    +0.000 C 
ATOM     13  C   UNL     1       0.413  10.591  18.505  0.00  0.00    +0.000 C 
ENDBRANCH   2  13
ENDBRANCH   1   3
BRANCH   1  14
ATOM     14  C   UNL     1       3.852   7.379  18.212  0.00  0.00    +0.000 C 
BRANCH  14  15
ATOM     15  C   UNL     1       4.198   6.015  17.583  0.00  0.00    +0.000 C 
ATOM     16  O   UNL     1       4.450   5.890  16.384  0.00  0.00    +0.000 OA
BRANCH  15  17
ATOM     17  C   UNL     1       4.198   4.832  18.469  0.00  0.00    +0.000 A 
ATOM     18  C   UNL     1       5.292   4.031  18.754  0.00  0.00    +0.000 A 
ATOM     19  N   UNL     1       4.912   3.067  19.652  0.00  0.00    +0.000 N 
ATOM     20  C   UNL     1       3.593   3.228  19.996  0.00  0.00    +0.000 A 
ATOM     21  C   UNL     1       2.812   2.515  20.918  0.00  0.00    +0.000 A 
ATOM     22  C   UNL     1       1.473   2.879  21.061  0.00  0.00    +0.000 A 
ATOM     23  C   UNL     1       0.931   3.899  20.284  0.00  0.00    +0.000 A 
ATOM     24  C   UNL     1       1.725   4.603  19.367  0.00  0.00    +0.000 A 
ATOM     25  C   UNL     1       3.098   4.286  19.229  0.00  0.00    +0.000 A 
ATOM     26  H   UNL     1       5.515   2.347  20.029  0.00  0.00    +0.000 HD
ENDBRANCH  15  17
ENDBRANCH  14  15
ENDBRANCH   1  14
TORSDOF 6
ENDMDL
