MODEL 1
REMARK VINA RESULT:      -8.8      0.000      0.000
REMARK  Name = 
REMARK  11 active torsions:
REMARK  status: ('A' for Active; 'I' for Inactive)
REMARK    1  A    between atoms: C_1  and  C_2
REMARK    2  A    between atoms: C_5  and  C_6
REMARK    3  A    between atoms: C_6  and  C_7
REMARK    4  A    between atoms: C_7  and  O_9
REMARK    5  A    between atoms: C_14  and  O_15
REMARK    6  A    between atoms: O_15  and  C_16
REMARK    7  A    between atoms: C_16  and  C_17
REMARK    8  A    between atoms: C_22  and  C_23
REMARK    9  A    between atoms: C_23  and  O_24
REMARK   10  A    between atoms: O_24  and  C_25
REMARK   11  A    between atoms: C_28  and  C_29
REMARK                            x       y       z     vdW  Elec       q    Type
REMARK                         _______ _______ _______ _____ _____    ______ ____
ROOT
ATOM      1  C   UNL     1       2.136   4.748  19.594  0.00  0.00    +0.000 A 
ATOM      2  C   UNL     1       1.843   4.679  20.976  0.00  0.00    +0.000 A 
ATOM      3  C   UNL     1       2.042   3.506  21.703  0.00  0.00    +0.000 A 
ATOM      4  C   UNL     1       2.528   2.376  21.062  0.00  0.00    +0.000 A 
ATOM      5  C   UNL     1       2.779   2.411  19.688  0.00  0.00    +0.000 A 
ATOM      6  C   UNL     1       2.563   3.580  18.929  0.00  0.00    +0.000 A 
ENDROOT
BRANCH   1   7
ATOM      7  C   UNL     1       2.101   6.121  18.942  0.00  0.00    +0.000 C 
BRANCH   7   8
ATOM      8  O   UNL     1       2.571   7.176  19.781  0.00  0.00    +0.000 OA
BRANCH   8  18
ATOM      9  C   UNL     1       1.987   9.402  17.658  0.00  0.00    +0.000 C 
ATOM     10  C   UNL     1       1.414   9.263  19.039  0.00  0.00    +0.000 A 
ATOM     11  C   UNL     1       0.545  10.308  19.427  0.00  0.00    +0.000 A 
ATOM     12  C   UNL     1       0.016  10.414  20.731  0.00  0.00    +0.000 A 
ATOM     13  C   UNL     1      -0.792  11.457  21.331  0.00  0.00    +0.000 A 
ATOM     14  C   UNL     1      -1.095  11.153  22.643  0.00  0.00    +0.000 A 
ATOM     15  S   UNL     1      -0.403   9.680  23.158  0.00  0.00    +0.000 S 
ATOM     16  C   UNL     1       0.345   9.404  21.634  0.00  0.00    +0.000 A 
ATOM     17  C   UNL     1       1.193   8.332  21.266  0.00  0.00    +0.000 A 
ATOM     18  C   UNL     1       1.720   8.251  19.958  0.00  0.00    +0.000 A 
BRANCH  13  19
ATOM     19  C   UNL     1      -1.173  12.749  20.648  0.00  0.00    +0.000 C 
BRANCH  19  20
ATOM     20  C   UNL     1      -2.130  12.615  19.481  0.00  0.00    +0.000 C 
ATOM     21  O   UNL     1      -3.269  12.182  19.610  0.00  0.00    +0.000 OA
BRANCH  20  22
ATOM     22  O   UNL     1      -1.627  12.933  18.272  0.00  0.00    +0.000 OA
ATOM     23  H   UNL     1      -1.093  13.746  18.256  0.00  0.00    +0.000 HD
ENDBRANCH  20  22
ENDBRANCH  19  20
ENDBRANCH  13  19
ENDBRANCH   8  18
ENDBRANCH   7   8
ENDBRANCH   1   7
BRANCH   6  24
ATOM     24  C   UNL     1       2.817   3.521  17.437  0.00  0.00    +0.000 C 
BRANCH  24  25
ATOM     25  O   UNL     1       4.206   3.298  17.184  0.00  0.00    +0.000 OA
BRANCH  25  26
ATOM     26  C   UNL     1       5.001   4.411  17.237  0.00  0.00    +0.000 A 
ATOM     27  C   UNL     1       6.054   4.353  18.157  0.00  0.00    +0.000 A 
ATOM     28  C   UNL     1       6.928   5.436  18.317  0.00  0.00    +0.000 A 
ATOM     29  C   UNL     1       6.777   6.591  17.542  0.00  0.00    +0.000 A 
ATOM     30  C   UNL     1       5.746   6.631  16.590  0.00  0.00    +0.000 A 
ATOM     31  C   UNL     1       4.866   5.548  16.440  0.00  0.00    +0.000 A 
BRANCH  29  32
ATOM     32  C   UNL     1       7.701   7.776  17.714  0.00  0.00    +0.000 C 
ATOM     33  F   UNL     1       8.541   7.967  16.658  0.00  0.00    +0.000 F 
ATOM     34  F   UNL     1       7.025   8.947  17.869  0.00  0.00    +0.000 F 
ATOM     35  F   UNL     1       8.501   7.658  18.809  0.00  0.00    +0.000 F 
ENDBRANCH  29  32
ENDBRANCH  25  26
ENDBRANCH  24  25
ENDBRANCH   6  24
TORSDOF 10
ENDMDL
MODEL 2
REMARK VINA RESULT:      -8.3      0.878      1.063
REMARK  Name = 
REMARK  11 active torsions:
REMARK  status: ('A' for Active; 'I' for Inactive)
REMARK    1  A    between atoms: C_1  and  C_2
REMARK    2  A    between atoms: C_5  and  C_6
REMARK    3  A    between atoms: C_6  and  C_7
REMARK    4  A    between atoms: C_7  and  O_9
REMARK    5  A    between atoms: C_14  and  O_15
REMARK    6  A    between atoms: O_15  and  C_16
REMARK    7  A    between atoms: C_16  and  C_17
REMARK    8  A    between atoms: C_22  and  C_23
REMARK    9  A    between atoms: C_23  and  O_24
REMARK   10  A    between atoms: O_24  and  C_25
REMARK   11  A    between atoms: C_28  and  C_29
REMARK                            x       y       z     vdW  Elec       q    Type
REMARK                         _______ _______ _______ _____ _____    ______ ____
ROOT
ATOM      1  C   UNL     1       2.024   4.550  18.747  0.00  0.00    +0.000 A 
ATOM      2  C   UNL     1       1.063   4.167  19.710  0.00  0.00    +0.000 A 
ATOM      3  C   UNL     1       0.866   2.828  20.048  0.00  0.00    +0.000 A 
ATOM      4  C   UNL     1       1.620   1.845  19.422  0.00  0.00    +0.000 A 
ATOM      5  C   UNL     1       2.541   2.201  18.434  0.00  0.00    +0.000 A 
ATOM      6  C   UNL     1       2.739   3.547  18.061  0.00  0.00    +0.000 A 
ENDROOT
BRANCH   1   7
ATOM      7  C   UNL     1       2.321   6.035  18.612  0.00  0.00    +0.000 C 
BRANCH   7   8
ATOM      8  O   UNL     1       2.428   6.723  19.858  0.00  0.00    +0.000 OA
BRANCH   8  18
ATOM      9  C   UNL     1       2.305   8.982  17.693  0.00  0.00    +0.000 C 
ATOM     10  C   UNL     1       1.624   8.940  19.032  0.00  0.00    +0.000 A 
ATOM     11  C   UNL     1       0.883  10.100  19.355  0.00  0.00    +0.000 A 
ATOM     12  C   UNL     1       0.286  10.294  20.619  0.00  0.00    +0.000 A 
ATOM     13  C   UNL     1      -0.409  11.445  21.159  0.00  0.00    +0.000 A 
ATOM     14  C   UNL     1      -0.841  11.202  22.447  0.00  0.00    +0.000 A 
ATOM     15  S   UNL     1      -0.397   9.654  23.012  0.00  0.00    +0.000 S 
ATOM     16  C   UNL     1       0.409   9.259  21.545  0.00  0.00    +0.000 A 
ATOM     17  C   UNL     1       1.124   8.076  21.240  0.00  0.00    +0.000 A 
ATOM     18  C   UNL     1       1.723   7.907  19.973  0.00  0.00    +0.000 A 
BRANCH  13  19
ATOM     19  C   UNL     1      -0.560  12.769  20.447  0.00  0.00    +0.000 C 
BRANCH  19  20
ATOM     20  C   UNL     1      -1.401  12.743  19.188  0.00  0.00    +0.000 C 
ATOM     21  O   UNL     1      -0.917  12.864  18.069  0.00  0.00    +0.000 OA
BRANCH  20  22
ATOM     22  O   UNL     1      -2.733  12.652  19.375  0.00  0.00    +0.000 OA
ATOM     23  H   UNL     1      -3.178  13.501  19.538  0.00  0.00    +0.000 HD
ENDBRANCH  20  22
ENDBRANCH  19  20
ENDBRANCH  13  19
ENDBRANCH   8  18
ENDBRANCH   7   8
ENDBRANCH   1   7
BRANCH   6  24
ATOM     24  C   UNL     1       3.725   3.842  16.950  0.00  0.00    +0.000 C 
BRANCH  24  25
ATOM     25  O   UNL     1       5.063   3.760  17.445  0.00  0.00    +0.000 OA
BRANCH  25  26
ATOM     26  C   UNL     1       5.749   4.944  17.491  0.00  0.00    +0.000 A 
ATOM     27  C   UNL     1       6.907   4.936  18.276  0.00  0.00    +0.000 A 
ATOM     28  C   UNL     1       7.687   6.092  18.416  0.00  0.00    +0.000 A 
ATOM     29  C   UNL     1       7.332   7.273  17.755  0.00  0.00    +0.000 A 
ATOM     30  C   UNL     1       6.192   7.267  16.934  0.00  0.00    +0.000 A 
ATOM     31  C   UNL     1       5.408   6.110  16.805  0.00  0.00    +0.000 A 
BRANCH  29  32
ATOM     32  C   UNL     1       8.152   8.533  17.908  0.00  0.00    +0.000 C 
ATOM     33  F   UNL     1       8.959   8.791  16.841  0.00  0.00    +0.000 F 
ATOM     34  F   UNL     1       7.381   9.644  18.068  0.00  0.00    +0.000 F 
ATOM     35  F   UNL     1       8.974   8.491  18.993  0.00  0.00    +0.000 F 
ENDBRANCH  29  32
ENDBRANCH  25  26
ENDBRANCH  24  25
ENDBRANCH   6  24
TORSDOF 10
ENDMDL
MODEL 3
REMARK VINA RESULT:      -8.3      2.336      2.955
REMARK  Name = 
REMARK  11 active torsions:
REMARK  status: ('A' for Active; 'I' for Inactive)
REMARK    1  A    between atoms: C_1  and  C_2
REMARK    2  A    between atoms: C_5  and  C_6
REMARK    3  A    between atoms: C_6  and  C_7
REMARK    4  A    between atoms: C_7  and  O_9
REMARK    5  A    between atoms: C_14  and  O_15
REMARK    6  A    between atoms: O_15  and  C_16
REMARK    7  A    between atoms: C_16  and  C_17
REMARK    8  A    between atoms: C_22  and  C_23
REMARK    9  A    between atoms: C_23  and  O_24
REMARK   10  A    between atoms: O_24  and  C_25
REMARK   11  A    between atoms: C_28  and  C_29
REMARK                            x       y       z     vdW  Elec       q    Type
REMARK                         _______ _______ _______ _____ _____    ______ ____
ROOT
ATOM      1  C   UNL     1       2.579   4.717  19.368  0.00  0.00    +0.000 A 
ATOM      2  C   UNL     1       1.443   4.048  18.856  0.00  0.00    +0.000 A 
ATOM      3  C   UNL     1       1.552   2.806  18.230  0.00  0.00    +0.000 A 
ATOM      4  C   UNL     1       2.799   2.213  18.096  0.00  0.00    +0.000 A 
ATOM      5  C   UNL     1       3.938   2.881  18.553  0.00  0.00    +0.000 A 
ATOM      6  C   UNL     1       3.853   4.147  19.168  0.00  0.00    +0.000 A 
ENDROOT
BRANCH   1   7
ATOM      7  C   UNL     1       2.334   5.948  20.226  0.00  0.00    +0.000 C 
BRANCH   7   8
ATOM      8  O   UNL     1       2.589   7.183  19.559  0.00  0.00    +0.000 OA
BRANCH   8  18
ATOM      9  C   UNL     1       1.874   9.536  17.621  0.00  0.00    +0.000 C 
ATOM     10  C   UNL     1       1.371   9.297  19.016  0.00  0.00    +0.000 A 
ATOM     11  C   UNL     1       0.510  10.301  19.515  0.00  0.00    +0.000 A 
ATOM     12  C   UNL     1       0.045  10.311  20.847  0.00  0.00    +0.000 A 
ATOM     13  C   UNL     1      -0.745  11.300  21.555  0.00  0.00    +0.000 A 
ATOM     14  C   UNL     1      -0.979  10.904  22.857  0.00  0.00    +0.000 A 
ATOM     15  S   UNL     1      -0.246   9.411  23.236  0.00  0.00    +0.000 S 
ATOM     16  C   UNL     1       0.430   9.248  21.663  0.00  0.00    +0.000 A 
ATOM     17  C   UNL     1       1.271   8.216  21.183  0.00  0.00    +0.000 A 
ATOM     18  C   UNL     1       1.734   8.231  19.849  0.00  0.00    +0.000 A 
BRANCH  13  19
ATOM     19  C   UNL     1      -1.174  12.628  20.979  0.00  0.00    +0.000 C 
BRANCH  19  20
ATOM     20  C   UNL     1      -2.579  12.673  20.413  0.00  0.00    +0.000 C 
ATOM     21  O   UNL     1      -3.576  12.663  21.124  0.00  0.00    +0.000 OA
BRANCH  20  22
ATOM     22  O   UNL     1      -2.669  12.649  19.069  0.00  0.00    +0.000 OA
ATOM     23  H   UNL     1      -3.217  11.929  18.712  0.00  0.00    +0.000 HD
ENDBRANCH  20  22
ENDBRANCH  19  20
ENDBRANCH  13  19
ENDBRANCH   8  18
ENDBRANCH   7   8
ENDBRANCH   1   7
BRANCH   6  24
ATOM     24  C   UNL     1       5.140   4.821  19.596  0.00  0.00    +0.000 C 
BRANCH  24  25
ATOM     25  O   UNL     1       5.526   5.802  18.630  0.00  0.00    +0.000 OA
BRANCH  25  26
ATOM     26  C   UNL     1       5.772   5.325  17.371  0.00  0.00    +0.000 A 
ATOM     27  C   UNL     1       4.872   5.742  16.384  0.00  0.00    +0.000 A 
ATOM     28  C   UNL     1       5.007   5.309  15.059  0.00  0.00    +0.000 A 
ATOM     29  C   UNL     1       6.060   4.464  14.692  0.00  0.00    +0.000 A 
ATOM     30  C   UNL     1       6.987   4.079  15.675  0.00  0.00    +0.000 A 
ATOM     31  C   UNL     1       6.842   4.507  17.003  0.00  0.00    +0.000 A 
BRANCH  29  32
ATOM     32  C   UNL     1       6.212   3.973  13.270  0.00  0.00    +0.000 C 
ATOM     33  F   UNL     1       6.529   2.651  13.182  0.00  0.00    +0.000 F 
ATOM     34  F   UNL     1       5.075   4.133  12.538  0.00  0.00    +0.000 F 
ATOM     35  F   UNL     1       7.189   4.635  12.592  0.00  0.00    +0.000 F 
ENDBRANCH  29  32
ENDBRANCH  25  26
ENDBRANCH  24  25
ENDBRANCH   6  24
TORSDOF 10
ENDMDL
MODEL 4
REMARK VINA RESULT:      -8.3      2.617      3.163
REMARK  Name = 
REMARK  11 active torsions:
REMARK  status: ('A' for Active; 'I' for Inactive)
REMARK    1  A    between atoms: C_1  and  C_2
REMARK    2  A    between atoms: C_5  and  C_6
REMARK    3  A    between atoms: C_6  and  C_7
REMARK    4  A    between atoms: C_7  and  O_9
REMARK    5  A    between atoms: C_14  and  O_15
REMARK    6  A    between atoms: O_15  and  C_16
REMARK    7  A    between atoms: C_16  and  C_17
REMARK    8  A    between atoms: C_22  and  C_23
REMARK    9  A    between atoms: C_23  and  O_24
REMARK   10  A    between atoms: O_24  and  C_25
REMARK   11  A    between atoms: C_28  and  C_29
REMARK                            x       y       z     vdW  Elec       q    Type
REMARK                         _______ _______ _______ _____ _____    ______ ____
ROOT
ATOM      1  C   UNL     1       2.655   4.362  19.946  0.00  0.00    +0.000 A 
ATOM      2  C   UNL     1       2.339   3.376  20.908  0.00  0.00    +0.000 A 
ATOM      3  C   UNL     1       3.201   2.311  21.168  0.00  0.00    +0.000 A 
ATOM      4  C   UNL     1       4.392   2.205  20.464  0.00  0.00    +0.000 A 
ATOM      5  C   UNL     1       4.699   3.144  19.476  0.00  0.00    +0.000 A 
ATOM      6  C   UNL     1       3.831   4.216  19.181  0.00  0.00    +0.000 A 
ENDROOT
BRANCH   1   7
ATOM      7  C   UNL     1       1.768   5.595  19.894  0.00  0.00    +0.000 C 
BRANCH   7   8
ATOM      8  O   UNL     1       2.441   6.811  20.220  0.00  0.00    +0.000 OA
BRANCH   8  18
ATOM      9  C   UNL     1       2.234   8.717  17.745  0.00  0.00    +0.000 C 
ATOM     10  C   UNL     1       1.551   8.847  19.076  0.00  0.00    +0.000 A 
ATOM     11  C   UNL     1       0.763  10.011  19.226  0.00  0.00    +0.000 A 
ATOM     12  C   UNL     1       0.154  10.366  20.448  0.00  0.00    +0.000 A 
ATOM     13  C   UNL     1      -0.588  11.556  20.813  0.00  0.00    +0.000 A 
ATOM     14  C   UNL     1      -1.014  11.489  22.124  0.00  0.00    +0.000 A 
ATOM     15  S   UNL     1      -0.510  10.061  22.912  0.00  0.00    +0.000 S 
ATOM     16  C   UNL     1       0.315   9.485  21.517  0.00  0.00    +0.000 A 
ATOM     17  C   UNL     1       1.079   8.300  21.390  0.00  0.00    +0.000 A 
ATOM     18  C   UNL     1       1.688   7.969  20.160  0.00  0.00    +0.000 A 
BRANCH  13  19
ATOM     19  C   UNL     1      -0.790  12.752  19.913  0.00  0.00    +0.000 C 
BRANCH  19  20
ATOM     20  C   UNL     1      -1.596  12.497  18.657  0.00  0.00    +0.000 C 
ATOM     21  O   UNL     1      -2.673  11.913  18.671  0.00  0.00    +0.000 OA
BRANCH  20  22
ATOM     22  O   UNL     1      -1.021  12.888  17.503  0.00  0.00    +0.000 OA
ATOM     23  H   UNL     1      -0.193  12.425  17.284  0.00  0.00    +0.000 HD
ENDBRANCH  20  22
ENDBRANCH  19  20
ENDBRANCH  13  19
ENDBRANCH   8  18
ENDBRANCH   7   8
ENDBRANCH   1   7
BRANCH   6  24
ATOM     24  C   UNL     1       4.219   5.163  18.065  0.00  0.00    +0.000 C 
BRANCH  24  25
ATOM     25  O   UNL     1       5.605   5.012  17.752  0.00  0.00    +0.000 OA
BRANCH  25  26
ATOM     26  C   UNL     1       5.889   4.758  16.437  0.00  0.00    +0.000 A 
ATOM     27  C   UNL     1       4.920   4.024  15.745  0.00  0.00    +0.000 A 
ATOM     28  C   UNL     1       5.103   3.685  14.398  0.00  0.00    +0.000 A 
ATOM     29  C   UNL     1       6.251   4.094  13.712  0.00  0.00    +0.000 A 
ATOM     30  C   UNL     1       7.204   4.866  14.397  0.00  0.00    +0.000 A 
ATOM     31  C   UNL     1       7.022   5.195  15.749  0.00  0.00    +0.000 A 
BRANCH  29  32
ATOM     32  C   UNL     1       6.473   3.723  12.263  0.00  0.00    +0.000 C 
ATOM     33  F   UNL     1       7.348   4.545  11.618  0.00  0.00    +0.000 F 
ATOM     34  F   UNL     1       6.968   2.463  12.115  0.00  0.00    +0.000 F 
ATOM     35  F   UNL     1       5.323   3.760  11.535  0.00  0.00    +0.000 F 
ENDBRANCH  29  32
ENDBRANCH  25  26
ENDBRANCH  24  25
ENDBRANCH   6  24
TORSDOF 10
ENDMDL
MODEL 5
REMARK VINA RESULT:      -8.1      1.179      1.538
REMARK  Name = 
REMARK  11 active torsions:
REMARK  status: ('A' for Active; 'I' for Inactive)
REMARK    1  A    between atoms: C_1  and  C_2
REMARK    2  A    between atoms: C_5  and  C_6
REMARK    3  A    between atoms: C_6  and  C_7
REMARK    4  A    between atoms: C_7  and  O_9
REMARK    5  A    between atoms: C_14  and  O_15
REMARK    6  A    between atoms: O_15  and  C_16
REMARK    7  A    between atoms: C_16  and  C_17
REMARK    8  A    between atoms: C_22  and  C_23
REMARK    9  A    between atoms: C_23  and  O_24
REMARK   10  A    between atoms: O_24  and  C_25
REMARK   11  A    between atoms: C_28  and  C_29
REMARK                            x       y       z     vdW  Elec       q    Type
REMARK                         _______ _______ _______ _____ _____    ______ ____
ROOT
ATOM      1  C   UNL     1       2.165   4.360  19.724  0.00  0.00    +0.000 A 
ATOM      2  C   UNL     1       2.083   3.976  21.082  0.00  0.00    +0.000 A 
ATOM      3  C   UNL     1       2.773   2.865  21.567  0.00  0.00    +0.000 A 
ATOM      4  C   UNL     1       3.553   2.111  20.701  0.00  0.00    +0.000 A 
ATOM      5  C   UNL     1       3.610   2.448  19.346  0.00  0.00    +0.000 A 
ATOM      6  C   UNL     1       2.901   3.554  18.831  0.00  0.00    +0.000 A 
ENDROOT
BRANCH   1   7
ATOM      7  C   UNL     1       1.564   5.703  19.342  0.00  0.00    +0.000 C 
BRANCH   7   8
ATOM      8  O   UNL     1       2.343   6.827  19.751  0.00  0.00    +0.000 OA
BRANCH   8  18
ATOM      9  C   UNL     1       2.160   9.167  17.679  0.00  0.00    +0.000 C 
ATOM     10  C   UNL     1       1.537   9.084  19.044  0.00  0.00    +0.000 A 
ATOM     11  C   UNL     1       0.828  10.241  19.441  0.00  0.00    +0.000 A 
ATOM     12  C   UNL     1       0.289  10.395  20.736  0.00  0.00    +0.000 A 
ATOM     13  C   UNL     1      -0.365  11.535  21.348  0.00  0.00    +0.000 A 
ATOM     14  C   UNL     1      -0.745  11.249  22.644  0.00  0.00    +0.000 A 
ATOM     15  S   UNL     1      -0.300   9.676  23.132  0.00  0.00    +0.000 S 
ATOM     16  C   UNL     1       0.436   9.325  21.617  0.00  0.00    +0.000 A 
ATOM     17  C   UNL     1       1.119   8.144  21.238  0.00  0.00    +0.000 A 
ATOM     18  C   UNL     1       1.661   8.015  19.940  0.00  0.00    +0.000 A 
BRANCH  13  19
ATOM     19  C   UNL     1      -0.527  12.886  20.693  0.00  0.00    +0.000 C 
BRANCH  19  20
ATOM     20  C   UNL     1       0.734  13.719  20.591  0.00  0.00    +0.000 C 
ATOM     21  O   UNL     1       1.125  14.197  19.532  0.00  0.00    +0.000 OA
BRANCH  20  22
ATOM     22  O   UNL     1       1.447  13.844  21.727  0.00  0.00    +0.000 OA
ATOM     23  H   UNL     1       0.969  13.588  22.536  0.00  0.00    +0.000 HD
ENDBRANCH  20  22
ENDBRANCH  19  20
ENDBRANCH  13  19
ENDBRANCH   8  18
ENDBRANCH   7   8
ENDBRANCH   1   7
BRANCH   6  24
ATOM     24  C   UNL     1       2.982   3.823  17.343  0.00  0.00    +0.000 C 
BRANCH  24  25
ATOM     25  O   UNL     1       4.333   3.700  16.894  0.00  0.00    +0.000 OA
BRANCH  25  26
ATOM     26  C   UNL     1       5.117   4.807  17.072  0.00  0.00    +0.000 A 
ATOM     27  C   UNL     1       6.465   4.551  17.343  0.00  0.00    +0.000 A 
ATOM     28  C   UNL     1       7.366   5.601  17.561  0.00  0.00    +0.000 A 
ATOM     29  C   UNL     1       6.937   6.931  17.491  0.00  0.00    +0.000 A 
ATOM     30  C   UNL     1       5.593   7.187  17.178  0.00  0.00    +0.000 A 
ATOM     31  C   UNL     1       4.691   6.133  16.971  0.00  0.00    +0.000 A 
BRANCH  29  32
ATOM     32  C   UNL     1       7.892   8.076  17.741  0.00  0.00    +0.000 C 
ATOM     33  F   UNL     1       7.270   9.276  17.914  0.00  0.00    +0.000 F 
ATOM     34  F   UNL     1       8.656   7.888  18.853  0.00  0.00    +0.000 F 
ATOM     35  F   UNL     1       8.768   8.258  16.713  0.00  0.00    +0.000 F 
ENDBRANCH  29  32
ENDBRANCH  25  26
ENDBRANCH  24  25
ENDBRANCH   6  24
TORSDOF 10
ENDMDL
MODEL 6
REMARK VINA RESULT:      -8.0      2.737      3.414
REMARK  Name = 
REMARK  11 active torsions:
REMARK  status: ('A' for Active; 'I' for Inactive)
REMARK    1  A    between atoms: C_1  and  C_2
REMARK    2  A    between atoms: C_5  and  C_6
REMARK    3  A    between atoms: C_6  and  C_7
REMARK    4  A    between atoms: C_7  and  O_9
REMARK    5  A    between atoms: C_14  and  O_15
REMARK    6  A    between atoms: O_15  and  C_16
REMARK    7  A    between atoms: C_16  and  C_17
REMARK    8  A    between atoms: C_22  and  C_23
REMARK    9  A    between atoms: C_23  and  O_24
REMARK   10  A    between atoms: O_24  and  C_25
REMARK   11  A    between atoms: C_28  and  C_29
REMARK                            x       y       z     vdW  Elec       q    Type
REMARK                         _______ _______ _______ _____ _____    ______ ____
ROOT
ATOM      1  C   UNL     1       3.028   4.366  19.355  0.00  0.00    +0.000 A 
ATOM      2  C   UNL     1       1.758   3.745  19.349  0.00  0.00    +0.000 A 
ATOM      3  C   UNL     1       1.593   2.432  18.908  0.00  0.00    +0.000 A 
ATOM      4  C   UNL     1       2.693   1.718  18.456  0.00  0.00    +0.000 A 
ATOM      5  C   UNL     1       3.948   2.330  18.410  0.00  0.00    +0.000 A 
ATOM      6  C   UNL     1       4.133   3.665  18.830  0.00  0.00    +0.000 A 
ENDROOT
BRANCH   1   7
ATOM      7  C   UNL     1       3.143   5.709  20.059  0.00  0.00    +0.000 C 
BRANCH   7   8
ATOM      8  O   UNL     1       1.900   6.229  20.528  0.00  0.00    +0.000 OA
BRANCH   8  18
ATOM      9  C   UNL     1       2.757   7.622  17.858  0.00  0.00    +0.000 C 
ATOM     10  C   UNL     1       1.945   8.194  18.985  0.00  0.00    +0.000 A 
ATOM     11  C   UNL     1       1.580   9.550  18.822  0.00  0.00    +0.000 A 
ATOM     12  C   UNL     1       0.930  10.290  19.832  0.00  0.00    +0.000 A 
ATOM     13  C   UNL     1       0.579  11.696  19.884  0.00  0.00    +0.000 A 
ATOM     14  C   UNL     1      -0.056  12.002  21.070  0.00  0.00    +0.000 A 
ATOM     15  S   UNL     1      -0.197  10.658  22.112  0.00  0.00    +0.000 S 
ATOM     16  C   UNL     1       0.607   9.613  21.008  0.00  0.00    +0.000 A 
ATOM     17  C   UNL     1       0.940   8.250  21.190  0.00  0.00    +0.000 A 
ATOM     18  C   UNL     1       1.600   7.530  20.169  0.00  0.00    +0.000 A 
BRANCH  13  19
ATOM     19  C   UNL     1       0.942  12.711  18.826  0.00  0.00    +0.000 C 
BRANCH  19  20
ATOM     20  C   UNL     1      -0.205  13.553  18.306  0.00  0.00    +0.000 C 
ATOM     21  O   UNL     1      -0.382  14.713  18.657  0.00  0.00    +0.000 OA
BRANCH  20  22
ATOM     22  O   UNL     1      -1.068  12.924  17.485  0.00  0.00    +0.000 OA
ATOM     23  H   UNL     1      -2.003  12.996  17.747  0.00  0.00    +0.000 HD
ENDBRANCH  20  22
ENDBRANCH  19  20
ENDBRANCH  13  19
ENDBRANCH   8  18
ENDBRANCH   7   8
ENDBRANCH   1   7
BRANCH   6  24
ATOM     24  C   UNL     1       5.516   4.267  18.706  0.00  0.00    +0.000 C 
BRANCH  24  25
ATOM     25  O   UNL     1       5.506   5.332  17.753  0.00  0.00    +0.000 OA
BRANCH  25  26
ATOM     26  C   UNL     1       5.800   4.975  16.465  0.00  0.00    +0.000 A 
ATOM     27  C   UNL     1       4.742   4.419  15.740  0.00  0.00    +0.000 A 
ATOM     28  C   UNL     1       4.922   3.998  14.416  0.00  0.00    +0.000 A 
ATOM     29  C   UNL     1       6.163   4.146  13.786  0.00  0.00    +0.000 A 
ATOM     30  C   UNL     1       7.213   4.743  14.502  0.00  0.00    +0.000 A 
ATOM     31  C   UNL     1       7.031   5.154  15.832  0.00  0.00    +0.000 A 
BRANCH  29  32
ATOM     32  C   UNL     1       6.380   3.682  12.363  0.00  0.00    +0.000 C 
ATOM     33  F   UNL     1       5.252   3.725  11.599  0.00  0.00    +0.000 F 
ATOM     34  F   UNL     1       7.305   4.432  11.704  0.00  0.00    +0.000 F 
ATOM     35  F   UNL     1       6.824   2.397  12.297  0.00  0.00    +0.000 F 
ENDBRANCH  29  32
ENDBRANCH  25  26
ENDBRANCH  24  25
ENDBRANCH   6  24
TORSDOF 10
ENDMDL
MODEL 7
REMARK VINA RESULT:      -8.0      1.641      2.094
REMARK  Name = 
REMARK  11 active torsions:
REMARK  status: ('A' for Active; 'I' for Inactive)
REMARK    1  A    between atoms: C_1  and  C_2
REMARK    2  A    between atoms: C_5  and  C_6
REMARK    3  A    between atoms: C_6  and  C_7
REMARK    4  A    between atoms: C_7  and  O_9
REMARK    5  A    between atoms: C_14  and  O_15
REMARK    6  A    between atoms: O_15  and  C_16
REMARK    7  A    between atoms: C_16  and  C_17
REMARK    8  A    between atoms: C_22  and  C_23
REMARK    9  A    between atoms: C_23  and  O_24
REMARK   10  A    between atoms: O_24  and  C_25
REMARK   11  A    between atoms: C_28  and  C_29
REMARK                            x       y       z     vdW  Elec       q    Type
REMARK                         _______ _______ _______ _____ _____    ______ ____
ROOT
ATOM      1  C   UNL     1       2.554   4.444  19.107  0.00  0.00    +0.000 A 
ATOM      2  C   UNL     1       1.598   3.937  20.017  0.00  0.00    +0.000 A 
ATOM      3  C   UNL     1       1.233   2.591  20.013  0.00  0.00    +0.000 A 
ATOM      4  C   UNL     1       1.809   1.727  19.093  0.00  0.00    +0.000 A 
ATOM      5  C   UNL     1       2.720   2.219  18.155  0.00  0.00    +0.000 A 
ATOM      6  C   UNL     1       3.086   3.581  18.126  0.00  0.00    +0.000 A 
ENDROOT
BRANCH   1   7
ATOM      7  C   UNL     1       3.049   5.863  19.335  0.00  0.00    +0.000 C 
BRANCH   7   8
ATOM      8  O   UNL     1       2.336   6.573  20.346  0.00  0.00    +0.000 OA
BRANCH   8  18
ATOM      9  C   UNL     1       2.779   8.000  17.594  0.00  0.00    +0.000 C 
ATOM     10  C   UNL     1       1.972   8.477  18.769  0.00  0.00    +0.000 A 
ATOM     11  C   UNL     1       1.394   9.757  18.608  0.00  0.00    +0.000 A 
ATOM     12  C   UNL     1       0.713  10.421  19.651  0.00  0.00    +0.000 A 
ATOM     13  C   UNL     1       0.157  11.758  19.703  0.00  0.00    +0.000 A 
ATOM     14  C   UNL     1      -0.432  12.001  20.928  0.00  0.00    +0.000 A 
ATOM     15  S   UNL     1      -0.292  10.681  22.002  0.00  0.00    +0.000 S 
ATOM     16  C   UNL     1       0.581   9.738  20.859  0.00  0.00    +0.000 A 
ATOM     17  C   UNL     1       1.130   8.445  21.041  0.00  0.00    +0.000 A 
ATOM     18  C   UNL     1       1.816   7.804  19.987  0.00  0.00    +0.000 A 
BRANCH  13  19
ATOM     19  C   UNL     1       0.285  12.785  18.603  0.00  0.00    +0.000 C 
BRANCH  19  20
ATOM     20  C   UNL     1       1.684  13.312  18.360  0.00  0.00    +0.000 C 
ATOM     21  O   UNL     1       2.206  14.153  19.082  0.00  0.00    +0.000 OA
BRANCH  20  22
ATOM     22  O   UNL     1       2.298  12.854  17.251  0.00  0.00    +0.000 OA
ATOM     23  H   UNL     1       1.736  12.309  16.673  0.00  0.00    +0.000 HD
ENDBRANCH  20  22
ENDBRANCH  19  20
ENDBRANCH  13  19
ENDBRANCH   8  18
ENDBRANCH   7   8
ENDBRANCH   1   7
BRANCH   6  24
ATOM     24  C   UNL     1       4.047   4.040  17.049  0.00  0.00    +0.000 C 
BRANCH  24  25
ATOM     25  O   UNL     1       5.396   3.851  17.481  0.00  0.00    +0.000 OA
BRANCH  25  26
ATOM     26  C   UNL     1       6.122   4.996  17.667  0.00  0.00    +0.000 A 
ATOM     27  C   UNL     1       5.785   6.063  16.828  0.00  0.00    +0.000 A 
ATOM     28  C   UNL     1       6.467   7.284  16.909  0.00  0.00    +0.000 A 
ATOM     29  C   UNL     1       7.487   7.466  17.849  0.00  0.00    +0.000 A 
ATOM     30  C   UNL     1       7.796   6.408  18.719  0.00  0.00    +0.000 A 
ATOM     31  C   UNL     1       7.118   5.183  18.627  0.00  0.00    +0.000 A 
BRANCH  29  32
ATOM     32  C   UNL     1       8.246   8.771  17.940  0.00  0.00    +0.000 C 
ATOM     33  F   UNL     1       9.103   8.975  16.901  0.00  0.00    +0.000 F 
ATOM     34  F   UNL     1       7.421   9.855  17.961  0.00  0.00    +0.000 F 
ATOM     35  F   UNL     1       9.002   8.856  19.069  0.00  0.00    +0.000 F 
ENDBRANCH  29  32
ENDBRANCH  25  26
ENDBRANCH  24  25
ENDBRANCH   6  24
TORSDOF 10
ENDMDL
MODEL 8
REMARK VINA RESULT:      -8.0      3.493      6.240
REMARK  Name = 
REMARK  11 active torsions:
REMARK  status: ('A' for Active; 'I' for Inactive)
REMARK    1  A    between atoms: C_1  and  C_2
REMARK    2  A    between atoms: C_5  and  C_6
REMARK    3  A    between atoms: C_6  and  C_7
REMARK    4  A    between atoms: C_7  and  O_9
REMARK    5  A    between atoms: C_14  and  O_15
REMARK    6  A    between atoms: O_15  and  C_16
REMARK    7  A    between atoms: C_16  and  C_17
REMARK    8  A    between atoms: C_22  and  C_23
REMARK    9  A    between atoms: C_23  and  O_24
REMARK   10  A    between atoms: O_24  and  C_25
REMARK   11  A    between atoms: C_28  and  C_29
REMARK                            x       y       z     vdW  Elec       q    Type
REMARK                         _______ _______ _______ _____ _____    ______ ____
ROOT
ATOM      1  C   UNL     1       0.133  11.631  18.808  0.00  0.00    +0.000 A 
ATOM      2  C   UNL     1      -1.134  12.236  18.644  0.00  0.00    +0.000 A 
ATOM      3  C   UNL     1      -2.202  11.542  18.076  0.00  0.00    +0.000 A 
ATOM      4  C   UNL     1      -2.022  10.233  17.652  0.00  0.00    +0.000 A 
ATOM      5  C   UNL     1      -0.765   9.634  17.764  0.00  0.00    +0.000 A 
ATOM      6  C   UNL     1       0.335  10.326  18.314  0.00  0.00    +0.000 A 
ENDROOT
BRANCH   1   7
ATOM      7  C   UNL     1       1.162  12.384  19.636  0.00  0.00    +0.000 C 
BRANCH   7   8
ATOM      8  O   UNL     1       1.284  11.917  20.979  0.00  0.00    +0.000 OA
BRANCH   8  18
ATOM      9  C   UNL     1      -0.500   9.613  22.125  0.00  0.00    +0.000 C 
ATOM     10  C   UNL     1      -0.640  11.092  22.344  0.00  0.00    +0.000 A 
ATOM     11  C   UNL     1      -1.756  11.471  23.125  0.00  0.00    +0.000 A 
ATOM     12  C   UNL     1      -2.120  12.819  23.327  0.00  0.00    +0.000 A 
ATOM     13  C   UNL     1      -3.273  13.386  23.998  0.00  0.00    +0.000 A 
ATOM     14  C   UNL     1      -3.234  14.766  23.967  0.00  0.00    +0.000 A 
ATOM     15  S   UNL     1      -1.876  15.370  23.127  0.00  0.00    +0.000 S 
ATOM     16  C   UNL     1      -1.298  13.792  22.760  0.00  0.00    +0.000 A 
ATOM     17  C   UNL     1      -0.160  13.442  21.994  0.00  0.00    +0.000 A 
ATOM     18  C   UNL     1       0.181  12.086  21.795  0.00  0.00    +0.000 A 
BRANCH  13  19
ATOM     19  C   UNL     1      -4.415  12.581  24.571  0.00  0.00    +0.000 C 
BRANCH  19  20
ATOM     20  C   UNL     1      -5.716  12.649  23.798  0.00  0.00    +0.000 C 
ATOM     21  O   UNL     1      -6.792  12.880  24.337  0.00  0.00    +0.000 OA
BRANCH  20  22
ATOM     22  O   UNL     1      -5.632  12.364  22.484  0.00  0.00    +0.000 OA
ATOM     23  H   UNL     1      -6.039  13.027  21.899  0.00  0.00    +0.000 HD
ENDBRANCH  20  22
ENDBRANCH  19  20
ENDBRANCH  13  19
ENDBRANCH   8  18
ENDBRANCH   7   8
ENDBRANCH   1   7
BRANCH   6  24
ATOM     24  C   UNL     1       1.674   9.619  18.358  0.00  0.00    +0.000 C 
BRANCH  24  25
ATOM     25  O   UNL     1       1.797   8.874  19.571  0.00  0.00    +0.000 OA
BRANCH  25  26
ATOM     26  C   UNL     1       1.958   7.523  19.420  0.00  0.00    +0.000 A 
ATOM     27  C   UNL     1       1.624   6.750  20.538  0.00  0.00    +0.000 A 
ATOM     28  C   UNL     1       1.761   5.357  20.514  0.00  0.00    +0.000 A 
ATOM     29  C   UNL     1       2.216   4.707  19.361  0.00  0.00    +0.000 A 
ATOM     30  C   UNL     1       2.512   5.481  18.227  0.00  0.00    +0.000 A 
ATOM     31  C   UNL     1       2.383   6.877  18.258  0.00  0.00    +0.000 A 
BRANCH  29  32
ATOM     32  C   UNL     1       2.387   3.205  19.323  0.00  0.00    +0.000 C 
ATOM     33  F   UNL     1       1.284   2.544  18.872  0.00  0.00    +0.000 F 
ATOM     34  F   UNL     1       3.411   2.815  18.515  0.00  0.00    +0.000 F 
ATOM     35  F   UNL     1       2.659   2.681  20.550  0.00  0.00    +0.000 F 
ENDBRANCH  29  32
ENDBRANCH  25  26
ENDBRANCH  24  25
ENDBRANCH   6  24
TORSDOF 10
ENDMDL
MODEL 9
REMARK VINA RESULT:      -7.9      1.054      1.536
REMARK  Name = 
REMARK  11 active torsions:
REMARK  status: ('A' for Active; 'I' for Inactive)
REMARK    1  A    between atoms: C_1  and  C_2
REMARK    2  A    between atoms: C_5  and  C_6
REMARK    3  A    between atoms: C_6  and  C_7
REMARK    4  A    between atoms: C_7  and  O_9
REMARK    5  A    between atoms: C_14  and  O_15
REMARK    6  A    between atoms: O_15  and  C_16
REMARK    7  A    between atoms: C_16  and  C_17
REMARK    8  A    between atoms: C_22  and  C_23
REMARK    9  A    between atoms: C_23  and  O_24
REMARK   10  A    between atoms: O_24  and  C_25
REMARK   11  A    between atoms: C_28  and  C_29
REMARK                            x       y       z     vdW  Elec       q    Type
REMARK                         _______ _______ _______ _____ _____    ______ ____
ROOT
ATOM      1  C   UNL     1       1.898   4.946  19.783  0.00  0.00    +0.000 A 
ATOM      2  C   UNL     1       1.992   4.752  21.180  0.00  0.00    +0.000 A 
ATOM      3  C   UNL     1       1.805   3.495  21.754  0.00  0.00    +0.000 A 
ATOM      4  C   UNL     1       1.509   2.409  20.943  0.00  0.00    +0.000 A 
ATOM      5  C   UNL     1       1.366   2.589  19.565  0.00  0.00    +0.000 A 
ATOM      6  C   UNL     1       1.528   3.857  18.966  0.00  0.00    +0.000 A 
ENDROOT
BRANCH   1   7
ATOM      7  C   UNL     1       2.337   6.294  19.235  0.00  0.00    +0.000 C 
BRANCH   7   8
ATOM      8  O   UNL     1       2.513   7.299  20.233  0.00  0.00    +0.000 OA
BRANCH   8  18
ATOM      9  C   UNL     1       1.896   9.144  17.780  0.00  0.00    +0.000 C 
ATOM     10  C   UNL     1       1.286   9.189  19.152  0.00  0.00    +0.000 A 
ATOM     11  C   UNL     1       0.358  10.237  19.353  0.00  0.00    +0.000 A 
ATOM     12  C   UNL     1      -0.216  10.514  20.611  0.00  0.00    +0.000 A 
ATOM     13  C   UNL     1      -1.089  11.594  21.025  0.00  0.00    +0.000 A 
ATOM     14  C   UNL     1      -1.419  11.479  22.360  0.00  0.00    +0.000 A 
ATOM     15  S   UNL     1      -0.679  10.138  23.111  0.00  0.00    +0.000 S 
ATOM     16  C   UNL     1       0.129   9.670  21.667  0.00  0.00    +0.000 A 
ATOM     17  C   UNL     1       1.037   8.598  21.489  0.00  0.00    +0.000 A 
ATOM     18  C   UNL     1       1.608   8.345  20.222  0.00  0.00    +0.000 A 
BRANCH  13  19
ATOM     19  C   UNL     1      -1.506  12.747  20.142  0.00  0.00    +0.000 C 
BRANCH  19  20
ATOM     20  C   UNL     1      -2.643  12.459  19.184  0.00  0.00    +0.000 C 
ATOM     21  O   UNL     1      -3.800  12.311  19.560  0.00  0.00    +0.000 OA
BRANCH  20  22
ATOM     22  O   UNL     1      -2.295  12.300  17.892  0.00  0.00    +0.000 OA
ATOM     23  H   UNL     1      -2.133  11.378  17.626  0.00  0.00    +0.000 HD
ENDBRANCH  20  22
ENDBRANCH  19  20
ENDBRANCH  13  19
ENDBRANCH   8  18
ENDBRANCH   7   8
ENDBRANCH   1   7
BRANCH   6  24
ATOM     24  C   UNL     1       1.312   3.974  17.472  0.00  0.00    +0.000 C 
BRANCH  24  25
ATOM     25  O   UNL     1       2.433   3.434  16.769  0.00  0.00    +0.000 OA
BRANCH  25  26
ATOM     26  C   UNL     1       3.659   3.873  17.189  0.00  0.00    +0.000 A 
ATOM     27  C   UNL     1       4.119   5.044  16.578  0.00  0.00    +0.000 A 
ATOM     28  C   UNL     1       5.368   5.584  16.910  0.00  0.00    +0.000 A 
ATOM     29  C   UNL     1       6.172   4.972  17.877  0.00  0.00    +0.000 A 
ATOM     30  C   UNL     1       5.691   3.820  18.519  0.00  0.00    +0.000 A 
ATOM     31  C   UNL     1       4.444   3.276  18.176  0.00  0.00    +0.000 A 
BRANCH  29  32
ATOM     32  C   UNL     1       7.531   5.532  18.236  0.00  0.00    +0.000 C 
ATOM     33  F   UNL     1       8.528   4.604  18.203  0.00  0.00    +0.000 F 
ATOM     34  F   UNL     1       7.923   6.530  17.397  0.00  0.00    +0.000 F 
ATOM     35  F   UNL     1       7.560   6.064  19.489  0.00  0.00    +0.000 F 
ENDBRANCH  29  32
ENDBRANCH  25  26
ENDBRANCH  24  25
ENDBRANCH   6  24
TORSDOF 10
ENDMDL
