MODEL 1
REMARK VINA RESULT:      -8.3      0.000      0.000
REMARK  Name = 
REMARK  9 active torsions:
REMARK  status: ('A' for Active; 'I' for Inactive)
REMARK    1  A    between atoms: C_1  and  C_2
REMARK    2  A    between atoms: C_8  and  C_9
REMARK    3  A    between atoms: C_12  and  C_13
REMARK    4  A    between atoms: C_16  and  C_17
REMARK    5  A    between atoms: C_17  and  N_18
REMARK    6  A    between atoms: N_18  and  C_19
REMARK    7  A    between atoms: C_19  and  C_20
REMARK    8  A    between atoms: C_20  and  C_21
REMARK    9  A    between atoms: C_20  and  C_22
REMARK                            x       y       z     vdW  Elec       q    Type
REMARK                         _______ _______ _______ _____ _____    ______ ____
ROOT
ATOM      1  C   UNL     1       8.193   8.575  18.285  0.00  0.00    +0.000 A 
ATOM      2  C   UNL     1       7.067   8.622  17.472  0.00  0.00    +0.000 A 
ATOM      3  C   UNL     1       6.237   7.509  17.371  0.00  0.00    +0.000 A 
ATOM      4  C   UNL     1       6.513   6.320  18.071  0.00  0.00    +0.000 A 
ATOM      5  C   UNL     1       7.662   6.285  18.873  0.00  0.00    +0.000 A 
ATOM      6  C   UNL     1       8.486   7.400  18.989  0.00  0.00    +0.000 A 
ENDROOT
BRANCH   1  14
ATOM      7  C   UNL     1       9.719  12.594  21.733  0.00  0.00    +0.000 C 
ATOM      8  C   UNL     1      10.056  12.651  20.277  0.00  0.00    +0.000 A 
ATOM      9  C   UNL     1      10.632  13.777  19.665  0.00  0.00    +0.000 A 
ATOM     10  C   UNL     1      10.997  13.781  18.310  0.00  0.00    +0.000 A 
ATOM     11  C   UNL     1      10.757  12.664  17.501  0.00  0.00    +0.000 A 
ATOM     12  C   UNL     1      10.106  11.564  18.064  0.00  0.00    +0.000 A 
ATOM     13  N   UNL     1       9.665  10.404  17.479  0.00  0.00    +0.000 NA
ATOM     14  C   UNL     1       9.024   9.756  18.433  0.00  0.00    +0.000 A 
ATOM     15  N   UNL     1       9.205  10.372  19.638  0.00  0.00    +0.000 N 
ATOM     16  C   UNL     1       9.793  11.583  19.414  0.00  0.00    +0.000 A 
ATOM     17  H   UNL     1       8.860  10.040  20.525  0.00  0.00    +0.000 HD
ENDBRANCH   1  14
BRANCH   4  18
ATOM     18  C   UNL     1       5.603   5.168  17.982  0.00  0.00    +0.000 A 
ATOM     19  C   UNL     1       4.831   4.957  16.830  0.00  0.00    +0.000 A 
ATOM     20  C   UNL     1       3.921   3.910  16.759  0.00  0.00    +0.000 A 
ATOM     21  C   UNL     1       3.785   3.018  17.830  0.00  0.00    +0.000 A 
ATOM     22  C   UNL     1       4.567   3.193  18.972  0.00  0.00    +0.000 A 
ATOM     23  C   UNL     1       5.459   4.263  19.047  0.00  0.00    +0.000 A 
BRANCH  21  24
ATOM     24  C   UNL     1       2.819   1.869  17.714  0.00  0.00    +0.000 C 
BRANCH  24  25
ATOM     25  N   UNL     1       2.093   1.735  18.972  0.00  0.00    +0.000 NA
ATOM     26  H   UNL     1       2.747   1.898  19.735  0.00  0.00    +0.000 HD
BRANCH  25  27
ATOM     27  C   UNL     1       0.970   2.655  19.049  0.00  0.00    +0.000 C 
BRANCH  27  28
ATOM     28  C   UNL     1       0.952   3.380  20.406  0.00  0.00    +0.000 C 
ATOM     29  C   UNL     1       1.733   2.628  21.489  0.00  0.00    +0.000 C 
ATOM     30  C   UNL     1       1.525   4.787  20.234  0.00  0.00    +0.000 C 
ENDBRANCH  27  28
ENDBRANCH  25  27
ENDBRANCH  24  25
ENDBRANCH  21  24
ENDBRANCH   4  18
TORSDOF 6
ENDMDL
MODEL 2
REMARK VINA RESULT:      -8.2      5.824      8.319
REMARK  Name = 
REMARK  9 active torsions:
REMARK  status: ('A' for Active; 'I' for Inactive)
REMARK    1  A    between atoms: C_1  and  C_2
REMARK    2  A    between atoms: C_8  and  C_9
REMARK    3  A    between atoms: C_12  and  C_13
REMARK    4  A    between atoms: C_16  and  C_17
REMARK    5  A    between atoms: C_17  and  N_18
REMARK    6  A    between atoms: N_18  and  C_19
REMARK    7  A    between atoms: C_19  and  C_20
REMARK    8  A    between atoms: C_20  and  C_21
REMARK    9  A    between atoms: C_20  and  C_22
REMARK                            x       y       z     vdW  Elec       q    Type
REMARK                         _______ _______ _______ _____ _____    ______ ____
ROOT
ATOM      1  C   UNL     1       1.182   8.972  19.577  0.00  0.00    +0.000 A 
ATOM      2  C   UNL     1       1.676   7.829  20.195  0.00  0.00    +0.000 A 
ATOM      3  C   UNL     1       2.524   6.973  19.497  0.00  0.00    +0.000 A 
ATOM      4  C   UNL     1       2.893   7.231  18.164  0.00  0.00    +0.000 A 
ATOM      5  C   UNL     1       2.372   8.379  17.551  0.00  0.00    +0.000 A 
ATOM      6  C   UNL     1       1.538   9.245  18.249  0.00  0.00    +0.000 A 
ENDROOT
BRANCH   1  14
ATOM      7  C   UNL     1      -0.769  14.121  19.785  0.00  0.00    +0.000 C 
ATOM      8  C   UNL     1      -0.909  13.191  20.947  0.00  0.00    +0.000 A 
ATOM      9  C   UNL     1      -1.393  13.597  22.203  0.00  0.00    +0.000 A 
ATOM     10  C   UNL     1      -1.573  12.689  23.258  0.00  0.00    +0.000 A 
ATOM     11  C   UNL     1      -1.233  11.339  23.108  0.00  0.00    +0.000 A 
ATOM     12  C   UNL     1      -0.669  10.928  21.898  0.00  0.00    +0.000 A 
ATOM     13  N   UNL     1      -0.160   9.708  21.531  0.00  0.00    +0.000 NA
ATOM     14  C   UNL     1       0.345   9.891  20.325  0.00  0.00    +0.000 A 
ATOM     15  N   UNL     1       0.008  11.124  19.845  0.00  0.00    +0.000 N 
ATOM     16  C   UNL     1      -0.539  11.846  20.867  0.00  0.00    +0.000 A 
ATOM     17  H   UNL     1       0.230  11.478  18.928  0.00  0.00    +0.000 HD
ENDBRANCH   1  14
BRANCH   4  18
ATOM     18  C   UNL     1       3.821   6.336  17.456  0.00  0.00    +0.000 A 
ATOM     19  C   UNL     1       4.829   6.861  16.635  0.00  0.00    +0.000 A 
ATOM     20  C   UNL     1       5.670   6.026  15.909  0.00  0.00    +0.000 A 
ATOM     21  C   UNL     1       5.548   4.635  16.015  0.00  0.00    +0.000 A 
ATOM     22  C   UNL     1       4.571   4.094  16.852  0.00  0.00    +0.000 A 
ATOM     23  C   UNL     1       3.712   4.938  17.556  0.00  0.00    +0.000 A 
BRANCH  21  24
ATOM     24  C   UNL     1       6.495   3.751  15.248  0.00  0.00    +0.000 C 
BRANCH  24  25
ATOM     25  N   UNL     1       6.367   4.044  13.826  0.00  0.00    +0.000 NA
ATOM     26  H   UNL     1       7.173   3.647  13.346  0.00  0.00    +0.000 HD
BRANCH  25  27
ATOM     27  C   UNL     1       5.129   3.520  13.274  0.00  0.00    +0.000 C 
BRANCH  27  28
ATOM     28  C   UNL     1       5.283   3.226  11.772  0.00  0.00    +0.000 C 
ATOM     29  C   UNL     1       5.944   1.871  11.499  0.00  0.00    +0.000 C 
ATOM     30  C   UNL     1       3.909   3.278  11.104  0.00  0.00    +0.000 C 
ENDBRANCH  27  28
ENDBRANCH  25  27
ENDBRANCH  24  25
ENDBRANCH  21  24
ENDBRANCH   4  18
TORSDOF 6
ENDMDL
MODEL 3
REMARK VINA RESULT:      -8.0      6.673      8.982
REMARK  Name = 
REMARK  9 active torsions:
REMARK  status: ('A' for Active; 'I' for Inactive)
REMARK    1  A    between atoms: C_1  and  C_2
REMARK    2  A    between atoms: C_8  and  C_9
REMARK    3  A    between atoms: C_12  and  C_13
REMARK    4  A    between atoms: C_16  and  C_17
REMARK    5  A    between atoms: C_17  and  N_18
REMARK    6  A    between atoms: N_18  and  C_19
REMARK    7  A    between atoms: C_19  and  C_20
REMARK    8  A    between atoms: C_20  and  C_21
REMARK    9  A    between atoms: C_20  and  C_22
REMARK                            x       y       z     vdW  Elec       q    Type
REMARK                         _______ _______ _______ _____ _____    ______ ____
ROOT
ATOM      1  C   UNL     1       0.292  10.509  21.468  0.00  0.00    +0.000 A 
ATOM      2  C   UNL     1       0.600   9.365  22.194  0.00  0.00    +0.000 A 
ATOM      3  C   UNL     1       1.224   8.290  21.566  0.00  0.00    +0.000 A 
ATOM      4  C   UNL     1       1.547   8.327  20.197  0.00  0.00    +0.000 A 
ATOM      5  C   UNL     1       1.213   9.482  19.476  0.00  0.00    +0.000 A 
ATOM      6  C   UNL     1       0.605  10.564  20.103  0.00  0.00    +0.000 A 
ENDROOT
BRANCH   1  14
ATOM      7  C   UNL     1      -4.088  12.253  24.320  0.00  0.00    +0.000 C 
ATOM      8  C   UNL     1      -3.079  13.217  23.782  0.00  0.00    +0.000 A 
ATOM      9  C   UNL     1      -3.248  14.611  23.825  0.00  0.00    +0.000 A 
ATOM     10  C   UNL     1      -2.256  15.493  23.371  0.00  0.00    +0.000 A 
ATOM     11  C   UNL     1      -1.067  15.009  22.813  0.00  0.00    +0.000 A 
ATOM     12  C   UNL     1      -0.912  13.627  22.680  0.00  0.00    +0.000 A 
ATOM     13  N   UNL     1       0.091  12.905  22.084  0.00  0.00    +0.000 NA
ATOM     14  C   UNL     1      -0.306  11.648  22.139  0.00  0.00    +0.000 A 
ATOM     15  N   UNL     1      -1.427  11.531  22.910  0.00  0.00    +0.000 N 
ATOM     16  C   UNL     1      -1.897  12.786  23.172  0.00  0.00    +0.000 A 
ATOM     17  H   UNL     1      -1.890  10.669  23.147  0.00  0.00    +0.000 HD
ENDBRANCH   1  14
BRANCH   4  18
ATOM     18  C   UNL     1       2.241   7.197  19.558  0.00  0.00    +0.000 A 
ATOM     19  C   UNL     1       2.269   5.939  20.175  0.00  0.00    +0.000 A 
ATOM     20  C   UNL     1       2.975   4.882  19.615  0.00  0.00    +0.000 A 
ATOM     21  C   UNL     1       3.645   5.046  18.396  0.00  0.00    +0.000 A 
ATOM     22  C   UNL     1       3.602   6.282  17.751  0.00  0.00    +0.000 A 
ATOM     23  C   UNL     1       2.914   7.347  18.334  0.00  0.00    +0.000 A 
BRANCH  21  24
ATOM     24  C   UNL     1       4.372   3.875  17.790  0.00  0.00    +0.000 C 
BRANCH  24  25
ATOM     25  N   UNL     1       5.751   3.880  18.262  0.00  0.00    +0.000 NA
ATOM     26  H   UNL     1       6.038   2.914  18.414  0.00  0.00    +0.000 HD
BRANCH  25  27
ATOM     27  C   UNL     1       6.642   4.542  17.324  0.00  0.00    +0.000 C 
BRANCH  27  28
ATOM     28  C   UNL     1       7.538   5.562  18.050  0.00  0.00    +0.000 C 
ATOM     29  C   UNL     1       7.373   6.985  17.507  0.00  0.00    +0.000 C 
ATOM     30  C   UNL     1       7.222   5.535  19.545  0.00  0.00    +0.000 C 
ENDBRANCH  27  28
ENDBRANCH  25  27
ENDBRANCH  24  25
ENDBRANCH  21  24
ENDBRANCH   4  18
TORSDOF 6
ENDMDL
MODEL 4
REMARK VINA RESULT:      -7.8      5.935      8.668
REMARK  Name = 
REMARK  9 active torsions:
REMARK  status: ('A' for Active; 'I' for Inactive)
REMARK    1  A    between atoms: C_1  and  C_2
REMARK    2  A    between atoms: C_8  and  C_9
REMARK    3  A    between atoms: C_12  and  C_13
REMARK    4  A    between atoms: C_16  and  C_17
REMARK    5  A    between atoms: C_17  and  N_18
REMARK    6  A    between atoms: N_18  and  C_19
REMARK    7  A    between atoms: C_19  and  C_20
REMARK    8  A    between atoms: C_20  and  C_21
REMARK    9  A    between atoms: C_20  and  C_22
REMARK                            x       y       z     vdW  Elec       q    Type
REMARK                         _______ _______ _______ _____ _____    ______ ____
ROOT
ATOM      1  C   UNL     1       1.108   9.204  19.821  0.00  0.00    +0.000 A 
ATOM      2  C   UNL     1       1.480   9.497  18.515  0.00  0.00    +0.000 A 
ATOM      3  C   UNL     1       2.304   8.621  17.814  0.00  0.00    +0.000 A 
ATOM      4  C   UNL     1       2.783   7.435  18.401  0.00  0.00    +0.000 A 
ATOM      5  C   UNL     1       2.411   7.164  19.726  0.00  0.00    +0.000 A 
ATOM      6  C   UNL     1       1.575   8.029  20.424  0.00  0.00    +0.000 A 
ENDROOT
BRANCH   1  14
ATOM      7  C   UNL     1      -3.437  12.285  19.359  0.00  0.00    +0.000 C 
ATOM      8  C   UNL     1      -2.545  12.395  20.553  0.00  0.00    +0.000 A 
ATOM      9  C   UNL     1      -2.705  13.376  21.546  0.00  0.00    +0.000 A 
ATOM     10  C   UNL     1      -1.892  13.415  22.689  0.00  0.00    +0.000 A 
ATOM     11  C   UNL     1      -0.853  12.494  22.862  0.00  0.00    +0.000 A 
ATOM     12  C   UNL     1      -0.617  11.563  21.847  0.00  0.00    +0.000 A 
ATOM     13  N   UNL     1       0.383  10.632  21.718  0.00  0.00    +0.000 NA
ATOM     14  C   UNL     1       0.203  10.092  20.528  0.00  0.00    +0.000 A 
ATOM     15  N   UNL     1      -0.978  10.510  19.983  0.00  0.00    +0.000 N 
ATOM     16  C   UNL     1      -1.463  11.531  20.750  0.00  0.00    +0.000 A 
ATOM     17  H   UNL     1      -1.364  10.198  19.107  0.00  0.00    +0.000 HD
ENDBRANCH   1  14
BRANCH   4  18
ATOM     18  C   UNL     1       3.621   6.502  17.633  0.00  0.00    +0.000 A 
ATOM     19  C   UNL     1       3.554   5.122  17.873  0.00  0.00    +0.000 A 
ATOM     20  C   UNL     1       4.387   4.236  17.200  0.00  0.00    +0.000 A 
ATOM     21  C   UNL     1       5.287   4.706  16.236  0.00  0.00    +0.000 A 
ATOM     22  C   UNL     1       5.346   6.072  15.960  0.00  0.00    +0.000 A 
ATOM     23  C   UNL     1       4.527   6.959  16.660  0.00  0.00    +0.000 A 
BRANCH  21  24
ATOM     24  C   UNL     1       6.152   3.722  15.493  0.00  0.00    +0.000 C 
BRANCH  24  25
ATOM     25  N   UNL     1       5.627   3.558  14.143  0.00  0.00    +0.000 NA
ATOM     26  H   UNL     1       4.831   4.184  14.034  0.00  0.00    +0.000 HD
BRANCH  25  27
ATOM     27  C   UNL     1       6.638   3.826  13.133  0.00  0.00    +0.000 C 
BRANCH  27  28
ATOM     28  C   UNL     1       6.171   3.333  11.752  0.00  0.00    +0.000 C 
ATOM     29  C   UNL     1       6.768   1.973  11.377  0.00  0.00    +0.000 C 
ATOM     30  C   UNL     1       4.645   3.254  11.733  0.00  0.00    +0.000 C 
ENDBRANCH  27  28
ENDBRANCH  25  27
ENDBRANCH  24  25
ENDBRANCH  21  24
ENDBRANCH   4  18
TORSDOF 6
ENDMDL
MODEL 5
REMARK VINA RESULT:      -7.8      6.066      8.443
REMARK  Name = 
REMARK  9 active torsions:
REMARK  status: ('A' for Active; 'I' for Inactive)
REMARK    1  A    between atoms: C_1  and  C_2
REMARK    2  A    between atoms: C_8  and  C_9
REMARK    3  A    between atoms: C_12  and  C_13
REMARK    4  A    between atoms: C_16  and  C_17
REMARK    5  A    between atoms: C_17  and  N_18
REMARK    6  A    between atoms: N_18  and  C_19
REMARK    7  A    between atoms: C_19  and  C_20
REMARK    8  A    between atoms: C_20  and  C_21
REMARK    9  A    between atoms: C_20  and  C_22
REMARK                            x       y       z     vdW  Elec       q    Type
REMARK                         _______ _______ _______ _____ _____    ______ ____
ROOT
ATOM      1  C   UNL     1       0.953   9.381  19.720  0.00  0.00    +0.000 A 
ATOM      2  C   UNL     1       1.406   8.238  20.368  0.00  0.00    +0.000 A 
ATOM      3  C   UNL     1       2.218   7.332  19.691  0.00  0.00    +0.000 A 
ATOM      4  C   UNL     1       2.593   7.539  18.351  0.00  0.00    +0.000 A 
ATOM      5  C   UNL     1       2.113   8.690  17.708  0.00  0.00    +0.000 A 
ATOM      6  C   UNL     1       1.314   9.605  18.385  0.00  0.00    +0.000 A 
ENDROOT
BRANCH   1  14
ATOM      7  C   UNL     1      -0.518  14.684  19.999  0.00  0.00    +0.000 C 
ATOM      8  C   UNL     1      -0.827  13.734  21.111  0.00  0.00    +0.000 A 
ATOM      9  C   UNL     1      -1.360  14.142  22.346  0.00  0.00    +0.000 A 
ATOM     10  C   UNL     1      -1.700  13.221  23.349  0.00  0.00    +0.000 A 
ATOM     11  C   UNL     1      -1.479  11.851  23.169  0.00  0.00    +0.000 A 
ATOM     12  C   UNL     1      -0.869  11.428  21.985  0.00  0.00    +0.000 A 
ATOM     13  N   UNL     1      -0.451  10.177  21.605  0.00  0.00    +0.000 NA
ATOM     14  C   UNL     1       0.154  10.350  20.446  0.00  0.00    +0.000 A 
ATOM     15  N   UNL     1      -0.030  11.626  19.993  0.00  0.00    +0.000 N 
ATOM     16  C   UNL     1      -0.580  12.362  21.003  0.00  0.00    +0.000 A 
ATOM     17  H   UNL     1       0.288  11.987  19.108  0.00  0.00    +0.000 HD
ENDBRANCH   1  14
BRANCH   4  18
ATOM     18  C   UNL     1       3.484   6.591  17.664  0.00  0.00    +0.000 A 
ATOM     19  C   UNL     1       3.288   5.209  17.794  0.00  0.00    +0.000 A 
ATOM     20  C   UNL     1       4.160   4.303  17.204  0.00  0.00    +0.000 A 
ATOM     21  C   UNL     1       5.237   4.758  16.433  0.00  0.00    +0.000 A 
ATOM     22  C   UNL     1       5.430   6.130  16.267  0.00  0.00    +0.000 A 
ATOM     23  C   UNL     1       4.566   7.034  16.885  0.00  0.00    +0.000 A 
BRANCH  21  24
ATOM     24  C   UNL     1       6.147   3.756  15.773  0.00  0.00    +0.000 C 
BRANCH  24  25
ATOM     25  N   UNL     1       6.358   4.153  14.386  0.00  0.00    +0.000 NA
ATOM     26  H   UNL     1       7.267   3.800  14.090  0.00  0.00    +0.000 HD
BRANCH  25  27
ATOM     27  C   UNL     1       5.305   3.659  13.515  0.00  0.00    +0.000 C 
BRANCH  27  28
ATOM     28  C   UNL     1       5.810   3.534  12.066  0.00  0.00    +0.000 C 
ATOM     29  C   UNL     1       7.233   4.072  11.888  0.00  0.00    +0.000 C 
ATOM     30  C   UNL     1       5.750   2.069  11.637  0.00  0.00    +0.000 C 
ENDBRANCH  27  28
ENDBRANCH  25  27
ENDBRANCH  24  25
ENDBRANCH  21  24
ENDBRANCH   4  18
TORSDOF 6
ENDMDL
MODEL 6
REMARK VINA RESULT:      -7.8      7.299      9.807
REMARK  Name = 
REMARK  9 active torsions:
REMARK  status: ('A' for Active; 'I' for Inactive)
REMARK    1  A    between atoms: C_1  and  C_2
REMARK    2  A    between atoms: C_8  and  C_9
REMARK    3  A    between atoms: C_12  and  C_13
REMARK    4  A    between atoms: C_16  and  C_17
REMARK    5  A    between atoms: C_17  and  N_18
REMARK    6  A    between atoms: N_18  and  C_19
REMARK    7  A    between atoms: C_19  and  C_20
REMARK    8  A    between atoms: C_20  and  C_21
REMARK    9  A    between atoms: C_20  and  C_22
REMARK                            x       y       z     vdW  Elec       q    Type
REMARK                         _______ _______ _______ _____ _____    ______ ____
ROOT
ATOM      1  C   UNL     1      -0.507  10.923  22.154  0.00  0.00    +0.000 A 
ATOM      2  C   UNL     1       0.098   9.883  22.850  0.00  0.00    +0.000 A 
ATOM      3  C   UNL     1       0.777   8.885  22.156  0.00  0.00    +0.000 A 
ATOM      4  C   UNL     1       0.861   8.895  20.751  0.00  0.00    +0.000 A 
ATOM      5  C   UNL     1       0.231   9.943  20.065  0.00  0.00    +0.000 A 
ATOM      6  C   UNL     1      -0.434  10.950  20.755  0.00  0.00    +0.000 A 
ENDROOT
BRANCH   1  14
ATOM      7  C   UNL     1      -5.371  12.869  23.862  0.00  0.00    +0.000 C 
ATOM      8  C   UNL     1      -4.132  13.701  23.941  0.00  0.00    +0.000 A 
ATOM      9  C   UNL     1      -4.140  15.060  24.298  0.00  0.00    +0.000 A 
ATOM     10  C   UNL     1      -2.955  15.802  24.426  0.00  0.00    +0.000 A 
ATOM     11  C   UNL     1      -1.712  15.218  24.157  0.00  0.00    +0.000 A 
ATOM     12  C   UNL     1      -1.683  13.892  23.716  0.00  0.00    +0.000 A 
ATOM     13  N   UNL     1      -0.627  13.126  23.292  0.00  0.00    +0.000 NA
ATOM     14  C   UNL     1      -1.163  11.991  22.884  0.00  0.00    +0.000 A 
ATOM     15  N   UNL     1      -2.489  11.942  23.209  0.00  0.00    +0.000 N 
ATOM     16  C   UNL     1      -2.870  13.182  23.636  0.00  0.00    +0.000 A 
ATOM     17  H   UNL     1      -3.104  11.159  23.052  0.00  0.00    +0.000 HD
ENDBRANCH   1  14
BRANCH   4  18
ATOM     18  C   UNL     1       1.616   7.853  20.037  0.00  0.00    +0.000 A 
ATOM     19  C   UNL     1       1.762   6.574  20.591  0.00  0.00    +0.000 A 
ATOM     20  C   UNL     1       2.526   5.601  19.958  0.00  0.00    +0.000 A 
ATOM     21  C   UNL     1       3.136   5.872  18.727  0.00  0.00    +0.000 A 
ATOM     22  C   UNL     1       2.976   7.130  18.144  0.00  0.00    +0.000 A 
ATOM     23  C   UNL     1       2.230   8.111  18.799  0.00  0.00    +0.000 A 
BRANCH  21  24
ATOM     24  C   UNL     1       3.928   4.790  18.042  0.00  0.00    +0.000 C 
BRANCH  24  25
ATOM     25  N   UNL     1       4.972   4.325  18.947  0.00  0.00    +0.000 NA
ATOM     26  H   UNL     1       5.313   3.428  18.603  0.00  0.00    +0.000 HD
BRANCH  25  27
ATOM     27  C   UNL     1       6.060   5.282  19.057  0.00  0.00    +0.000 C 
BRANCH  27  28
ATOM     28  C   UNL     1       6.609   5.645  17.665  0.00  0.00    +0.000 C 
ATOM     29  C   UNL     1       7.334   6.995  17.649  0.00  0.00    +0.000 C 
ATOM     30  C   UNL     1       7.555   4.541  17.193  0.00  0.00    +0.000 C 
ENDBRANCH  27  28
ENDBRANCH  25  27
ENDBRANCH  24  25
ENDBRANCH  21  24
ENDBRANCH   4  18
TORSDOF 6
ENDMDL
MODEL 7
REMARK VINA RESULT:      -7.8      6.146      8.466
REMARK  Name = 
REMARK  9 active torsions:
REMARK  status: ('A' for Active; 'I' for Inactive)
REMARK    1  A    between atoms: C_1  and  C_2
REMARK    2  A    between atoms: C_8  and  C_9
REMARK    3  A    between atoms: C_12  and  C_13
REMARK    4  A    between atoms: C_16  and  C_17
REMARK    5  A    between atoms: C_17  and  N_18
REMARK    6  A    between atoms: N_18  and  C_19
REMARK    7  A    between atoms: C_19  and  C_20
REMARK    8  A    between atoms: C_20  and  C_21
REMARK    9  A    between atoms: C_20  and  C_22
REMARK                            x       y       z     vdW  Elec       q    Type
REMARK                         _______ _______ _______ _____ _____    ______ ____
ROOT
ATOM      1  C   UNL     1       0.882   9.497  19.933  0.00  0.00    +0.000 A 
ATOM      2  C   UNL     1       1.297   9.677  18.619  0.00  0.00    +0.000 A 
ATOM      3  C   UNL     1       2.091   8.713  18.003  0.00  0.00    +0.000 A 
ATOM      4  C   UNL     1       2.496   7.550  18.685  0.00  0.00    +0.000 A 
ATOM      5  C   UNL     1       2.081   7.393  20.015  0.00  0.00    +0.000 A 
ATOM      6  C   UNL     1       1.275   8.347  20.629  0.00  0.00    +0.000 A 
ENDROOT
BRANCH   1  14
ATOM      7  C   UNL     1      -0.785  14.747  19.804  0.00  0.00    +0.000 C 
ATOM      8  C   UNL     1      -1.127  13.853  20.953  0.00  0.00    +0.000 A 
ATOM      9  C   UNL     1      -1.746  14.313  22.127  0.00  0.00    +0.000 A 
ATOM     10  C   UNL     1      -2.113  13.440  23.163  0.00  0.00    +0.000 A 
ATOM     11  C   UNL     1      -1.834  12.071  23.080  0.00  0.00    +0.000 A 
ATOM     12  C   UNL     1      -1.142  11.603  21.961  0.00  0.00    +0.000 A 
ATOM     13  N   UNL     1      -0.659  10.349  21.683  0.00  0.00    +0.000 NA
ATOM     14  C   UNL     1       0.008  10.476  20.551  0.00  0.00    +0.000 A 
ATOM     15  N   UNL     1      -0.193  11.715  20.012  0.00  0.00    +0.000 N 
ATOM     16  C   UNL     1      -0.827  12.488  20.942  0.00  0.00    +0.000 A 
ATOM     17  H   UNL     1       0.165  12.035  19.126  0.00  0.00    +0.000 HD
ENDBRANCH   1  14
BRANCH   4  18
ATOM     18  C   UNL     1       3.302   6.524  18.006  0.00  0.00    +0.000 A 
ATOM     19  C   UNL     1       4.503   6.867  17.369  0.00  0.00    +0.000 A 
ATOM     20  C   UNL     1       5.239   5.920  16.669  0.00  0.00    +0.000 A 
ATOM     21  C   UNL     1       4.812   4.588  16.619  0.00  0.00    +0.000 A 
ATOM     22  C   UNL     1       3.636   4.220  17.273  0.00  0.00    +0.000 A 
ATOM     23  C   UNL     1       2.886   5.182  17.950  0.00  0.00    +0.000 A 
BRANCH  21  24
ATOM     24  C   UNL     1       5.647   3.572  15.886  0.00  0.00    +0.000 C 
BRANCH  24  25
ATOM     25  N   UNL     1       6.246   4.208  14.718  0.00  0.00    +0.000 NA
ATOM     26  H   UNL     1       7.073   3.674  14.456  0.00  0.00    +0.000 HD
BRANCH  25  27
ATOM     27  C   UNL     1       5.312   4.290  13.608  0.00  0.00    +0.000 C 
BRANCH  27  28
ATOM     28  C   UNL     1       5.705   3.306  12.491  0.00  0.00    +0.000 C 
ATOM     29  C   UNL     1       4.597   3.119  11.450  0.00  0.00    +0.000 C 
ATOM     30  C   UNL     1       6.981   3.800  11.810  0.00  0.00    +0.000 C 
ENDBRANCH  27  28
ENDBRANCH  25  27
ENDBRANCH  24  25
ENDBRANCH  21  24
ENDBRANCH   4  18
TORSDOF 6
ENDMDL
MODEL 8
REMARK VINA RESULT:      -7.7      7.456      9.530
REMARK  Name = 
REMARK  9 active torsions:
REMARK  status: ('A' for Active; 'I' for Inactive)
REMARK    1  A    between atoms: C_1  and  C_2
REMARK    2  A    between atoms: C_8  and  C_9
REMARK    3  A    between atoms: C_12  and  C_13
REMARK    4  A    between atoms: C_16  and  C_17
REMARK    5  A    between atoms: C_17  and  N_18
REMARK    6  A    between atoms: N_18  and  C_19
REMARK    7  A    between atoms: C_19  and  C_20
REMARK    8  A    between atoms: C_20  and  C_21
REMARK    9  A    between atoms: C_20  and  C_22
REMARK                            x       y       z     vdW  Elec       q    Type
REMARK                         _______ _______ _______ _____ _____    ______ ____
ROOT
ATOM      1  C   UNL     1      -0.546  11.184  22.170  0.00  0.00    +0.000 A 
ATOM      2  C   UNL     1      -0.162  10.009  22.806  0.00  0.00    +0.000 A 
ATOM      3  C   UNL     1       0.506   9.019  22.091  0.00  0.00    +0.000 A 
ATOM      4  C   UNL     1       0.800   9.172  20.723  0.00  0.00    +0.000 A 
ATOM      5  C   UNL     1       0.390  10.356  20.094  0.00  0.00    +0.000 A 
ATOM      6  C   UNL     1      -0.263  11.355  20.809  0.00  0.00    +0.000 A 
ENDROOT
BRANCH   1  14
ATOM      7  C   UNL     1      -5.392  13.165  23.888  0.00  0.00    +0.000 C 
ATOM      8  C   UNL     1      -4.137  13.968  24.016  0.00  0.00    +0.000 A 
ATOM      9  C   UNL     1      -4.122  15.312  24.425  0.00  0.00    +0.000 A 
ATOM     10  C   UNL     1      -2.924  16.022  24.597  0.00  0.00    +0.000 A 
ATOM     11  C   UNL     1      -1.689  15.423  24.322  0.00  0.00    +0.000 A 
ATOM     12  C   UNL     1      -1.682  14.115  23.831  0.00  0.00    +0.000 A 
ATOM     13  N   UNL     1      -0.637  13.343  23.391  0.00  0.00    +0.000 NA
ATOM     14  C   UNL     1      -1.190  12.236  22.933  0.00  0.00    +0.000 A 
ATOM     15  N   UNL     1      -2.521  12.203  23.238  0.00  0.00    +0.000 N 
ATOM     16  C   UNL     1      -2.882  13.433  23.707  0.00  0.00    +0.000 A 
ATOM     17  H   UNL     1      -3.150  11.440  23.043  0.00  0.00    +0.000 HD
ENDBRANCH   1  14
BRANCH   4  18
ATOM     18  C   UNL     1       1.540   8.131  19.993  0.00  0.00    +0.000 A 
ATOM     19  C   UNL     1       2.028   8.378  18.701  0.00  0.00    +0.000 A 
ATOM     20  C   UNL     1       2.672   7.383  17.976  0.00  0.00    +0.000 A 
ATOM     21  C   UNL     1       2.880   6.119  18.541  0.00  0.00    +0.000 A 
ATOM     22  C   UNL     1       2.429   5.864  19.837  0.00  0.00    +0.000 A 
ATOM     23  C   UNL     1       1.759   6.859  20.549  0.00  0.00    +0.000 A 
BRANCH  21  24
ATOM     24  C   UNL     1       3.613   5.069  17.749  0.00  0.00    +0.000 C 
BRANCH  24  25
ATOM     25  N   UNL     1       2.693   3.980  17.443  0.00  0.00    +0.000 NA
ATOM     26  H   UNL     1       2.510   3.992  16.441  0.00  0.00    +0.000 HD
BRANCH  25  27
ATOM     27  C   UNL     1       3.223   2.691  17.855  0.00  0.00    +0.000 C 
BRANCH  27  28
ATOM     28  C   UNL     1       2.355   2.076  18.967  0.00  0.00    +0.000 C 
ATOM     29  C   UNL     1       2.855   2.429  20.372  0.00  0.00    +0.000 C 
ATOM     30  C   UNL     1       0.910   2.544  18.796  0.00  0.00    +0.000 C 
ENDBRANCH  27  28
ENDBRANCH  25  27
ENDBRANCH  24  25
ENDBRANCH  21  24
ENDBRANCH   4  18
TORSDOF 6
ENDMDL
MODEL 9
REMARK VINA RESULT:      -7.7      6.358      8.414
REMARK  Name = 
REMARK  9 active torsions:
REMARK  status: ('A' for Active; 'I' for Inactive)
REMARK    1  A    between atoms: C_1  and  C_2
REMARK    2  A    between atoms: C_8  and  C_9
REMARK    3  A    between atoms: C_12  and  C_13
REMARK    4  A    between atoms: C_16  and  C_17
REMARK    5  A    between atoms: C_17  and  N_18
REMARK    6  A    between atoms: N_18  and  C_19
REMARK    7  A    between atoms: C_19  and  C_20
REMARK    8  A    between atoms: C_20  and  C_21
REMARK    9  A    between atoms: C_20  and  C_22
REMARK                            x       y       z     vdW  Elec       q    Type
REMARK                         _______ _______ _______ _____ _____    ______ ____
ROOT
ATOM      1  C   UNL     1       0.418  10.350  20.449  0.00  0.00    +0.000 A 
ATOM      2  C   UNL     1       0.927   9.270  21.161  0.00  0.00    +0.000 A 
ATOM      3  C   UNL     1       1.639   8.274  20.498  0.00  0.00    +0.000 A 
ATOM      4  C   UNL     1       1.853   8.326  19.108  0.00  0.00    +0.000 A 
ATOM      5  C   UNL     1       1.319   9.414  18.404  0.00  0.00    +0.000 A 
ATOM      6  C   UNL     1       0.621  10.419  19.065  0.00  0.00    +0.000 A 
ENDROOT
BRANCH   1  14
ATOM      7  C   UNL     1       0.814  15.542  22.252  0.00  0.00    +0.000 C 
ATOM      8  C   UNL     1      -0.299  14.649  22.698  0.00  0.00    +0.000 A 
ATOM      9  C   UNL     1      -1.213  15.004  23.704  0.00  0.00    +0.000 A 
ATOM     10  C   UNL     1      -2.287  14.173  24.058  0.00  0.00    +0.000 A 
ATOM     11  C   UNL     1      -2.462  12.927  23.444  0.00  0.00    +0.000 A 
ATOM     12  C   UNL     1      -1.517  12.513  22.502  0.00  0.00    +0.000 A 
ATOM     13  N   UNL     1      -1.396  11.318  21.839  0.00  0.00    +0.000 NA
ATOM     14  C   UNL     1      -0.273  11.414  21.153  0.00  0.00    +0.000 A 
ATOM     15  N   UNL     1       0.219  12.687  21.211  0.00  0.00    +0.000 N 
ATOM     16  C   UNL     1      -0.490  13.376  22.152  0.00  0.00    +0.000 A 
ATOM     17  H   UNL     1       1.035  13.024  20.726  0.00  0.00    +0.000 HD
ENDBRANCH   1  14
BRANCH   4  18
ATOM     18  C   UNL     1       2.641   7.285  18.430  0.00  0.00    +0.000 A 
ATOM     19  C   UNL     1       2.469   5.933  18.762  0.00  0.00    +0.000 A 
ATOM     20  C   UNL     1       3.252   4.946  18.176  0.00  0.00    +0.000 A 
ATOM     21  C   UNL     1       4.208   5.283  17.209  0.00  0.00    +0.000 A 
ATOM     22  C   UNL     1       4.371   6.620  16.844  0.00  0.00    +0.000 A 
ATOM     23  C   UNL     1       3.601   7.608  17.456  0.00  0.00    +0.000 A 
BRANCH  21  24
ATOM     24  C   UNL     1       5.018   4.192  16.562  0.00  0.00    +0.000 C 
BRANCH  24  25
ATOM     25  N   UNL     1       6.147   3.867  17.424  0.00  0.00    +0.000 NA
ATOM     26  H   UNL     1       6.358   2.877  17.311  0.00  0.00    +0.000 HD
BRANCH  25  27
ATOM     27  C   UNL     1       7.313   4.681  17.119  0.00  0.00    +0.000 C 
BRANCH  27  28
ATOM     28  C   UNL     1       7.710   5.541  18.332  0.00  0.00    +0.000 C 
ATOM     29  C   UNL     1       7.759   7.037  18.006  0.00  0.00    +0.000 C 
ATOM     30  C   UNL     1       6.724   5.289  19.473  0.00  0.00    +0.000 C 
ENDBRANCH  27  28
ENDBRANCH  25  27
ENDBRANCH  24  25
ENDBRANCH  21  24
ENDBRANCH   4  18
TORSDOF 6
ENDMDL
