MODEL 1
REMARK VINA RESULT:      -6.9      0.000      0.000
REMARK  Name = 
REMARK  5 active torsions:
REMARK  status: ('A' for Active; 'I' for Inactive)
REMARK    1  A    between atoms: C_2  and  O_3
REMARK    2  A    between atoms: C_2  and  C_4
REMARK    3  A    between atoms: C_4  and  C_5
REMARK    4  A    between atoms: C_5  and  C_6
REMARK    5  A    between atoms: C_8  and  C_9
REMARK                            x       y       z     vdW  Elec       q    Type
REMARK                         _______ _______ _______ _____ _____    ______ ____
ROOT
ATOM      1  C   UNL     1       6.640   4.361  13.766  0.00  0.00    +0.000 A 
ATOM      2  N   UNL     1       5.718   4.015  14.631  0.00  0.00    +0.000 NA
ATOM      3  C   UNL     1       6.077   4.728  15.756  0.00  0.00    +0.000 A 
ATOM      4  N   UNL     1       7.180   5.479  15.593  0.00  0.00    +0.000 NA
ATOM      5  O   UNL     1       7.555   5.235  14.271  0.00  0.00    +0.000 OA
ENDROOT
BRANCH   3   6
ATOM      6  C   UNL     1       5.269   4.694  16.970  0.00  0.00    +0.000 A 
ATOM      7  C   UNL     1       4.010   4.072  16.951  0.00  0.00    +0.000 A 
ATOM      8  C   UNL     1       3.192   4.078  18.084  0.00  0.00    +0.000 A 
ATOM      9  C   UNL     1       3.629   4.704  19.248  0.00  0.00    +0.000 A 
ATOM     10 CL   UNL     1       2.610   4.741  20.632  0.00  0.00    +0.000 Cl
ATOM     11  C   UNL     1       4.884   5.309  19.293  0.00  0.00    +0.000 A 
ATOM     12  C   UNL     1       5.703   5.302  18.158  0.00  0.00    +0.000 A 
ENDBRANCH   3   6
BRANCH   1  13
ATOM     13  C   UNL     1       6.767   3.980  12.342  0.00  0.00    +0.000 C 
BRANCH  13  14
ATOM     14  C   UNL     1       5.702   2.949  11.977  0.00  0.00    +0.000 C 
BRANCH  14  16
ATOM     15  O   UNL     1       5.727   0.664  11.181  0.00  0.00    +0.000 OA
ATOM     16  C   UNL     1       6.326   1.702  11.417  0.00  0.00    +0.000 C 
BRANCH  16  17
ATOM     17  O   UNL     1       7.653   1.841  11.196  0.00  0.00    +0.000 OA
ATOM     18  H   UNL     1       7.902   2.675  10.757  0.00  0.00    +0.000 HD
ENDBRANCH  16  17
ENDBRANCH  14  16
ENDBRANCH  13  14
ENDBRANCH   1  13
TORSDOF 5
ENDMDL
MODEL 2
REMARK VINA RESULT:      -6.8      0.237      1.418
REMARK  Name = 
REMARK  5 active torsions:
REMARK  status: ('A' for Active; 'I' for Inactive)
REMARK    1  A    between atoms: C_2  and  O_3
REMARK    2  A    between atoms: C_2  and  C_4
REMARK    3  A    between atoms: C_4  and  C_5
REMARK    4  A    between atoms: C_5  and  C_6
REMARK    5  A    between atoms: C_8  and  C_9
REMARK                            x       y       z     vdW  Elec       q    Type
REMARK                         _______ _______ _______ _____ _____    ______ ____
ROOT
ATOM      1  C   UNL     1       6.761   4.478  13.937  0.00  0.00    +0.000 A 
ATOM      2  N   UNL     1       5.781   4.124  14.733  0.00  0.00    +0.000 NA
ATOM      3  C   UNL     1       6.064   4.821  15.889  0.00  0.00    +0.000 A 
ATOM      4  N   UNL     1       7.177   5.570  15.811  0.00  0.00    +0.000 NA
ATOM      5  O   UNL     1       7.641   5.342  14.515  0.00  0.00    +0.000 OA
ENDROOT
BRANCH   3   6
ATOM      6  C   UNL     1       5.175   4.774  17.045  0.00  0.00    +0.000 A 
ATOM      7  C   UNL     1       5.566   5.381  18.249  0.00  0.00    +0.000 A 
ATOM      8  C   UNL     1       4.760   5.299  19.387  0.00  0.00    +0.000 A 
ATOM      9  C   UNL     1       3.551   4.611  19.327  0.00  0.00    +0.000 A 
ATOM     10 CL   UNL     1       2.573   4.481  20.736  0.00  0.00    +0.000 Cl
ATOM     11  C   UNL     1       3.135   4.020  18.135  0.00  0.00    +0.000 A 
ATOM     12  C   UNL     1       3.943   4.104  16.996  0.00  0.00    +0.000 A 
ENDBRANCH   3   6
BRANCH   1  13
ATOM     13  C   UNL     1       6.983   4.115  12.521  0.00  0.00    +0.000 C 
BRANCH  13  14
ATOM     14  C   UNL     1       5.963   3.067  12.080  0.00  0.00    +0.000 C 
BRANCH  14  16
ATOM     15  O   UNL     1       7.757   1.908  10.943  0.00  0.00    +0.000 OA
ATOM     16  C   UNL     1       6.640   1.889  11.439  0.00  0.00    +0.000 C 
BRANCH  16  17
ATOM     17  O   UNL     1       5.873   0.776  11.460  0.00  0.00    +0.000 OA
ATOM     18  H   UNL     1       6.372  -0.058  11.381  0.00  0.00    +0.000 HD
ENDBRANCH  16  17
ENDBRANCH  14  16
ENDBRANCH  13  14
ENDBRANCH   1  13
TORSDOF 5
ENDMDL
MODEL 3
REMARK VINA RESULT:      -6.7      1.911      2.575
REMARK  Name = 
REMARK  5 active torsions:
REMARK  status: ('A' for Active; 'I' for Inactive)
REMARK    1  A    between atoms: C_2  and  O_3
REMARK    2  A    between atoms: C_2  and  C_4
REMARK    3  A    between atoms: C_4  and  C_5
REMARK    4  A    between atoms: C_5  and  C_6
REMARK    5  A    between atoms: C_8  and  C_9
REMARK                            x       y       z     vdW  Elec       q    Type
REMARK                         _______ _______ _______ _____ _____    ______ ____
ROOT
ATOM      1  C   UNL     1       6.569   4.500  16.159  0.00  0.00    +0.000 A 
ATOM      2  N   UNL     1       5.437   4.096  16.683  0.00  0.00    +0.000 NA
ATOM      3  C   UNL     1       5.660   4.247  18.036  0.00  0.00    +0.000 A 
ATOM      4  N   UNL     1       6.883   4.718  18.334  0.00  0.00    +0.000 NA
ATOM      5  O   UNL     1       7.487   4.887  17.088  0.00  0.00    +0.000 OA
ENDROOT
BRANCH   3   6
ATOM      6  C   UNL     1       4.616   3.970  19.016  0.00  0.00    +0.000 A 
ATOM      7  C   UNL     1       4.422   2.657  19.475  0.00  0.00    +0.000 A 
ATOM      8  C   UNL     1       3.390   2.357  20.368  0.00  0.00    +0.000 A 
ATOM      9  C   UNL     1       2.546   3.370  20.814  0.00  0.00    +0.000 A 
ATOM     10 CL   UNL     1       1.256   2.996  21.887  0.00  0.00    +0.000 Cl
ATOM     11  C   UNL     1       2.736   4.683  20.386  0.00  0.00    +0.000 A 
ATOM     12  C   UNL     1       3.770   4.983  19.492  0.00  0.00    +0.000 A 
ENDBRANCH   3   6
BRANCH   1  13
ATOM     13  C   UNL     1       6.932   4.641  14.732  0.00  0.00    +0.000 C 
BRANCH  13  14
ATOM     14  C   UNL     1       5.874   3.981  13.852  0.00  0.00    +0.000 C 
BRANCH  14  16
ATOM     15  O   UNL     1       7.226   4.281  11.867  0.00  0.00    +0.000 OA
ATOM     16  C   UNL     1       6.443   3.601  12.514  0.00  0.00    +0.000 C 
BRANCH  16  17
ATOM     17  O   UNL     1       5.992   2.403  12.080  0.00  0.00    +0.000 OA
ATOM     18  H   UNL     1       6.544   1.991  11.390  0.00  0.00    +0.000 HD
ENDBRANCH  16  17
ENDBRANCH  14  16
ENDBRANCH  13  14
ENDBRANCH   1  13
TORSDOF 5
ENDMDL
MODEL 4
REMARK VINA RESULT:      -6.6      3.908      6.153
REMARK  Name = 
REMARK  5 active torsions:
REMARK  status: ('A' for Active; 'I' for Inactive)
REMARK    1  A    between atoms: C_2  and  O_3
REMARK    2  A    between atoms: C_2  and  C_4
REMARK    3  A    between atoms: C_4  and  C_5
REMARK    4  A    between atoms: C_5  and  C_6
REMARK    5  A    between atoms: C_8  and  C_9
REMARK                            x       y       z     vdW  Elec       q    Type
REMARK                         _______ _______ _______ _____ _____    ______ ____
ROOT
ATOM      1  C   UNL     1       7.142   6.746  17.588  0.00  0.00    +0.000 A 
ATOM      2  N   UNL     1       6.055   6.322  18.185  0.00  0.00    +0.000 NA
ATOM      3  C   UNL     1       5.510   5.468  17.248  0.00  0.00    +0.000 A 
ATOM      4  N   UNL     1       6.230   5.374  16.117  0.00  0.00    +0.000 NA
ATOM      5  O   UNL     1       7.314   6.223  16.342  0.00  0.00    +0.000 OA
ENDROOT
BRANCH   3   6
ATOM      6  C   UNL     1       4.298   4.705  17.526  0.00  0.00    +0.000 A 
ATOM      7  C   UNL     1       3.154   5.366  18.001  0.00  0.00    +0.000 A 
ATOM      8  C   UNL     1       1.999   4.651  18.331  0.00  0.00    +0.000 A 
ATOM      9  C   UNL     1       1.980   3.266  18.183  0.00  0.00    +0.000 A 
ATOM     10 CL   UNL     1       0.571   2.382  18.619  0.00  0.00    +0.000 Cl
ATOM     11  C   UNL     1       3.099   2.595  17.693  0.00  0.00    +0.000 A 
ATOM     12  C   UNL     1       4.254   3.312  17.362  0.00  0.00    +0.000 A 
ENDBRANCH   3   6
BRANCH   1  13
ATOM     13  C   UNL     1       8.198   7.640  18.110  0.00  0.00    +0.000 C 
BRANCH  13  14
ATOM     14  C   UNL     1       7.905   9.086  17.715  0.00  0.00    +0.000 C 
BRANCH  14  16
ATOM     15  O   UNL     1       9.201  11.114  17.968  0.00  0.00    +0.000 OA
ATOM     16  C   UNL     1       8.836  10.037  18.414  0.00  0.00    +0.000 C 
BRANCH  16  17
ATOM     17  O   UNL     1       9.245   9.571  19.615  0.00  0.00    +0.000 OA
ATOM     18  H   UNL     1       9.159  10.211  20.345  0.00  0.00    +0.000 HD
ENDBRANCH  16  17
ENDBRANCH  14  16
ENDBRANCH  13  14
ENDBRANCH   1  13
TORSDOF 5
ENDMDL
MODEL 5
REMARK VINA RESULT:      -6.6      3.911      5.367
REMARK  Name = 
REMARK  5 active torsions:
REMARK  status: ('A' for Active; 'I' for Inactive)
REMARK    1  A    between atoms: C_2  and  O_3
REMARK    2  A    between atoms: C_2  and  C_4
REMARK    3  A    between atoms: C_4  and  C_5
REMARK    4  A    between atoms: C_5  and  C_6
REMARK    5  A    between atoms: C_8  and  C_9
REMARK                            x       y       z     vdW  Elec       q    Type
REMARK                         _______ _______ _______ _____ _____    ______ ____
ROOT
ATOM      1  C   UNL     1       4.405   4.647  17.654  0.00  0.00    +0.000 A 
ATOM      2  N   UNL     1       3.611   5.659  17.406  0.00  0.00    +0.000 NA
ATOM      3  C   UNL     1       3.370   6.170  18.665  0.00  0.00    +0.000 A 
ATOM      4  N   UNL     1       3.986   5.495  19.650  0.00  0.00    +0.000 NA
ATOM      5  O   UNL     1       4.674   4.483  18.979  0.00  0.00    +0.000 OA
ENDROOT
BRANCH   3   6
ATOM      6  C   UNL     1       2.567   7.372  18.860  0.00  0.00    +0.000 A 
ATOM      7  C   UNL     1       1.970   7.616  20.107  0.00  0.00    +0.000 A 
ATOM      8  C   UNL     1       1.149   8.729  20.302  0.00  0.00    +0.000 A 
ATOM      9  C   UNL     1       0.921   9.611  19.248  0.00  0.00    +0.000 A 
ATOM     10 CL   UNL     1      -0.117  10.963  19.478  0.00  0.00    +0.000 Cl
ATOM     11  C   UNL     1       1.521   9.397  18.009  0.00  0.00    +0.000 A 
ATOM     12  C   UNL     1       2.344   8.282  17.815  0.00  0.00    +0.000 A 
ENDBRANCH   3   6
BRANCH   1  13
ATOM     13  C   UNL     1       5.071   3.735  16.699  0.00  0.00    +0.000 C 
BRANCH  13  14
ATOM     14  C   UNL     1       5.909   4.535  15.705  0.00  0.00    +0.000 C 
BRANCH  14  16
ATOM     15  O   UNL     1       7.446   6.277  16.381  0.00  0.00    +0.000 OA
ATOM     16  C   UNL     1       7.139   5.095  16.362  0.00  0.00    +0.000 C 
BRANCH  16  17
ATOM     17  O   UNL     1       7.898   4.138  16.943  0.00  0.00    +0.000 OA
ATOM     18  H   UNL     1       8.120   4.313  17.876  0.00  0.00    +0.000 HD
ENDBRANCH  16  17
ENDBRANCH  14  16
ENDBRANCH  13  14
ENDBRANCH   1  13
TORSDOF 5
ENDMDL
MODEL 6
REMARK VINA RESULT:      -6.5      1.040      1.164
REMARK  Name = 
REMARK  5 active torsions:
REMARK  status: ('A' for Active; 'I' for Inactive)
REMARK    1  A    between atoms: C_2  and  O_3
REMARK    2  A    between atoms: C_2  and  C_4
REMARK    3  A    between atoms: C_4  and  C_5
REMARK    4  A    between atoms: C_5  and  C_6
REMARK    5  A    between atoms: C_8  and  C_9
REMARK                            x       y       z     vdW  Elec       q    Type
REMARK                         _______ _______ _______ _____ _____    ______ ____
ROOT
ATOM      1  C   UNL     1       6.673   4.675  13.584  0.00  0.00    +0.000 A 
ATOM      2  N   UNL     1       5.600   4.484  14.312  0.00  0.00    +0.000 NA
ATOM      3  C   UNL     1       5.961   5.019  15.530  0.00  0.00    +0.000 A 
ATOM      4  N   UNL     1       7.210   5.515  15.555  0.00  0.00    +0.000 NA
ATOM      5  O   UNL     1       7.684   5.286  14.263  0.00  0.00    +0.000 OA
ENDROOT
BRANCH   3   6
ATOM      6  C   UNL     1       5.022   5.082  16.645  0.00  0.00    +0.000 A 
ATOM      7  C   UNL     1       4.533   3.893  17.210  0.00  0.00    +0.000 A 
ATOM      8  C   UNL     1       3.588   3.926  18.239  0.00  0.00    +0.000 A 
ATOM      9  C   UNL     1       3.126   5.151  18.713  0.00  0.00    +0.000 A 
ATOM     10 CL   UNL     1       1.939   5.192  19.956  0.00  0.00    +0.000 Cl
ATOM     11  C   UNL     1       3.615   6.342  18.179  0.00  0.00    +0.000 A 
ATOM     12  C   UNL     1       4.563   6.308  17.149  0.00  0.00    +0.000 A 
ENDBRANCH   3   6
BRANCH   1  13
ATOM     13  C   UNL     1       6.889   4.376  12.152  0.00  0.00    +0.000 C 
BRANCH  13  14
ATOM     14  C   UNL     1       7.073   2.873  11.951  0.00  0.00    +0.000 C 
BRANCH  14  16
ATOM     15  O   UNL     1       4.714   2.799  11.415  0.00  0.00    +0.000 OA
ATOM     16  C   UNL     1       5.775   2.215  11.577  0.00  0.00    +0.000 C 
BRANCH  16  17
ATOM     17  O   UNL     1       5.895   0.875  11.435  0.00  0.00    +0.000 OA
ATOM     18  H   UNL     1       5.077   0.426  11.155  0.00  0.00    +0.000 HD
ENDBRANCH  16  17
ENDBRANCH  14  16
ENDBRANCH  13  14
ENDBRANCH   1  13
TORSDOF 5
ENDMDL
MODEL 7
REMARK VINA RESULT:      -6.5      0.740      1.091
REMARK  Name = 
REMARK  5 active torsions:
REMARK  status: ('A' for Active; 'I' for Inactive)
REMARK    1  A    between atoms: C_2  and  O_3
REMARK    2  A    between atoms: C_2  and  C_4
REMARK    3  A    between atoms: C_4  and  C_5
REMARK    4  A    between atoms: C_5  and  C_6
REMARK    5  A    between atoms: C_8  and  C_9
REMARK                            x       y       z     vdW  Elec       q    Type
REMARK                         _______ _______ _______ _____ _____    ______ ____
ROOT
ATOM      1  C   UNL     1       6.482   4.304  14.293  0.00  0.00    +0.000 A 
ATOM      2  N   UNL     1       5.339   4.143  14.914  0.00  0.00    +0.000 NA
ATOM      3  C   UNL     1       5.651   4.483  16.214  0.00  0.00    +0.000 A 
ATOM      4  N   UNL     1       6.937   4.834  16.389  0.00  0.00    +0.000 NA
ATOM      5  O   UNL     1       7.489   4.715  15.113  0.00  0.00    +0.000 OA
ENDROOT
BRANCH   3   6
ATOM      6  C   UNL     1       4.635   4.511  17.261  0.00  0.00    +0.000 A 
ATOM      7  C   UNL     1       3.394   3.890  17.042  0.00  0.00    +0.000 A 
ATOM      8  C   UNL     1       2.383   3.953  18.004  0.00  0.00    +0.000 A 
ATOM      9  C   UNL     1       2.607   4.636  19.197  0.00  0.00    +0.000 A 
ATOM     10 CL   UNL     1       1.353   4.742  20.368  0.00  0.00    +0.000 Cl
ATOM     11  C   UNL     1       3.839   5.240  19.441  0.00  0.00    +0.000 A 
ATOM     12  C   UNL     1       4.852   5.176  18.477  0.00  0.00    +0.000 A 
ENDBRANCH   3   6
BRANCH   1  13
ATOM     13  C   UNL     1       6.783   4.160  12.852  0.00  0.00    +0.000 C 
BRANCH  13  14
ATOM     14  C   UNL     1       5.804   3.183  12.206  0.00  0.00    +0.000 C 
BRANCH  14  16
ATOM     15  O   UNL     1       7.662   2.122  11.074  0.00  0.00    +0.000 OA
ATOM     16  C   UNL     1       6.532   2.053  11.534  0.00  0.00    +0.000 C 
BRANCH  16  17
ATOM     17  O   UNL     1       5.795   0.921  11.482  0.00  0.00    +0.000 OA
ATOM     18  H   UNL     1       5.722   0.449  12.331  0.00  0.00    +0.000 HD
ENDBRANCH  16  17
ENDBRANCH  14  16
ENDBRANCH  13  14
ENDBRANCH   1  13
TORSDOF 5
ENDMDL
MODEL 8
REMARK VINA RESULT:      -6.5      1.787      2.464
REMARK  Name = 
REMARK  5 active torsions:
REMARK  status: ('A' for Active; 'I' for Inactive)
REMARK    1  A    between atoms: C_2  and  O_3
REMARK    2  A    between atoms: C_2  and  C_4
REMARK    3  A    between atoms: C_4  and  C_5
REMARK    4  A    between atoms: C_5  and  C_6
REMARK    5  A    between atoms: C_8  and  C_9
REMARK                            x       y       z     vdW  Elec       q    Type
REMARK                         _______ _______ _______ _____ _____    ______ ____
ROOT
ATOM      1  C   UNL     1       5.639   4.915  15.427  0.00  0.00    +0.000 A 
ATOM      2  N   UNL     1       5.146   4.091  16.319  0.00  0.00    +0.000 NA
ATOM      3  C   UNL     1       4.490   4.941  17.185  0.00  0.00    +0.000 A 
ATOM      4  N   UNL     1       4.581   6.238  16.844  0.00  0.00    +0.000 NA
ATOM      5  O   UNL     1       5.344   6.221  15.677  0.00  0.00    +0.000 OA
ENDROOT
BRANCH   3   6
ATOM      6  C   UNL     1       3.725   4.433  18.319  0.00  0.00    +0.000 A 
ATOM      7  C   UNL     1       4.266   3.417  19.124  0.00  0.00    +0.000 A 
ATOM      8  C   UNL     1       3.530   2.872  20.179  0.00  0.00    +0.000 A 
ATOM      9  C   UNL     1       2.246   3.343  20.440  0.00  0.00    +0.000 A 
ATOM     10 CL   UNL     1       1.326   2.650  21.717  0.00  0.00    +0.000 Cl
ATOM     11  C   UNL     1       1.700   4.365  19.665  0.00  0.00    +0.000 A 
ATOM     12  C   UNL     1       2.439   4.911  18.609  0.00  0.00    +0.000 A 
ENDBRANCH   3   6
BRANCH   1  13
ATOM     13  C   UNL     1       6.395   4.604  14.194  0.00  0.00    +0.000 C 
BRANCH  13  14
ATOM     14  C   UNL     1       5.515   3.823  13.221  0.00  0.00    +0.000 C 
BRANCH  14  16
ATOM     15  O   UNL     1       7.318   3.724  11.610  0.00  0.00    +0.000 OA
ATOM     16  C   UNL     1       6.337   3.208  12.123  0.00  0.00    +0.000 C 
BRANCH  16  17
ATOM     17  O   UNL     1       5.871   1.996  11.744  0.00  0.00    +0.000 OA
ATOM     18  H   UNL     1       4.938   1.995  11.461  0.00  0.00    +0.000 HD
ENDBRANCH  16  17
ENDBRANCH  14  16
ENDBRANCH  13  14
ENDBRANCH   1  13
TORSDOF 5
ENDMDL
MODEL 9
REMARK VINA RESULT:      -6.4      3.901      5.352
REMARK  Name = 
REMARK  5 active torsions:
REMARK  status: ('A' for Active; 'I' for Inactive)
REMARK    1  A    between atoms: C_2  and  O_3
REMARK    2  A    between atoms: C_2  and  C_4
REMARK    3  A    between atoms: C_4  and  C_5
REMARK    4  A    between atoms: C_5  and  C_6
REMARK    5  A    between atoms: C_8  and  C_9
REMARK                            x       y       z     vdW  Elec       q    Type
REMARK                         _______ _______ _______ _____ _____    ______ ____
ROOT
ATOM      1  C   UNL     1       4.345   4.633  17.661  0.00  0.00    +0.000 A 
ATOM      2  N   UNL     1       3.496   5.610  17.456  0.00  0.00    +0.000 NA
ATOM      3  C   UNL     1       3.314   6.122  18.724  0.00  0.00    +0.000 A 
ATOM      4  N   UNL     1       4.019   5.483  19.673  0.00  0.00    +0.000 NA
ATOM      5  O   UNL     1       4.703   4.493  18.967  0.00  0.00    +0.000 OA
ENDROOT
BRANCH   3   6
ATOM      6  C   UNL     1       2.477   7.294  18.960  0.00  0.00    +0.000 A 
ATOM      7  C   UNL     1       2.250   8.209  17.919  0.00  0.00    +0.000 A 
ATOM      8  C   UNL     1       1.501   9.368  18.136  0.00  0.00    +0.000 A 
ATOM      9  C   UNL     1       0.970   9.620  19.398  0.00  0.00    +0.000 A 
ATOM     10 CL   UNL     1       0.076  11.063  19.675  0.00  0.00    +0.000 Cl
ATOM     11  C   UNL     1       1.167   8.714  20.439  0.00  0.00    +0.000 A 
ATOM     12  C   UNL     1       1.916   7.552  20.220  0.00  0.00    +0.000 A 
ENDBRANCH   3   6
BRANCH   1  13
ATOM     13  C   UNL     1       4.986   3.738  16.672  0.00  0.00    +0.000 C 
BRANCH  13  14
ATOM     14  C   UNL     1       5.857   4.549  15.716  0.00  0.00    +0.000 C 
BRANCH  14  16
ATOM     15  O   UNL     1       7.946   4.379  16.924  0.00  0.00    +0.000 OA
ATOM     16  C   UNL     1       7.081   5.073  16.412  0.00  0.00    +0.000 C 
BRANCH  16  17
ATOM     17  O   UNL     1       7.133   6.424  16.423  0.00  0.00    +0.000 OA
ATOM     18  H   UNL     1       6.265   6.860  16.508  0.00  0.00    +0.000 HD
ENDBRANCH  16  17
ENDBRANCH  14  16
ENDBRANCH  13  14
ENDBRANCH   1  13
TORSDOF 5
ENDMDL
