MODEL 1
REMARK VINA RESULT:      -7.6      0.000      0.000
REMARK  Name = 
REMARK  18 active torsions:
REMARK  status: ('A' for Active; 'I' for Inactive)
REMARK    1  A    between atoms: C_1  and  C_2
REMARK    2  A    between atoms: C_2  and  C_3
REMARK    3  A    between atoms: C_2  and  N_4
REMARK    4  A    between atoms: C_2  and  C_30
REMARK    5  A    between atoms: C_5  and  C_7
REMARK    6  A    between atoms: C_7  and  N_8
REMARK    7  A    between atoms: C_7  and  C_26
REMARK    8  A    between atoms: C_9  and  C_11
REMARK    9  A    between atoms: C_11  and  C_12
REMARK   10  A    between atoms: C_11  and  C_21
REMARK   11  A    between atoms: C_12  and  C_13
REMARK   12  A    between atoms: C_13  and  C_14
REMARK   13  A    between atoms: C_14  and  C_15
REMARK   14  A    between atoms: C_21  and  C_22
REMARK   15  A    between atoms: N_24  and  O_25
REMARK   16  A    between atoms: C_26  and  C_27
REMARK   17  A    between atoms: C_26  and  C_28
REMARK   18  A    between atoms: C_26  and  C_29
REMARK                            x       y       z     vdW  Elec       q    Type
REMARK                         _______ _______ _______ _____ _____    ______ ____
ROOT
ATOM      1  N   UNL     1       3.012   5.655  19.255  0.00  0.00    +0.000 N 
ATOM      2  C   UNL     1       2.175   6.098  20.241  0.00  0.00    +0.000 C 
ATOM      3  O   UNL     1       1.953   5.409  21.234  0.00  0.00    +0.000 OA
ATOM      4  H   UNL     1       3.101   6.174  18.398  0.00  0.00    +0.000 HD
ENDROOT
BRANCH   1   5
ATOM      5  C   UNL     1       3.671   4.349  19.258  0.00  0.00    +0.000 C 
BRANCH   5   7
ATOM      6  N   UNL     1       5.256   4.990  17.424  0.00  0.00    +0.000 N 
ATOM      7  C   UNL     1       5.118   4.489  18.704  0.00  0.00    +0.000 C 
ATOM      8  O   UNL     1       6.103   4.229  19.389  0.00  0.00    +0.000 OA
ATOM      9  H   UNL     1       4.406   5.177  16.898  0.00  0.00    +0.000 HD
BRANCH   6  11
ATOM     10  C   UNL     1       6.893   6.761  16.863  0.00  0.00    +0.000 C 
ATOM     11  C   UNL     1       6.582   5.245  16.813  0.00  0.00    +0.000 C 
ATOM     12  C   UNL     1       7.645   4.447  17.611  0.00  0.00    +0.000 C 
BRANCH  11  13
ATOM     13  C   UNL     1       6.618   4.830  15.318  0.00  0.00    +0.000 A 
ATOM     14  C   UNL     1       7.590   5.326  14.432  0.00  0.00    +0.000 A 
ATOM     15  C   UNL     1       7.600   4.975  13.076  0.00  0.00    +0.000 A 
ATOM     16  C   UNL     1       6.629   4.121  12.580  0.00  0.00    +0.000 A 
ATOM     17  C   UNL     1       5.639   3.640  13.427  0.00  0.00    +0.000 A 
ATOM     18  C   UNL     1       5.621   3.994  14.779  0.00  0.00    +0.000 A 
ENDBRANCH  11  13
ENDBRANCH   6  11
ENDBRANCH   5   7
BRANCH   5  19
ATOM     19  C   UNL     1       2.814   3.308  18.449  0.00  0.00    +0.000 C 
ATOM     20  C   UNL     1       3.736   2.266  17.782  0.00  0.00    +0.000 C 
ATOM     21  C   UNL     1       1.849   2.549  19.394  0.00  0.00    +0.000 C 
ATOM     22  C   UNL     1       1.934   3.974  17.363  0.00  0.00    +0.000 C 
ENDBRANCH   5  19
ENDBRANCH   1   5
BRANCH   2  23
ATOM     23  C   UNL     1       1.595   7.513  20.068  0.00  0.00    +0.000 C 
BRANCH  23  24
ATOM     24  C   UNL     1       2.299   8.295  18.939  0.00  0.00    +0.000 C 
BRANCH  24  25
ATOM     25  C   UNL     1       1.325   8.941  17.945  0.00  0.00    +0.000 C 
BRANCH  25  26
ATOM     26  C   UNL     1       1.477  10.463  17.888  0.00  0.00    +0.000 C 
BRANCH  26  27
ATOM     27  C   UNL     1       0.650  11.139  18.957  0.00  0.00    +0.000 A 
ATOM     28  C   UNL     1       1.258  11.776  20.047  0.00  0.00    +0.000 A 
ATOM     29  C   UNL     1       0.479  12.350  21.056  0.00  0.00    +0.000 A 
ATOM     30  C   UNL     1      -0.911  12.294  20.987  0.00  0.00    +0.000 A 
ATOM     31  C   UNL     1      -1.526  11.673  19.901  0.00  0.00    +0.000 A 
ATOM     32  C   UNL     1      -0.751  11.099  18.893  0.00  0.00    +0.000 A 
ENDBRANCH  26  27
ENDBRANCH  25  26
ENDBRANCH  24  25
ENDBRANCH  23  24
BRANCH  23  33
ATOM     33  C   UNL     1       1.622   8.301  21.390  0.00  0.00    +0.000 C 
BRANCH  33  34
ATOM     34  C   UNL     1       0.273   8.739  21.882  0.00  0.00    +0.000 C 
ATOM     35  O   UNL     1      -0.762   8.496  21.264  0.00  0.00    +0.000 OA
ATOM     36  N   UNL     1       0.279   9.442  23.059  0.00  0.00    +0.000 N 
ATOM     37  H   UNL     1       1.106   9.741  23.562  0.00  0.00    +0.000 HD
BRANCH  36  38
ATOM     38  O   UNL     1      -0.973   9.862  23.532  0.00  0.00    +0.000 OA
ATOM     39  H   UNL     1      -1.128  10.686  23.022  0.00  0.00    +0.000 HD
ENDBRANCH  36  38
ENDBRANCH  33  34
ENDBRANCH  23  33
ENDBRANCH   2  23
TORSDOF 13
ENDMDL
MODEL 2
REMARK VINA RESULT:      -7.5      1.901      2.822
REMARK  Name = 
REMARK  18 active torsions:
REMARK  status: ('A' for Active; 'I' for Inactive)
REMARK    1  A    between atoms: C_1  and  C_2
REMARK    2  A    between atoms: C_2  and  C_3
REMARK    3  A    between atoms: C_2  and  N_4
REMARK    4  A    between atoms: C_2  and  C_30
REMARK    5  A    between atoms: C_5  and  C_7
REMARK    6  A    between atoms: C_7  and  N_8
REMARK    7  A    between atoms: C_7  and  C_26
REMARK    8  A    between atoms: C_9  and  C_11
REMARK    9  A    between atoms: C_11  and  C_12
REMARK   10  A    between atoms: C_11  and  C_21
REMARK   11  A    between atoms: C_12  and  C_13
REMARK   12  A    between atoms: C_13  and  C_14
REMARK   13  A    between atoms: C_14  and  C_15
REMARK   14  A    between atoms: C_21  and  C_22
REMARK   15  A    between atoms: N_24  and  O_25
REMARK   16  A    between atoms: C_26  and  C_27
REMARK   17  A    between atoms: C_26  and  C_28
REMARK   18  A    between atoms: C_26  and  C_29
REMARK                            x       y       z     vdW  Elec       q    Type
REMARK                         _______ _______ _______ _____ _____    ______ ____
ROOT
ATOM      1  N   UNL     1       2.700   5.935  19.225  0.00  0.00    +0.000 N 
ATOM      2  C   UNL     1       2.047   6.513  20.277  0.00  0.00    +0.000 C 
ATOM      3  O   UNL     1       1.860   5.891  21.320  0.00  0.00    +0.000 OA
ATOM      4  H   UNL     1       2.752   6.411  18.340  0.00  0.00    +0.000 HD
ENDROOT
BRANCH   1   5
ATOM      5  C   UNL     1       3.189   4.556  19.214  0.00  0.00    +0.000 C 
BRANCH   5   7
ATOM      6  N   UNL     1       4.936   5.422  17.638  0.00  0.00    +0.000 N 
ATOM      7  C   UNL     1       4.632   4.514  18.634  0.00  0.00    +0.000 C 
ATOM      8  O   UNL     1       5.488   3.754  19.078  0.00  0.00    +0.000 OA
ATOM      9  H   UNL     1       4.186   6.020  17.301  0.00  0.00    +0.000 HD
BRANCH   6  11
ATOM     10  C   UNL     1       6.728   7.023  17.038  0.00  0.00    +0.000 C 
ATOM     11  C   UNL     1       6.297   5.536  17.061  0.00  0.00    +0.000 C 
ATOM     12  C   UNL     1       7.267   4.702  17.937  0.00  0.00    +0.000 C 
BRANCH  11  13
ATOM     13  C   UNL     1       6.343   5.035  15.593  0.00  0.00    +0.000 A 
ATOM     14  C   UNL     1       5.335   4.216  15.054  0.00  0.00    +0.000 A 
ATOM     15  C   UNL     1       5.396   3.739  13.739  0.00  0.00    +0.000 A 
ATOM     16  C   UNL     1       6.475   4.070  12.937  0.00  0.00    +0.000 A 
ATOM     17  C   UNL     1       7.500   4.853  13.453  0.00  0.00    +0.000 A 
ATOM     18  C   UNL     1       7.447   5.325  14.768  0.00  0.00    +0.000 A 
ENDBRANCH  11  13
ENDBRANCH   6  11
ENDBRANCH   5   7
BRANCH   5  19
ATOM     19  C   UNL     1       2.192   3.635  18.419  0.00  0.00    +0.000 C 
ATOM     20  C   UNL     1       1.217   2.945  19.395  0.00  0.00    +0.000 C 
ATOM     21  C   UNL     1       1.351   4.476  17.427  0.00  0.00    +0.000 C 
ATOM     22  C   UNL     1       2.917   2.556  17.579  0.00  0.00    +0.000 C 
ENDBRANCH   5  19
ENDBRANCH   1   5
BRANCH   2  23
ATOM     23  C   UNL     1       1.631   7.985  20.105  0.00  0.00    +0.000 C 
BRANCH  23  24
ATOM     24  C   UNL     1       0.560   8.409  21.133  0.00  0.00    +0.000 C 
BRANCH  24  25
ATOM     25  C   UNL     1       0.976   9.614  21.986  0.00  0.00    +0.000 C 
BRANCH  25  26
ATOM     26  C   UNL     1       0.736  10.945  21.269  0.00  0.00    +0.000 C 
BRANCH  26  27
ATOM     27  C   UNL     1      -0.617  11.522  21.617  0.00  0.00    +0.000 A 
ATOM     28  C   UNL     1      -1.120  11.448  22.922  0.00  0.00    +0.000 A 
ATOM     29  C   UNL     1      -2.396  11.937  23.218  0.00  0.00    +0.000 A 
ATOM     30  C   UNL     1      -3.180  12.503  22.215  0.00  0.00    +0.000 A 
ATOM     31  C   UNL     1      -2.685  12.592  20.916  0.00  0.00    +0.000 A 
ATOM     32  C   UNL     1      -1.412  12.103  20.618  0.00  0.00    +0.000 A 
ENDBRANCH  26  27
ENDBRANCH  25  26
ENDBRANCH  24  25
ENDBRANCH  23  24
BRANCH  23  33
ATOM     33  C   UNL     1       1.167   8.278  18.667  0.00  0.00    +0.000 C 
BRANCH  33  34
ATOM     34  C   UNL     1       2.094   9.159  17.880  0.00  0.00    +0.000 C 
ATOM     35  O   UNL     1       3.080   8.717  17.294  0.00  0.00    +0.000 OA
ATOM     36  N   UNL     1       1.772  10.491  17.876  0.00  0.00    +0.000 N 
ATOM     37  H   UNL     1       1.023  10.918  18.408  0.00  0.00    +0.000 HD
BRANCH  36  38
ATOM     38  O   UNL     1       2.630  11.330  17.149  0.00  0.00    +0.000 OA
ATOM     39  H   UNL     1       2.709  12.113  17.735  0.00  0.00    +0.000 HD
ENDBRANCH  36  38
ENDBRANCH  33  34
ENDBRANCH  23  33
ENDBRANCH   2  23
TORSDOF 13
ENDMDL
MODEL 3
REMARK VINA RESULT:      -7.4      0.593      1.239
REMARK  Name = 
REMARK  18 active torsions:
REMARK  status: ('A' for Active; 'I' for Inactive)
REMARK    1  A    between atoms: C_1  and  C_2
REMARK    2  A    between atoms: C_2  and  C_3
REMARK    3  A    between atoms: C_2  and  N_4
REMARK    4  A    between atoms: C_2  and  C_30
REMARK    5  A    between atoms: C_5  and  C_7
REMARK    6  A    between atoms: C_7  and  N_8
REMARK    7  A    between atoms: C_7  and  C_26
REMARK    8  A    between atoms: C_9  and  C_11
REMARK    9  A    between atoms: C_11  and  C_12
REMARK   10  A    between atoms: C_11  and  C_21
REMARK   11  A    between atoms: C_12  and  C_13
REMARK   12  A    between atoms: C_13  and  C_14
REMARK   13  A    between atoms: C_14  and  C_15
REMARK   14  A    between atoms: C_21  and  C_22
REMARK   15  A    between atoms: N_24  and  O_25
REMARK   16  A    between atoms: C_26  and  C_27
REMARK   17  A    between atoms: C_26  and  C_28
REMARK   18  A    between atoms: C_26  and  C_29
REMARK                            x       y       z     vdW  Elec       q    Type
REMARK                         _______ _______ _______ _____ _____    ______ ____
ROOT
ATOM      1  N   UNL     1       2.959   5.670  19.067  0.00  0.00    +0.000 N 
ATOM      2  C   UNL     1       2.070   6.161  19.982  0.00  0.00    +0.000 C 
ATOM      3  O   UNL     1       1.784   5.518  20.989  0.00  0.00    +0.000 OA
ATOM      4  H   UNL     1       3.103   6.151  18.195  0.00  0.00    +0.000 HD
ENDROOT
BRANCH   1   5
ATOM      5  C   UNL     1       3.606   4.362  19.165  0.00  0.00    +0.000 C 
BRANCH   5   7
ATOM      6  N   UNL     1       5.218   5.054  17.374  0.00  0.00    +0.000 N 
ATOM      7  C   UNL     1       5.055   4.448  18.605  0.00  0.00    +0.000 C 
ATOM      8  O   UNL     1       6.024   4.055  19.248  0.00  0.00    +0.000 OA
ATOM      9  H   UNL     1       4.380   5.350  16.880  0.00  0.00    +0.000 HD
BRANCH   6  11
ATOM     10  C   UNL     1       6.907   6.776  16.813  0.00  0.00    +0.000 C 
ATOM     11  C   UNL     1       6.554   5.269  16.769  0.00  0.00    +0.000 C 
ATOM     12  C   UNL     1       7.591   4.445  17.577  0.00  0.00    +0.000 C 
BRANCH  11  13
ATOM     13  C   UNL     1       6.586   4.845  15.277  0.00  0.00    +0.000 A 
ATOM     14  C   UNL     1       7.556   5.336  14.385  0.00  0.00    +0.000 A 
ATOM     15  C   UNL     1       7.563   4.976  13.032  0.00  0.00    +0.000 A 
ATOM     16  C   UNL     1       6.591   4.119  12.543  0.00  0.00    +0.000 A 
ATOM     17  C   UNL     1       5.604   3.642  13.396  0.00  0.00    +0.000 A 
ATOM     18  C   UNL     1       5.589   4.004  14.746  0.00  0.00    +0.000 A 
ENDBRANCH  11  13
ENDBRANCH   6  11
ENDBRANCH   5   7
BRANCH   5  19
ATOM     19  C   UNL     1       2.740   3.273  18.432  0.00  0.00    +0.000 C 
ATOM     20  C   UNL     1       1.972   3.911  17.256  0.00  0.00    +0.000 C 
ATOM     21  C   UNL     1       3.646   2.158  17.855  0.00  0.00    +0.000 C 
ATOM     22  C   UNL     1       1.731   2.577  19.378  0.00  0.00    +0.000 C 
ENDBRANCH   5  19
ENDBRANCH   1   5
BRANCH   2  23
ATOM     23  C   UNL     1       1.514   7.570  19.714  0.00  0.00    +0.000 C 
BRANCH  23  24
ATOM     24  C   UNL     1       2.075   8.179  18.412  0.00  0.00    +0.000 C 
BRANCH  24  25
ATOM     25  C   UNL     1       1.659   9.639  18.192  0.00  0.00    +0.000 C 
BRANCH  25  26
ATOM     26  C   UNL     1       0.139   9.805  18.114  0.00  0.00    +0.000 C 
BRANCH  26  27
ATOM     27  C   UNL     1      -0.313  11.073  18.799  0.00  0.00    +0.000 A 
ATOM     28  C   UNL     1      -1.624  11.546  18.654  0.00  0.00    +0.000 A 
ATOM     29  C   UNL     1      -2.012  12.749  19.249  0.00  0.00    +0.000 A 
ATOM     30  C   UNL     1      -1.098  13.492  19.993  0.00  0.00    +0.000 A 
ATOM     31  C   UNL     1       0.206  13.026  20.152  0.00  0.00    +0.000 A 
ATOM     32  C   UNL     1       0.596  11.825  19.559  0.00  0.00    +0.000 A 
ENDBRANCH  26  27
ENDBRANCH  25  26
ENDBRANCH  24  25
ENDBRANCH  23  24
BRANCH  23  33
ATOM     33  C   UNL     1       1.748   8.509  20.912  0.00  0.00    +0.000 C 
BRANCH  33  34
ATOM     34  C   UNL     1       0.524   8.786  21.736  0.00  0.00    +0.000 C 
ATOM     35  O   UNL     1      -0.606   8.494  21.351  0.00  0.00    +0.000 OA
ATOM     36  N   UNL     1       0.755   9.399  22.940  0.00  0.00    +0.000 N 
ATOM     37  H   UNL     1       1.654   9.735  23.266  0.00  0.00    +0.000 HD
BRANCH  36  38
ATOM     38  O   UNL     1      -0.377   9.669  23.721  0.00  0.00    +0.000 OA
ATOM     39  H   UNL     1      -0.912  10.244  23.132  0.00  0.00    +0.000 HD
ENDBRANCH  36  38
ENDBRANCH  33  34
ENDBRANCH  23  33
ENDBRANCH   2  23
TORSDOF 13
ENDMDL
MODEL 4
REMARK VINA RESULT:      -7.4      3.179      8.361
REMARK  Name = 
REMARK  18 active torsions:
REMARK  status: ('A' for Active; 'I' for Inactive)
REMARK    1  A    between atoms: C_1  and  C_2
REMARK    2  A    between atoms: C_2  and  C_3
REMARK    3  A    between atoms: C_2  and  N_4
REMARK    4  A    between atoms: C_2  and  C_30
REMARK    5  A    between atoms: C_5  and  C_7
REMARK    6  A    between atoms: C_7  and  N_8
REMARK    7  A    between atoms: C_7  and  C_26
REMARK    8  A    between atoms: C_9  and  C_11
REMARK    9  A    between atoms: C_11  and  C_12
REMARK   10  A    between atoms: C_11  and  C_21
REMARK   11  A    between atoms: C_12  and  C_13
REMARK   12  A    between atoms: C_13  and  C_14
REMARK   13  A    between atoms: C_14  and  C_15
REMARK   14  A    between atoms: C_21  and  C_22
REMARK   15  A    between atoms: N_24  and  O_25
REMARK   16  A    between atoms: C_26  and  C_27
REMARK   17  A    between atoms: C_26  and  C_28
REMARK   18  A    between atoms: C_26  and  C_29
REMARK                            x       y       z     vdW  Elec       q    Type
REMARK                         _______ _______ _______ _____ _____    ______ ____
ROOT
ATOM      1  N   UNL     1       4.288   5.849  18.923  0.00  0.00    +0.000 N 
ATOM      2  C   UNL     1       5.063   6.252  17.872  0.00  0.00    +0.000 C 
ATOM      3  O   UNL     1       4.553   6.572  16.801  0.00  0.00    +0.000 OA
ATOM      4  H   UNL     1       4.717   5.484  19.756  0.00  0.00    +0.000 HD
ENDROOT
BRANCH   1   5
ATOM      5  C   UNL     1       2.831   5.721  18.873  0.00  0.00    +0.000 C 
BRANCH   5   7
ATOM      6  N   UNL     1       1.723   7.794  19.743  0.00  0.00    +0.000 N 
ATOM      7  C   UNL     1       2.191   6.528  20.039  0.00  0.00    +0.000 C 
ATOM      8  O   UNL     1       2.047   6.047  21.159  0.00  0.00    +0.000 OA
ATOM      9  H   UNL     1       1.880   8.147  18.802  0.00  0.00    +0.000 HD
BRANCH   6  11
ATOM     10  C   UNL     1      -0.253   7.900  21.232  0.00  0.00    +0.000 C 
ATOM     11  C   UNL     1       1.022   8.632  20.746  0.00  0.00    +0.000 C 
ATOM     12  C   UNL     1       1.991   8.881  21.932  0.00  0.00    +0.000 C 
BRANCH  11  13
ATOM     13  C   UNL     1       0.560   9.985  20.145  0.00  0.00    +0.000 A 
ATOM     14  C   UNL     1       1.296  10.645  19.146  0.00  0.00    +0.000 A 
ATOM     15  C   UNL     1       0.893  11.883  18.628  0.00  0.00    +0.000 A 
ATOM     16  C   UNL     1      -0.257  12.486  19.107  0.00  0.00    +0.000 A 
ATOM     17  C   UNL     1      -0.988  11.870  20.114  0.00  0.00    +0.000 A 
ATOM     18  C   UNL     1      -0.585  10.639  20.639  0.00  0.00    +0.000 A 
ENDBRANCH  11  13
ENDBRANCH   6  11
ENDBRANCH   5   7
BRANCH   5  19
ATOM     19  C   UNL     1       2.420   4.202  18.894  0.00  0.00    +0.000 C 
ATOM     20  C   UNL     1       1.045   4.036  19.572  0.00  0.00    +0.000 C 
ATOM     21  C   UNL     1       2.305   3.652  17.451  0.00  0.00    +0.000 C 
ATOM     22  C   UNL     1       3.456   3.314  19.624  0.00  0.00    +0.000 C 
ENDBRANCH   5  19
ENDBRANCH   1   5
BRANCH   2  23
ATOM     23  C   UNL     1       6.577   6.345  18.128  0.00  0.00    +0.000 C 
BRANCH  23  24
ATOM     24  C   UNL     1       7.222   7.528  17.374  0.00  0.00    +0.000 C 
BRANCH  24  25
ATOM     25  C   UNL     1       8.163   8.368  18.247  0.00  0.00    +0.000 C 
BRANCH  25  26
ATOM     26  C   UNL     1       8.339   9.790  17.709  0.00  0.00    +0.000 C 
BRANCH  26  27
ATOM     27  C   UNL     1       9.357  10.562  18.516  0.00  0.00    +0.000 A 
ATOM     28  C   UNL     1       9.292  10.600  19.915  0.00  0.00    +0.000 A 
ATOM     29  C   UNL     1      10.207  11.363  20.646  0.00  0.00    +0.000 A 
ATOM     30  C   UNL     1      11.194  12.095  19.989  0.00  0.00    +0.000 A 
ATOM     31  C   UNL     1      11.274  12.056  18.599  0.00  0.00    +0.000 A 
ATOM     32  C   UNL     1      10.361  11.296  17.867  0.00  0.00    +0.000 A 
ENDBRANCH  26  27
ENDBRANCH  25  26
ENDBRANCH  24  25
ENDBRANCH  23  24
BRANCH  23  33
ATOM     33  C   UNL     1       7.290   5.021  17.799  0.00  0.00    +0.000 C 
BRANCH  33  34
ATOM     34  C   UNL     1       7.079   4.532  16.396  0.00  0.00    +0.000 C 
ATOM     35  O   UNL     1       7.745   4.946  15.449  0.00  0.00    +0.000 OA
ATOM     36  N   UNL     1       6.082   3.604  16.243  0.00  0.00    +0.000 N 
ATOM     37  H   UNL     1       5.450   3.293  16.972  0.00  0.00    +0.000 HD
BRANCH  36  38
ATOM     38  O   UNL     1       5.868   3.138  14.938  0.00  0.00    +0.000 OA
ATOM     39  H   UNL     1       6.471   2.366  14.885  0.00  0.00    +0.000 HD
ENDBRANCH  36  38
ENDBRANCH  33  34
ENDBRANCH  23  33
ENDBRANCH   2  23
TORSDOF 13
ENDMDL
MODEL 5
REMARK VINA RESULT:      -7.3      3.469      8.518
REMARK  Name = 
REMARK  18 active torsions:
REMARK  status: ('A' for Active; 'I' for Inactive)
REMARK    1  A    between atoms: C_1  and  C_2
REMARK    2  A    between atoms: C_2  and  C_3
REMARK    3  A    between atoms: C_2  and  N_4
REMARK    4  A    between atoms: C_2  and  C_30
REMARK    5  A    between atoms: C_5  and  C_7
REMARK    6  A    between atoms: C_7  and  N_8
REMARK    7  A    between atoms: C_7  and  C_26
REMARK    8  A    between atoms: C_9  and  C_11
REMARK    9  A    between atoms: C_11  and  C_12
REMARK   10  A    between atoms: C_11  and  C_21
REMARK   11  A    between atoms: C_12  and  C_13
REMARK   12  A    between atoms: C_13  and  C_14
REMARK   13  A    between atoms: C_14  and  C_15
REMARK   14  A    between atoms: C_21  and  C_22
REMARK   15  A    between atoms: N_24  and  O_25
REMARK   16  A    between atoms: C_26  and  C_27
REMARK   17  A    between atoms: C_26  and  C_28
REMARK   18  A    between atoms: C_26  and  C_29
REMARK                            x       y       z     vdW  Elec       q    Type
REMARK                         _______ _______ _______ _____ _____    ______ ____
ROOT
ATOM      1  N   UNL     1       4.337   6.524  18.353  0.00  0.00    +0.000 N 
ATOM      2  C   UNL     1       5.246   6.636  17.339  0.00  0.00    +0.000 C 
ATOM      3  O   UNL     1       4.877   6.808  16.179  0.00  0.00    +0.000 OA
ATOM      4  H   UNL     1       4.642   6.274  19.278  0.00  0.00    +0.000 HD
ENDROOT
BRANCH   1   5
ATOM      5  C   UNL     1       2.887   6.552  18.167  0.00  0.00    +0.000 C 
BRANCH   5   7
ATOM      6  N   UNL     1       1.597   8.692  18.382  0.00  0.00    +0.000 N 
ATOM      7  C   UNL     1       2.266   7.680  19.043  0.00  0.00    +0.000 C 
ATOM      8  O   UNL     1       2.309   7.647  20.269  0.00  0.00    +0.000 OA
ATOM      9  H   UNL     1       1.603   8.675  17.365  0.00  0.00    +0.000 HD
BRANCH   6  11
ATOM     10  C   UNL     1       0.489   9.286  20.516  0.00  0.00    +0.000 C 
ATOM     11  C   UNL     1       0.895   9.779  19.105  0.00  0.00    +0.000 C 
ATOM     12  C   UNL     1       1.857  10.991  19.210  0.00  0.00    +0.000 C 
BRANCH  11  13
ATOM     13  C   UNL     1      -0.413  10.200  18.385  0.00  0.00    +0.000 A 
ATOM     14  C   UNL     1      -1.187  11.289  18.824  0.00  0.00    +0.000 A 
ATOM     15  C   UNL     1      -2.384  11.646  18.191  0.00  0.00    +0.000 A 
ATOM     16  C   UNL     1      -2.833  10.914  17.106  0.00  0.00    +0.000 A 
ATOM     17  C   UNL     1      -2.103   9.815  16.668  0.00  0.00    +0.000 A 
ATOM     18  C   UNL     1      -0.912   9.450  17.302  0.00  0.00    +0.000 A 
ENDBRANCH  11  13
ENDBRANCH   6  11
ENDBRANCH   5   7
BRANCH   5  19
ATOM     19  C   UNL     1       2.273   5.139  18.481  0.00  0.00    +0.000 C 
ATOM     20  C   UNL     1       1.649   5.134  19.892  0.00  0.00    +0.000 C 
ATOM     21  C   UNL     1       1.153   4.797  17.468  0.00  0.00    +0.000 C 
ATOM     22  C   UNL     1       3.317   4.000  18.385  0.00  0.00    +0.000 C 
ENDBRANCH   5  19
ENDBRANCH   1   5
BRANCH   2  23
ATOM     23  C   UNL     1       6.732   6.606  17.738  0.00  0.00    +0.000 C 
BRANCH  23  24
ATOM     24  C   UNL     1       7.518   7.795  17.144  0.00  0.00    +0.000 C 
BRANCH  24  25
ATOM     25  C   UNL     1       8.280   8.609  18.197  0.00  0.00    +0.000 C 
BRANCH  25  26
ATOM     26  C   UNL     1       8.283  10.107  17.882  0.00  0.00    +0.000 C 
BRANCH  26  27
ATOM     27  C   UNL     1       9.425  10.813  18.575  0.00  0.00    +0.000 A 
ATOM     28  C   UNL     1      10.529  11.284  17.851  0.00  0.00    +0.000 A 
ATOM     29  C   UNL     1      11.604  11.887  18.512  0.00  0.00    +0.000 A 
ATOM     30  C   UNL     1      11.587  12.025  19.898  0.00  0.00    +0.000 A 
ATOM     31  C   UNL     1      10.490  11.570  20.626  0.00  0.00    +0.000 A 
ATOM     32  C   UNL     1       9.416  10.967  19.969  0.00  0.00    +0.000 A 
ENDBRANCH  26  27
ENDBRANCH  25  26
ENDBRANCH  24  25
ENDBRANCH  23  24
BRANCH  23  33
ATOM     33  C   UNL     1       7.391   5.265  17.368  0.00  0.00    +0.000 C 
BRANCH  33  34
ATOM     34  C   UNL     1       6.944   4.692  16.054  0.00  0.00    +0.000 C 
ATOM     35  O   UNL     1       6.175   3.736  15.982  0.00  0.00    +0.000 OA
ATOM     36  N   UNL     1       7.466   5.302  14.942  0.00  0.00    +0.000 N 
ATOM     37  H   UNL     1       8.165   6.035  14.947  0.00  0.00    +0.000 HD
BRANCH  36  38
ATOM     38  O   UNL     1       7.062   4.778  13.706  0.00  0.00    +0.000 OA
ATOM     39  H   UNL     1       6.091   4.917  13.721  0.00  0.00    +0.000 HD
ENDBRANCH  36  38
ENDBRANCH  33  34
ENDBRANCH  23  33
ENDBRANCH   2  23
TORSDOF 13
ENDMDL
MODEL 6
REMARK VINA RESULT:      -7.3      1.848      2.734
REMARK  Name = 
REMARK  18 active torsions:
REMARK  status: ('A' for Active; 'I' for Inactive)
REMARK    1  A    between atoms: C_1  and  C_2
REMARK    2  A    between atoms: C_2  and  C_3
REMARK    3  A    between atoms: C_2  and  N_4
REMARK    4  A    between atoms: C_2  and  C_30
REMARK    5  A    between atoms: C_5  and  C_7
REMARK    6  A    between atoms: C_7  and  N_8
REMARK    7  A    between atoms: C_7  and  C_26
REMARK    8  A    between atoms: C_9  and  C_11
REMARK    9  A    between atoms: C_11  and  C_12
REMARK   10  A    between atoms: C_11  and  C_21
REMARK   11  A    between atoms: C_12  and  C_13
REMARK   12  A    between atoms: C_13  and  C_14
REMARK   13  A    between atoms: C_14  and  C_15
REMARK   14  A    between atoms: C_21  and  C_22
REMARK   15  A    between atoms: N_24  and  O_25
REMARK   16  A    between atoms: C_26  and  C_27
REMARK   17  A    between atoms: C_26  and  C_28
REMARK   18  A    between atoms: C_26  and  C_29
REMARK                            x       y       z     vdW  Elec       q    Type
REMARK                         _______ _______ _______ _____ _____    ______ ____
ROOT
ATOM      1  N   UNL     1       2.878   6.142  19.326  0.00  0.00    +0.000 N 
ATOM      2  C   UNL     1       2.035   6.711  20.238  0.00  0.00    +0.000 C 
ATOM      3  O   UNL     1       1.613   6.065  21.194  0.00  0.00    +0.000 OA
ATOM      4  H   UNL     1       3.129   6.641  18.490  0.00  0.00    +0.000 HD
ENDROOT
BRANCH   1   5
ATOM      5  C   UNL     1       3.318   4.747  19.367  0.00  0.00    +0.000 C 
BRANCH   5   7
ATOM      6  N   UNL     1       5.079   5.479  17.740  0.00  0.00    +0.000 N 
ATOM      7  C   UNL     1       4.754   4.630  18.781  0.00  0.00    +0.000 C 
ATOM      8  O   UNL     1       5.589   3.866  19.256  0.00  0.00    +0.000 OA
ATOM      9  H   UNL     1       4.345   6.082  17.378  0.00  0.00    +0.000 HD
BRANCH   6  11
ATOM     10  C   UNL     1       6.934   6.986  17.092  0.00  0.00    +0.000 C 
ATOM     11  C   UNL     1       6.438   5.520  17.149  0.00  0.00    +0.000 C 
ATOM     12  C   UNL     1       7.379   4.662  18.034  0.00  0.00    +0.000 C 
BRANCH  11  13
ATOM     13  C   UNL     1       6.449   4.988  15.691  0.00  0.00    +0.000 A 
ATOM     14  C   UNL     1       7.511   5.256  14.810  0.00  0.00    +0.000 A 
ATOM     15  C   UNL     1       7.503   4.801  13.485  0.00  0.00    +0.000 A 
ATOM     16  C   UNL     1       6.424   4.071  13.016  0.00  0.00    +0.000 A 
ATOM     17  C   UNL     1       5.348   3.817  13.856  0.00  0.00    +0.000 A 
ATOM     18  C   UNL     1       5.348   4.276  15.177  0.00  0.00    +0.000 A 
ENDBRANCH  11  13
ENDBRANCH   6  11
ENDBRANCH   5   7
BRANCH   5  19
ATOM     19  C   UNL     1       2.283   3.831  18.616  0.00  0.00    +0.000 C 
ATOM     20  C   UNL     1       1.512   4.656  17.565  0.00  0.00    +0.000 C 
ATOM     21  C   UNL     1       3.013   2.684  17.874  0.00  0.00    +0.000 C 
ATOM     22  C   UNL     1       1.271   3.161  19.576  0.00  0.00    +0.000 C 
ENDBRANCH   5  19
ENDBRANCH   1   5
BRANCH   2  23
ATOM     23  C   UNL     1       1.707   8.201  20.036  0.00  0.00    +0.000 C 
BRANCH  23  24
ATOM     24  C   UNL     1       0.439   8.627  20.808  0.00  0.00    +0.000 C 
BRANCH  24  25
ATOM     25  C   UNL     1       0.638   9.887  21.660  0.00  0.00    +0.000 C 
BRANCH  25  26
ATOM     26  C   UNL     1      -0.416  10.014  22.763  0.00  0.00    +0.000 C 
BRANCH  26  27
ATOM     27  C   UNL     1      -1.057  11.383  22.757  0.00  0.00    +0.000 A 
ATOM     28  C   UNL     1      -0.416  12.479  22.164  0.00  0.00    +0.000 A 
ATOM     29  C   UNL     1      -0.996  13.750  22.213  0.00  0.00    +0.000 A 
ATOM     30  C   UNL     1      -2.218  13.939  22.855  0.00  0.00    +0.000 A 
ATOM     31  C   UNL     1      -2.869  12.854  23.438  0.00  0.00    +0.000 A 
ATOM     32  C   UNL     1      -2.292  11.584  23.391  0.00  0.00    +0.000 A 
ENDBRANCH  26  27
ENDBRANCH  25  26
ENDBRANCH  24  25
ENDBRANCH  23  24
BRANCH  23  33
ATOM     33  C   UNL     1       1.595   8.560  18.543  0.00  0.00    +0.000 C 
BRANCH  33  34
ATOM     34  C   UNL     1       1.102   9.952  18.273  0.00  0.00    +0.000 C 
ATOM     35  O   UNL     1       1.819  10.941  18.414  0.00  0.00    +0.000 OA
ATOM     36  N   UNL     1      -0.206  10.043  17.872  0.00  0.00    +0.000 N 
ATOM     37  H   UNL     1      -0.861   9.272  17.821  0.00  0.00    +0.000 HD
BRANCH  36  38
ATOM     38  O   UNL     1      -0.684  11.337  17.618  0.00  0.00    +0.000 OA
ATOM     39  H   UNL     1      -0.289  11.543  16.744  0.00  0.00    +0.000 HD
ENDBRANCH  36  38
ENDBRANCH  33  34
ENDBRANCH  23  33
ENDBRANCH   2  23
TORSDOF 13
ENDMDL
MODEL 7
REMARK VINA RESULT:      -7.2      3.832     10.113
REMARK  Name = 
REMARK  18 active torsions:
REMARK  status: ('A' for Active; 'I' for Inactive)
REMARK    1  A    between atoms: C_1  and  C_2
REMARK    2  A    between atoms: C_2  and  C_3
REMARK    3  A    between atoms: C_2  and  N_4
REMARK    4  A    between atoms: C_2  and  C_30
REMARK    5  A    between atoms: C_5  and  C_7
REMARK    6  A    between atoms: C_7  and  N_8
REMARK    7  A    between atoms: C_7  and  C_26
REMARK    8  A    between atoms: C_9  and  C_11
REMARK    9  A    between atoms: C_11  and  C_12
REMARK   10  A    between atoms: C_11  and  C_21
REMARK   11  A    between atoms: C_12  and  C_13
REMARK   12  A    between atoms: C_13  and  C_14
REMARK   13  A    between atoms: C_14  and  C_15
REMARK   14  A    between atoms: C_21  and  C_22
REMARK   15  A    between atoms: N_24  and  O_25
REMARK   16  A    between atoms: C_26  and  C_27
REMARK   17  A    between atoms: C_26  and  C_28
REMARK   18  A    between atoms: C_26  and  C_29
REMARK                            x       y       z     vdW  Elec       q    Type
REMARK                         _______ _______ _______ _____ _____    ______ ____
ROOT
ATOM      1  N   UNL     1      -0.567  10.303  18.634  0.00  0.00    +0.000 N 
ATOM      2  C   UNL     1       0.785  10.265  18.829  0.00  0.00    +0.000 C 
ATOM      3  O   UNL     1       1.480  11.253  18.608  0.00  0.00    +0.000 OA
ATOM      4  H   UNL     1      -1.112   9.461  18.711  0.00  0.00    +0.000 HD
ENDROOT
BRANCH   1   5
ATOM      5  C   UNL     1      -1.295  11.464  18.122  0.00  0.00    +0.000 C 
BRANCH   5   7
ATOM      6  N   UNL     1      -2.004  12.222  20.404  0.00  0.00    +0.000 N 
ATOM      7  C   UNL     1      -1.375  12.562  19.221  0.00  0.00    +0.000 C 
ATOM      8  O   UNL     1      -0.851  13.663  19.079  0.00  0.00    +0.000 OA
ATOM      9  H   UNL     1      -2.430  11.301  20.462  0.00  0.00    +0.000 HD
BRANCH   6  11
ATOM     10  C   UNL     1      -0.867  12.909  22.495  0.00  0.00    +0.000 C 
ATOM     11  C   UNL     1      -2.075  13.151  21.557  0.00  0.00    +0.000 C 
ATOM     12  C   UNL     1      -2.056  14.603  21.011  0.00  0.00    +0.000 C 
BRANCH  11  13
ATOM     13  C   UNL     1      -3.354  12.920  22.405  0.00  0.00    +0.000 A 
ATOM     14  C   UNL     1      -4.642  13.097  21.871  0.00  0.00    +0.000 A 
ATOM     15  C   UNL     1      -5.794  12.918  22.649  0.00  0.00    +0.000 A 
ATOM     16  C   UNL     1      -5.675  12.563  23.981  0.00  0.00    +0.000 A 
ATOM     17  C   UNL     1      -4.414  12.410  24.542  0.00  0.00    +0.000 A 
ATOM     18  C   UNL     1      -3.262  12.595  23.772  0.00  0.00    +0.000 A 
ENDBRANCH  11  13
ENDBRANCH   6  11
ENDBRANCH   5   7
BRANCH   5  19
ATOM     19  C   UNL     1      -2.713  11.028  17.600  0.00  0.00    +0.000 C 
ATOM     20  C   UNL     1      -3.802  11.937  18.205  0.00  0.00    +0.000 C 
ATOM     21  C   UNL     1      -2.788  11.162  16.059  0.00  0.00    +0.000 C 
ATOM     22  C   UNL     1      -3.042   9.552  17.931  0.00  0.00    +0.000 C 
ENDBRANCH   5  19
ENDBRANCH   1   5
BRANCH   2  23
ATOM     23  C   UNL     1       1.362   8.957  19.398  0.00  0.00    +0.000 C 
BRANCH  23  24
ATOM     24  C   UNL     1       1.581   7.893  18.302  0.00  0.00    +0.000 C 
BRANCH  24  25
ATOM     25  C   UNL     1       3.022   7.369  18.239  0.00  0.00    +0.000 C 
BRANCH  25  26
ATOM     26  C   UNL     1       3.334   6.389  19.372  0.00  0.00    +0.000 C 
BRANCH  26  27
ATOM     27  C   UNL     1       2.428   5.181  19.320  0.00  0.00    +0.000 A 
ATOM     28  C   UNL     1       1.729   4.752  20.456  0.00  0.00    +0.000 A 
ATOM     29  C   UNL     1       0.937   3.600  20.407  0.00  0.00    +0.000 A 
ATOM     30  C   UNL     1       0.837   2.867  19.226  0.00  0.00    +0.000 A 
ATOM     31  C   UNL     1       1.520   3.291  18.088  0.00  0.00    +0.000 A 
ATOM     32  C   UNL     1       2.311   4.439  18.134  0.00  0.00    +0.000 A 
ENDBRANCH  26  27
ENDBRANCH  25  26
ENDBRANCH  24  25
ENDBRANCH  23  24
BRANCH  23  33
ATOM     33  C   UNL     1       0.493   8.404  20.542  0.00  0.00    +0.000 C 
BRANCH  33  34
ATOM     34  C   UNL     1       0.651   9.126  21.849  0.00  0.00    +0.000 C 
ATOM     35  O   UNL     1       1.691   9.703  22.159  0.00  0.00    +0.000 OA
ATOM     36  N   UNL     1      -0.441   9.083  22.678  0.00  0.00    +0.000 N 
ATOM     37  H   UNL     1      -1.288   8.553  22.508  0.00  0.00    +0.000 HD
BRANCH  36  38
ATOM     38  O   UNL     1      -0.310   9.748  23.905  0.00  0.00    +0.000 OA
ATOM     39  H   UNL     1       0.611   9.533  24.168  0.00  0.00    +0.000 HD
ENDBRANCH  36  38
ENDBRANCH  33  34
ENDBRANCH  23  33
ENDBRANCH   2  23
TORSDOF 13
ENDMDL
MODEL 8
REMARK VINA RESULT:      -7.2      1.006      1.307
REMARK  Name = 
REMARK  18 active torsions:
REMARK  status: ('A' for Active; 'I' for Inactive)
REMARK    1  A    between atoms: C_1  and  C_2
REMARK    2  A    between atoms: C_2  and  C_3
REMARK    3  A    between atoms: C_2  and  N_4
REMARK    4  A    between atoms: C_2  and  C_30
REMARK    5  A    between atoms: C_5  and  C_7
REMARK    6  A    between atoms: C_7  and  N_8
REMARK    7  A    between atoms: C_7  and  C_26
REMARK    8  A    between atoms: C_9  and  C_11
REMARK    9  A    between atoms: C_11  and  C_12
REMARK   10  A    between atoms: C_11  and  C_21
REMARK   11  A    between atoms: C_12  and  C_13
REMARK   12  A    between atoms: C_13  and  C_14
REMARK   13  A    between atoms: C_14  and  C_15
REMARK   14  A    between atoms: C_21  and  C_22
REMARK   15  A    between atoms: N_24  and  O_25
REMARK   16  A    between atoms: C_26  and  C_27
REMARK   17  A    between atoms: C_26  and  C_28
REMARK   18  A    between atoms: C_26  and  C_29
REMARK                            x       y       z     vdW  Elec       q    Type
REMARK                         _______ _______ _______ _____ _____    ______ ____
ROOT
ATOM      1  N   UNL     1       2.722   6.120  19.310  0.00  0.00    +0.000 N 
ATOM      2  C   UNL     1       1.905   6.748  20.208  0.00  0.00    +0.000 C 
ATOM      3  O   UNL     1       1.576   6.194  21.254  0.00  0.00    +0.000 OA
ATOM      4  H   UNL     1       2.896   6.535  18.410  0.00  0.00    +0.000 HD
ENDROOT
BRANCH   1   5
ATOM      5  C   UNL     1       3.235   4.760  19.473  0.00  0.00    +0.000 C 
BRANCH   5   7
ATOM      6  N   UNL     1       5.002   5.555  17.881  0.00  0.00    +0.000 N 
ATOM      7  C   UNL     1       4.674   4.667  18.888  0.00  0.00    +0.000 C 
ATOM      8  O   UNL     1       5.508   3.886  19.336  0.00  0.00    +0.000 OA
ATOM      9  H   UNL     1       4.268   6.172  17.540  0.00  0.00    +0.000 HD
BRANCH   6  11
ATOM     10  C   UNL     1       6.815   7.098  17.202  0.00  0.00    +0.000 C 
ATOM     11  C   UNL     1       6.362   5.620  17.297  0.00  0.00    +0.000 C 
ATOM     12  C   UNL     1       7.322   4.816  18.211  0.00  0.00    +0.000 C 
BRANCH  11  13
ATOM     13  C   UNL     1       6.398   5.048  15.855  0.00  0.00    +0.000 A 
ATOM     14  C   UNL     1       7.457   5.324  14.972  0.00  0.00    +0.000 A 
ATOM     15  C   UNL     1       7.471   4.832  13.660  0.00  0.00    +0.000 A 
ATOM     16  C   UNL     1       6.418   4.056  13.206  0.00  0.00    +0.000 A 
ATOM     17  C   UNL     1       5.345   3.792  14.048  0.00  0.00    +0.000 A 
ATOM     18  C   UNL     1       5.324   4.288  15.355  0.00  0.00    +0.000 A 
ENDBRANCH  11  13
ENDBRANCH   6  11
ENDBRANCH   5   7
BRANCH   5  19
ATOM     19  C   UNL     1       2.249   3.726  18.816  0.00  0.00    +0.000 C 
ATOM     20  C   UNL     1       1.507   4.381  17.632  0.00  0.00    +0.000 C 
ATOM     21  C   UNL     1       3.029   2.506  18.268  0.00  0.00    +0.000 C 
ATOM     22  C   UNL     1       1.209   3.171  19.820  0.00  0.00    +0.000 C 
ENDBRANCH   5  19
ENDBRANCH   1   5
BRANCH   2  23
ATOM     23  C   UNL     1       1.488   8.190  19.868  0.00  0.00    +0.000 C 
BRANCH  23  24
ATOM     24  C   UNL     1       1.980   8.624  18.471  0.00  0.00    +0.000 C 
BRANCH  24  25
ATOM     25  C   UNL     1       1.417   9.977  18.018  0.00  0.00    +0.000 C 
BRANCH  25  26
ATOM     26  C   UNL     1      -0.105  10.051  18.166  0.00  0.00    +0.000 C 
BRANCH  26  27
ATOM     27  C   UNL     1      -0.536  11.371  18.764  0.00  0.00    +0.000 A 
ATOM     28  C   UNL     1       0.314  12.484  18.747  0.00  0.00    +0.000 A 
ATOM     29  C   UNL     1      -0.077  13.682  19.352  0.00  0.00    +0.000 A 
ATOM     30  C   UNL     1      -1.318  13.780  19.979  0.00  0.00    +0.000 A 
ATOM     31  C   UNL     1      -2.175  12.681  19.992  0.00  0.00    +0.000 A 
ATOM     32  C   UNL     1      -1.787  11.484  19.390  0.00  0.00    +0.000 A 
ENDBRANCH  26  27
ENDBRANCH  25  26
ENDBRANCH  24  25
ENDBRANCH  23  24
BRANCH  23  33
ATOM     33  C   UNL     1       1.949   9.183  20.951  0.00  0.00    +0.000 C 
BRANCH  33  34
ATOM     34  C   UNL     1       0.841   9.739  21.798  0.00  0.00    +0.000 C 
ATOM     35  O   UNL     1       0.657  10.947  21.929  0.00  0.00    +0.000 OA
ATOM     36  N   UNL     1       0.060   8.804  22.427  0.00  0.00    +0.000 N 
ATOM     37  H   UNL     1       0.219   7.803  22.422  0.00  0.00    +0.000 HD
BRANCH  36  38
ATOM     38  O   UNL     1      -0.978   9.305  23.226  0.00  0.00    +0.000 OA
ATOM     39  H   UNL     1      -1.669   9.527  22.565  0.00  0.00    +0.000 HD
ENDBRANCH  36  38
ENDBRANCH  33  34
ENDBRANCH  23  33
ENDBRANCH   2  23
TORSDOF 13
ENDMDL
MODEL 9
REMARK VINA RESULT:      -7.1      3.085      8.236
REMARK  Name = 
REMARK  18 active torsions:
REMARK  status: ('A' for Active; 'I' for Inactive)
REMARK    1  A    between atoms: C_1  and  C_2
REMARK    2  A    between atoms: C_2  and  C_3
REMARK    3  A    between atoms: C_2  and  N_4
REMARK    4  A    between atoms: C_2  and  C_30
REMARK    5  A    between atoms: C_5  and  C_7
REMARK    6  A    between atoms: C_7  and  N_8
REMARK    7  A    between atoms: C_7  and  C_26
REMARK    8  A    between atoms: C_9  and  C_11
REMARK    9  A    between atoms: C_11  and  C_12
REMARK   10  A    between atoms: C_11  and  C_21
REMARK   11  A    between atoms: C_12  and  C_13
REMARK   12  A    between atoms: C_13  and  C_14
REMARK   13  A    between atoms: C_14  and  C_15
REMARK   14  A    between atoms: C_21  and  C_22
REMARK   15  A    between atoms: N_24  and  O_25
REMARK   16  A    between atoms: C_26  and  C_27
REMARK   17  A    between atoms: C_26  and  C_28
REMARK   18  A    between atoms: C_26  and  C_29
REMARK                            x       y       z     vdW  Elec       q    Type
REMARK                         _______ _______ _______ _____ _____    ______ ____
ROOT
ATOM      1  N   UNL     1       4.074   6.004  19.023  0.00  0.00    +0.000 N 
ATOM      2  C   UNL     1       4.870   6.236  17.936  0.00  0.00    +0.000 C 
ATOM      3  O   UNL     1       4.378   6.440  16.829  0.00  0.00    +0.000 OA
ATOM      4  H   UNL     1       4.485   5.729  19.899  0.00  0.00    +0.000 HD
ENDROOT
BRANCH   1   5
ATOM      5  C   UNL     1       2.614   5.934  18.976  0.00  0.00    +0.000 C 
BRANCH   5   7
ATOM      6  N   UNL     1       1.528   8.045  19.782  0.00  0.00    +0.000 N 
ATOM      7  C   UNL     1       2.009   6.796  20.122  0.00  0.00    +0.000 C 
ATOM      8  O   UNL     1       1.902   6.369  21.268  0.00  0.00    +0.000 OA
ATOM      9  H   UNL     1       1.653   8.353  18.820  0.00  0.00    +0.000 HD
BRANCH   6  11
ATOM     10  C   UNL     1      -0.389   8.213  21.340  0.00  0.00    +0.000 C 
ATOM     11  C   UNL     1       0.857   8.929  20.765  0.00  0.00    +0.000 C 
ATOM     12  C   UNL     1       1.868   9.252  21.896  0.00  0.00    +0.000 C 
BRANCH  11  13
ATOM     13  C   UNL     1       0.355  10.243  20.111  0.00  0.00    +0.000 A 
ATOM     14  C   UNL     1      -0.725  10.261  19.211  0.00  0.00    +0.000 A 
ATOM     15  C   UNL     1      -1.155  11.444  18.597  0.00  0.00    +0.000 A 
ATOM     16  C   UNL     1      -0.505  12.636  18.870  0.00  0.00    +0.000 A 
ATOM     17  C   UNL     1       0.584  12.643  19.733  0.00  0.00    +0.000 A 
ATOM     18  C   UNL     1       1.021  11.462  20.341  0.00  0.00    +0.000 A 
ENDBRANCH  11  13
ENDBRANCH   6  11
ENDBRANCH   5   7
BRANCH   5  19
ATOM     19  C   UNL     1       2.141   4.435  19.036  0.00  0.00    +0.000 C 
ATOM     20  C   UNL     1       1.693   3.965  17.636  0.00  0.00    +0.000 C 
ATOM     21  C   UNL     1       3.303   3.518  19.492  0.00  0.00    +0.000 C 
ATOM     22  C   UNL     1       0.984   4.213  20.040  0.00  0.00    +0.000 C 
ENDBRANCH   5  19
ENDBRANCH   1   5
BRANCH   2  23
ATOM     23  C   UNL     1       6.386   6.295  18.192  0.00  0.00    +0.000 C 
BRANCH  23  24
ATOM     24  C   UNL     1       7.078   7.375  17.333  0.00  0.00    +0.000 C 
BRANCH  24  25
ATOM     25  C   UNL     1       8.070   8.240  18.123  0.00  0.00    +0.000 C 
BRANCH  25  26
ATOM     26  C   UNL     1       8.380   9.560  17.415  0.00  0.00    +0.000 C 
BRANCH  26  27
ATOM     27  C   UNL     1       8.917  10.591  18.381  0.00  0.00    +0.000 A 
ATOM     28  C   UNL     1       9.349  10.224  19.663  0.00  0.00    +0.000 A 
ATOM     29  C   UNL     1       9.792  11.195  20.566  0.00  0.00    +0.000 A 
ATOM     30  C   UNL     1       9.808  12.539  20.199  0.00  0.00    +0.000 A 
ATOM     31  C   UNL     1       9.391  12.913  18.923  0.00  0.00    +0.000 A 
ATOM     32  C   UNL     1       8.948  11.946  18.020  0.00  0.00    +0.000 A 
ENDBRANCH  26  27
ENDBRANCH  25  26
ENDBRANCH  24  25
ENDBRANCH  23  24
BRANCH  23  33
ATOM     33  C   UNL     1       7.048   4.920  17.994  0.00  0.00    +0.000 C 
BRANCH  33  34
ATOM     34  C   UNL     1       7.050   4.428  16.575  0.00  0.00    +0.000 C 
ATOM     35  O   UNL     1       7.947   4.710  15.784  0.00  0.00    +0.000 OA
ATOM     36  N   UNL     1       5.974   3.655  16.222  0.00  0.00    +0.000 N 
ATOM     37  H   UNL     1       5.169   3.464  16.807  0.00  0.00    +0.000 HD
BRANCH  36  38
ATOM     38  O   UNL     1       5.957   3.190  14.899  0.00  0.00    +0.000 OA
ATOM     39  H   UNL     1       6.600   2.449  14.925  0.00  0.00    +0.000 HD
ENDBRANCH  36  38
ENDBRANCH  33  34
ENDBRANCH  23  33
ENDBRANCH   2  23
TORSDOF 13
ENDMDL
