MODEL 1
REMARK VINA RESULT:      -9.9      0.000      0.000
REMARK  Name = 
REMARK  6 active torsions:
REMARK  status: ('A' for Active; 'I' for Inactive)
REMARK    1  A    between atoms: C_1  and  O_2
REMARK    2  A    between atoms: O_2  and  C_3
REMARK    3  A    between atoms: C_7  and  C_8
REMARK    4  A    between atoms: N_14  and  C_15
REMARK    5  A    between atoms: C_15  and  C_16
REMARK    6  A    between atoms: C_25  and  C_26
REMARK                            x       y       z     vdW  Elec       q    Type
REMARK                         _______ _______ _______ _____ _____    ______ ____
ROOT
ATOM      1  C   UNL     1       5.914   5.215  15.954  0.00  0.00    +0.000 A 
ATOM      2  C   UNL     1       6.872   5.281  16.986  0.00  0.00    +0.000 A 
ATOM      3  C   UNL     1       6.496   5.085  18.310  0.00  0.00    +0.000 A 
ATOM      4  C   UNL     1       5.144   4.953  18.581  0.00  0.00    +0.000 A 
ATOM      5  C   UNL     1       4.228   5.502  17.699  0.00  0.00    +0.000 A 
ATOM      6  C   UNL     1       4.572   5.438  16.340  0.00  0.00    +0.000 A 
ATOM      7  N   UNL     1       2.871   5.646  18.139  0.00  0.00    +0.000 N 
ATOM      8  C   UNL     1       2.243   4.389  18.015  0.00  0.00    +0.000 C 
ATOM      9  O   UNL     1       1.350   4.185  17.197  0.00  0.00    +0.000 OA
ATOM     10  C   UNL     1       2.722   3.364  19.055  0.00  0.00    +0.000 C 
ATOM     11  C   UNL     1       2.147   1.997  18.704  0.00  0.00    +0.000 C 
ATOM     12  S   UNL     1       4.583   3.359  19.359  0.00  0.00    +0.000 S 
ENDROOT
BRANCH   1  17
ATOM     13  C   UNL     1       5.886   3.483  12.538  0.00  0.00    +0.000 A 
ATOM     14  C   UNL     1       7.049   3.978  11.961  0.00  0.00    +0.000 A 
ATOM     15  C   UNL     1       7.836   4.906  12.648  0.00  0.00    +0.000 A 
ATOM     16  C   UNL     1       7.485   5.313  13.942  0.00  0.00    +0.000 A 
ATOM     17  C   UNL     1       6.341   4.809  14.578  0.00  0.00    +0.000 A 
ATOM     18  C   UNL     1       5.532   3.924  13.815  0.00  0.00    +0.000 A 
BRANCH  13  20
ATOM     19  C   UNL     1       4.001   3.072  11.139  0.00  0.00    +0.000 C 
ATOM     20  O   UNL     1       5.183   2.593  11.772  0.00  0.00    +0.000 OA
ENDBRANCH  13  20
ENDBRANCH   1  17
BRANCH   7  21
ATOM     21  C   UNL     1       2.713   6.204  19.518  0.00  0.00    +0.000 C 
BRANCH  21  22
ATOM     22  C   UNL     1       2.084   7.565  19.662  0.00  0.00    +0.000 A 
ATOM     23  C   UNL     1       1.953   8.434  18.573  0.00  0.00    +0.000 A 
ATOM     24  C   UNL     1       1.189   9.596  18.693  0.00  0.00    +0.000 A 
ATOM     25  C   UNL     1       0.552   9.887  19.894  0.00  0.00    +0.000 A 
ATOM     26  F   UNL     1      -0.216  10.980  19.987  0.00  0.00    +0.000 F 
ATOM     27  C   UNL     1       0.678   9.047  20.993  0.00  0.00    +0.000 A 
ATOM     28  C   UNL     1       1.442   7.893  20.876  0.00  0.00    +0.000 A 
ENDBRANCH  21  22
ENDBRANCH   7  21
TORSDOF 4
ENDMDL
MODEL 2
REMARK VINA RESULT:      -8.9      3.475      8.581
REMARK  Name = 
REMARK  6 active torsions:
REMARK  status: ('A' for Active; 'I' for Inactive)
REMARK    1  A    between atoms: C_1  and  O_2
REMARK    2  A    between atoms: O_2  and  C_3
REMARK    3  A    between atoms: C_7  and  C_8
REMARK    4  A    between atoms: N_14  and  C_15
REMARK    5  A    between atoms: C_15  and  C_16
REMARK    6  A    between atoms: C_25  and  C_26
REMARK                            x       y       z     vdW  Elec       q    Type
REMARK                         _______ _______ _______ _____ _____    ______ ____
ROOT
ATOM      1  C   UNL     1       2.359   7.069  18.836  0.00  0.00    +0.000 A 
ATOM      2  C   UNL     1       2.054   5.803  19.378  0.00  0.00    +0.000 A 
ATOM      3  C   UNL     1       2.956   4.752  19.262  0.00  0.00    +0.000 A 
ATOM      4  C   UNL     1       4.090   4.959  18.493  0.00  0.00    +0.000 A 
ATOM      5  C   UNL     1       4.059   5.927  17.503  0.00  0.00    +0.000 A 
ATOM      6  C   UNL     1       3.320   7.083  17.798  0.00  0.00    +0.000 A 
ATOM      7  N   UNL     1       5.099   5.915  16.516  0.00  0.00    +0.000 N 
ATOM      8  C   UNL     1       6.237   6.527  17.082  0.00  0.00    +0.000 C 
ATOM      9  O   UNL     1       6.662   7.608  16.684  0.00  0.00    +0.000 OA
ATOM     10  C   UNL     1       6.919   5.664  18.156  0.00  0.00    +0.000 C 
ATOM     11  C   UNL     1       7.996   6.493  18.845  0.00  0.00    +0.000 C 
ATOM     12  S   UNL     1       5.736   4.801  19.344  0.00  0.00    +0.000 S 
ENDROOT
BRANCH   1  17
ATOM     13  C   UNL     1       0.986   9.469  21.487  0.00  0.00    +0.000 A 
ATOM     14  C   UNL     1       0.634  10.570  20.716  0.00  0.00    +0.000 A 
ATOM     15  C   UNL     1       0.872  10.569  19.339  0.00  0.00    +0.000 A 
ATOM     16  C   UNL     1       1.425   9.443  18.715  0.00  0.00    +0.000 A 
ATOM     17  C   UNL     1       1.758   8.295  19.448  0.00  0.00    +0.000 A 
ATOM     18  C   UNL     1       1.568   8.367  20.855  0.00  0.00    +0.000 A 
BRANCH  13  20
ATOM     19  C   UNL     1      -0.565  10.054  23.199  0.00  0.00    +0.000 C 
ATOM     20  O   UNL     1       0.725   9.581  22.825  0.00  0.00    +0.000 OA
ENDBRANCH  13  20
ENDBRANCH   1  17
BRANCH   7  21
ATOM     21  C   UNL     1       5.421   4.565  15.958  0.00  0.00    +0.000 C 
BRANCH  21  22
ATOM     22  C   UNL     1       5.949   4.489  14.550  0.00  0.00    +0.000 A 
ATOM     23  C   UNL     1       7.159   5.088  14.184  0.00  0.00    +0.000 A 
ATOM     24  C   UNL     1       7.718   4.830  12.931  0.00  0.00    +0.000 A 
ATOM     25  C   UNL     1       7.073   3.971  12.047  0.00  0.00    +0.000 A 
ATOM     26  F   UNL     1       7.638   3.694  10.865  0.00  0.00    +0.000 F 
ATOM     27  C   UNL     1       5.864   3.375  12.382  0.00  0.00    +0.000 A 
ATOM     28  C   UNL     1       5.306   3.636  13.627  0.00  0.00    +0.000 A 
ENDBRANCH  21  22
ENDBRANCH   7  21
TORSDOF 4
ENDMDL
MODEL 3
REMARK VINA RESULT:      -8.7      3.406      8.390
REMARK  Name = 
REMARK  6 active torsions:
REMARK  status: ('A' for Active; 'I' for Inactive)
REMARK    1  A    between atoms: C_1  and  O_2
REMARK    2  A    between atoms: O_2  and  C_3
REMARK    3  A    between atoms: C_7  and  C_8
REMARK    4  A    between atoms: N_14  and  C_15
REMARK    5  A    between atoms: C_15  and  C_16
REMARK    6  A    between atoms: C_25  and  C_26
REMARK                            x       y       z     vdW  Elec       q    Type
REMARK                         _______ _______ _______ _____ _____    ______ ____
ROOT
ATOM      1  C   UNL     1       2.553   6.898  18.270  0.00  0.00    +0.000 A 
ATOM      2  C   UNL     1       2.067   5.627  18.638  0.00  0.00    +0.000 A 
ATOM      3  C   UNL     1       2.908   4.520  18.620  0.00  0.00    +0.000 A 
ATOM      4  C   UNL     1       4.184   4.691  18.112  0.00  0.00    +0.000 A 
ATOM      5  C   UNL     1       4.415   5.721  17.215  0.00  0.00    +0.000 A 
ATOM      6  C   UNL     1       3.703   6.908  17.449  0.00  0.00    +0.000 A 
ATOM      7  N   UNL     1       5.632   5.695  16.457  0.00  0.00    +0.000 N 
ATOM      8  C   UNL     1       6.666   6.180  17.285  0.00  0.00    +0.000 C 
ATOM      9  O   UNL     1       7.228   7.249  17.066  0.00  0.00    +0.000 OA
ATOM     10  C   UNL     1       7.061   5.199  18.401  0.00  0.00    +0.000 C 
ATOM     11  C   UNL     1       8.023   5.897  19.354  0.00  0.00    +0.000 C 
ATOM     12  S   UNL     1       5.610   4.353  19.258  0.00  0.00    +0.000 S 
ENDROOT
BRANCH   1  17
ATOM     13  C   UNL     1       0.968   9.274  20.823  0.00  0.00    +0.000 A 
ATOM     14  C   UNL     1       0.711  10.395  20.044  0.00  0.00    +0.000 A 
ATOM     15  C   UNL     1       1.082  10.416  18.697  0.00  0.00    +0.000 A 
ATOM     16  C   UNL     1       1.675   9.292  18.107  0.00  0.00    +0.000 A 
ATOM     17  C   UNL     1       1.915   8.124  18.846  0.00  0.00    +0.000 A 
ATOM     18  C   UNL     1       1.590   8.173  20.228  0.00  0.00    +0.000 A 
BRANCH  13  20
ATOM     19  C   UNL     1      -0.318  10.418  22.473  0.00  0.00    +0.000 C 
ATOM     20  O   UNL     1       0.579   9.366  22.132  0.00  0.00    +0.000 OA
ENDBRANCH  13  20
ENDBRANCH   1  17
BRANCH   7  21
ATOM     21  C   UNL     1       5.978   4.363  15.869  0.00  0.00    +0.000 C 
BRANCH  21  22
ATOM     22  C   UNL     1       6.479   4.326  14.449  0.00  0.00    +0.000 A 
ATOM     23  C   UNL     1       5.826   3.583  13.458  0.00  0.00    +0.000 A 
ATOM     24  C   UNL     1       6.192   3.729  12.119  0.00  0.00    +0.000 A 
ATOM     25  C   UNL     1       7.203   4.618  11.769  0.00  0.00    +0.000 A 
ATOM     26  F   UNL     1       7.517   4.785  10.478  0.00  0.00    +0.000 F 
ATOM     27  C   UNL     1       7.874   5.355  12.735  0.00  0.00    +0.000 A 
ATOM     28  C   UNL     1       7.514   5.207  14.069  0.00  0.00    +0.000 A 
ENDBRANCH  21  22
ENDBRANCH   7  21
TORSDOF 4
ENDMDL
MODEL 4
REMARK VINA RESULT:      -8.7      0.636      1.107
REMARK  Name = 
REMARK  6 active torsions:
REMARK  status: ('A' for Active; 'I' for Inactive)
REMARK    1  A    between atoms: C_1  and  O_2
REMARK    2  A    between atoms: O_2  and  C_3
REMARK    3  A    between atoms: C_7  and  C_8
REMARK    4  A    between atoms: N_14  and  C_15
REMARK    5  A    between atoms: C_15  and  C_16
REMARK    6  A    between atoms: C_25  and  C_26
REMARK                            x       y       z     vdW  Elec       q    Type
REMARK                         _______ _______ _______ _____ _____    ______ ____
ROOT
ATOM      1  C   UNL     1       6.003   5.435  15.614  0.00  0.00    +0.000 A 
ATOM      2  C   UNL     1       7.013   5.796  16.530  0.00  0.00    +0.000 A 
ATOM      3  C   UNL     1       6.762   5.777  17.897  0.00  0.00    +0.000 A 
ATOM      4  C   UNL     1       5.465   5.519  18.309  0.00  0.00    +0.000 A 
ATOM      5  C   UNL     1       4.420   5.790  17.441  0.00  0.00    +0.000 A 
ATOM      6  C   UNL     1       4.674   5.545  16.082  0.00  0.00    +0.000 A 
ATOM      7  N   UNL     1       3.091   5.829  17.977  0.00  0.00    +0.000 N 
ATOM      8  C   UNL     1       2.640   4.498  18.108  0.00  0.00    +0.000 C 
ATOM      9  O   UNL     1       1.731   4.048  17.418  0.00  0.00    +0.000 OA
ATOM     10  C   UNL     1       3.333   3.733  19.247  0.00  0.00    +0.000 C 
ATOM     11  C   UNL     1       2.934   2.264  19.168  0.00  0.00    +0.000 C 
ATOM     12  S   UNL     1       5.192   4.018  19.374  0.00  0.00    +0.000 S 
ENDROOT
BRANCH   1  17
ATOM     13  C   UNL     1       5.813   3.383  12.385  0.00  0.00    +0.000 A 
ATOM     14  C   UNL     1       7.006   3.726  11.761  0.00  0.00    +0.000 A 
ATOM     15  C   UNL     1       7.867   4.654  12.353  0.00  0.00    +0.000 A 
ATOM     16  C   UNL     1       7.560   5.212  13.601  0.00  0.00    +0.000 A 
ATOM     17  C   UNL     1       6.386   4.864  14.285  0.00  0.00    +0.000 A 
ATOM     18  C   UNL     1       5.504   3.974  13.613  0.00  0.00    +0.000 A 
BRANCH  13  20
ATOM     19  C   UNL     1       3.957   2.998  10.940  0.00  0.00    +0.000 C 
ATOM     20  O   UNL     1       5.036   2.480  11.712  0.00  0.00    +0.000 OA
ENDBRANCH  13  20
ENDBRANCH   1  17
BRANCH   7  21
ATOM     21  C   UNL     1       2.952   6.584  19.261  0.00  0.00    +0.000 C 
BRANCH  21  22
ATOM     22  C   UNL     1       2.195   7.886  19.237  0.00  0.00    +0.000 A 
ATOM     23  C   UNL     1       1.380   8.283  20.303  0.00  0.00    +0.000 A 
ATOM     24  C   UNL     1       0.857   9.576  20.341  0.00  0.00    +0.000 A 
ATOM     25  C   UNL     1       1.151  10.474  19.321  0.00  0.00    +0.000 A 
ATOM     26  F   UNL     1       0.682  11.726  19.387  0.00  0.00    +0.000 F 
ATOM     27  C   UNL     1       1.946  10.100  18.245  0.00  0.00    +0.000 A 
ATOM     28  C   UNL     1       2.463   8.811  18.205  0.00  0.00    +0.000 A 
ENDBRANCH  21  22
ENDBRANCH   7  21
TORSDOF 4
ENDMDL
MODEL 5
REMARK VINA RESULT:      -8.6      3.684      7.875
REMARK  Name = 
REMARK  6 active torsions:
REMARK  status: ('A' for Active; 'I' for Inactive)
REMARK    1  A    between atoms: C_1  and  O_2
REMARK    2  A    between atoms: O_2  and  C_3
REMARK    3  A    between atoms: C_7  and  C_8
REMARK    4  A    between atoms: N_14  and  C_15
REMARK    5  A    between atoms: C_15  and  C_16
REMARK    6  A    between atoms: C_25  and  C_26
REMARK                            x       y       z     vdW  Elec       q    Type
REMARK                         _______ _______ _______ _____ _____    ______ ____
ROOT
ATOM      1  C   UNL     1       1.986   7.834  19.901  0.00  0.00    +0.000 A 
ATOM      2  C   UNL     1       2.173   8.085  18.527  0.00  0.00    +0.000 A 
ATOM      3  C   UNL     1       2.474   7.044  17.656  0.00  0.00    +0.000 A 
ATOM      4  C   UNL     1       2.706   5.794  18.204  0.00  0.00    +0.000 A 
ATOM      5  C   UNL     1       3.130   5.709  19.521  0.00  0.00    +0.000 A 
ATOM      6  C   UNL     1       2.583   6.654  20.402  0.00  0.00    +0.000 A 
ATOM      7  N   UNL     1       3.672   4.462  19.975  0.00  0.00    +0.000 N 
ATOM      8  C   UNL     1       2.591   3.602  20.264  0.00  0.00    +0.000 C 
ATOM      9  O   UNL     1       2.329   3.247  21.410  0.00  0.00    +0.000 OA
ATOM     10  C   UNL     1       1.862   3.100  19.008  0.00  0.00    +0.000 C 
ATOM     11  C   UNL     1       0.599   2.361  19.432  0.00  0.00    +0.000 C 
ATOM     12  S   UNL     1       1.576   4.411  17.683  0.00  0.00    +0.000 S 
ENDROOT
BRANCH   1  17
ATOM     13  C   UNL     1      -0.480  10.644  20.737  0.00  0.00    +0.000 A 
ATOM     14  C   UNL     1      -0.615  10.501  22.112  0.00  0.00    +0.000 A 
ATOM     15  C   UNL     1       0.054   9.473  22.782  0.00  0.00    +0.000 A 
ATOM     16  C   UNL     1       0.902   8.605  22.083  0.00  0.00    +0.000 A 
ATOM     17  C   UNL     1       1.100   8.738  20.700  0.00  0.00    +0.000 A 
ATOM     18  C   UNL     1       0.344   9.749  20.048  0.00  0.00    +0.000 A 
BRANCH  13  20
ATOM     19  C   UNL     1      -1.897  11.395  18.975  0.00  0.00    +0.000 C 
ATOM     20  O   UNL     1      -1.191  11.671  20.180  0.00  0.00    +0.000 OA
ENDBRANCH  13  20
ENDBRANCH   1  17
BRANCH   7  21
ATOM     21  C   UNL     1       4.647   3.822  19.039  0.00  0.00    +0.000 C 
BRANCH  21  22
ATOM     22  C   UNL     1       5.698   4.695  18.406  0.00  0.00    +0.000 A 
ATOM     23  C   UNL     1       5.672   5.005  17.041  0.00  0.00    +0.000 A 
ATOM     24  C   UNL     1       6.535   5.974  16.526  0.00  0.00    +0.000 A 
ATOM     25  C   UNL     1       7.417   6.637  17.372  0.00  0.00    +0.000 A 
ATOM     26  F   UNL     1       8.211   7.596  16.879  0.00  0.00    +0.000 F 
ATOM     27  C   UNL     1       7.471   6.337  18.727  0.00  0.00    +0.000 A 
ATOM     28  C   UNL     1       6.615   5.370  19.239  0.00  0.00    +0.000 A 
ENDBRANCH  21  22
ENDBRANCH   7  21
TORSDOF 4
ENDMDL
MODEL 6
REMARK VINA RESULT:      -8.6      3.421      8.378
REMARK  Name = 
REMARK  6 active torsions:
REMARK  status: ('A' for Active; 'I' for Inactive)
REMARK    1  A    between atoms: C_1  and  O_2
REMARK    2  A    between atoms: O_2  and  C_3
REMARK    3  A    between atoms: C_7  and  C_8
REMARK    4  A    between atoms: N_14  and  C_15
REMARK    5  A    between atoms: C_15  and  C_16
REMARK    6  A    between atoms: C_25  and  C_26
REMARK                            x       y       z     vdW  Elec       q    Type
REMARK                         _______ _______ _______ _____ _____    ______ ____
ROOT
ATOM      1  C   UNL     1       2.394   6.804  19.094  0.00  0.00    +0.000 A 
ATOM      2  C   UNL     1       2.211   5.522  19.652  0.00  0.00    +0.000 A 
ATOM      3  C   UNL     1       3.166   4.530  19.464  0.00  0.00    +0.000 A 
ATOM      4  C   UNL     1       4.222   4.808  18.613  0.00  0.00    +0.000 A 
ATOM      5  C   UNL     1       4.056   5.771  17.631  0.00  0.00    +0.000 A 
ATOM      6  C   UNL     1       3.269   6.878  17.987  0.00  0.00    +0.000 A 
ATOM      7  N   UNL     1       5.016   5.824  16.568  0.00  0.00    +0.000 N 
ATOM      8  C   UNL     1       6.153   6.507  17.049  0.00  0.00    +0.000 C 
ATOM      9  O   UNL     1       6.478   7.612  16.624  0.00  0.00    +0.000 OA
ATOM     10  C   UNL     1       6.968   5.689  18.064  0.00  0.00    +0.000 C 
ATOM     11  C   UNL     1       8.040   6.586  18.673  0.00  0.00    +0.000 C 
ATOM     12  S   UNL     1       5.935   4.755  19.335  0.00  0.00    +0.000 S 
ENDROOT
BRANCH   1  17
ATOM     13  C   UNL     1       0.899  10.301  19.550  0.00  0.00    +0.000 A 
ATOM     14  C   UNL     1       0.569  10.293  20.900  0.00  0.00    +0.000 A 
ATOM     15  C   UNL     1       0.785   9.148  21.670  0.00  0.00    +0.000 A 
ATOM     16  C   UNL     1       1.378   8.012  21.103  0.00  0.00    +0.000 A 
ATOM     17  C   UNL     1       1.764   7.991  19.755  0.00  0.00    +0.000 A 
ATOM     18  C   UNL     1       1.459   9.150  18.991  0.00  0.00    +0.000 A 
BRANCH  13  20
ATOM     19  C   UNL     1      -0.740  11.805  18.695  0.00  0.00    +0.000 C 
ATOM     20  O   UNL     1       0.630  11.467  18.886  0.00  0.00    +0.000 OA
ENDBRANCH  13  20
ENDBRANCH   1  17
BRANCH   7  21
ATOM     21  C   UNL     1       5.380   4.496  15.983  0.00  0.00    +0.000 C 
BRANCH  21  22
ATOM     22  C   UNL     1       5.927   4.468  14.580  0.00  0.00    +0.000 A 
ATOM     23  C   UNL     1       7.127   5.106  14.244  0.00  0.00    +0.000 A 
ATOM     24  C   UNL     1       7.707   4.892  12.993  0.00  0.00    +0.000 A 
ATOM     25  C   UNL     1       7.095   4.040  12.080  0.00  0.00    +0.000 A 
ATOM     26  F   UNL     1       7.681   3.806  10.899  0.00  0.00    +0.000 F 
ATOM     27  C   UNL     1       5.897   3.406  12.385  0.00  0.00    +0.000 A 
ATOM     28  C   UNL     1       5.317   3.622  13.628  0.00  0.00    +0.000 A 
ENDBRANCH  21  22
ENDBRANCH   7  21
TORSDOF 4
ENDMDL
MODEL 7
REMARK VINA RESULT:      -8.5      0.975      1.030
REMARK  Name = 
REMARK  6 active torsions:
REMARK  status: ('A' for Active; 'I' for Inactive)
REMARK    1  A    between atoms: C_1  and  O_2
REMARK    2  A    between atoms: O_2  and  C_3
REMARK    3  A    between atoms: C_7  and  C_8
REMARK    4  A    between atoms: N_14  and  C_15
REMARK    5  A    between atoms: C_15  and  C_16
REMARK    6  A    between atoms: C_25  and  C_26
REMARK                            x       y       z     vdW  Elec       q    Type
REMARK                         _______ _______ _______ _____ _____    ______ ____
ROOT
ATOM      1  C   UNL     1       5.896   5.547  15.652  0.00  0.00    +0.000 A 
ATOM      2  C   UNL     1       6.798   6.255  16.472  0.00  0.00    +0.000 A 
ATOM      3  C   UNL     1       6.626   6.278  17.851  0.00  0.00    +0.000 A 
ATOM      4  C   UNL     1       5.479   5.696  18.365  0.00  0.00    +0.000 A 
ATOM      5  C   UNL     1       4.362   5.585  17.553  0.00  0.00    +0.000 A 
ATOM      6  C   UNL     1       4.614   5.312  16.200  0.00  0.00    +0.000 A 
ATOM      7  N   UNL     1       3.105   5.288  18.173  0.00  0.00    +0.000 N 
ATOM      8  C   UNL     1       3.064   3.900  18.422  0.00  0.00    +0.000 C 
ATOM      9  O   UNL     1       2.293   3.153  17.826  0.00  0.00    +0.000 OA
ATOM     10  C   UNL     1       3.999   3.460  19.560  0.00  0.00    +0.000 C 
ATOM     11  C   UNL     1       4.040   1.937  19.605  0.00  0.00    +0.000 C 
ATOM     12  S   UNL     1       5.701   4.273  19.543  0.00  0.00    +0.000 S 
ENDROOT
BRANCH   1  17
ATOM     13  C   UNL     1       5.982   3.460  12.440  0.00  0.00    +0.000 A 
ATOM     14  C   UNL     1       7.159   3.902  11.848  0.00  0.00    +0.000 A 
ATOM     15  C   UNL     1       7.918   4.906  12.455  0.00  0.00    +0.000 A 
ATOM     16  C   UNL     1       7.526   5.445  13.687  0.00  0.00    +0.000 A 
ATOM     17  C   UNL     1       6.367   5.001  14.340  0.00  0.00    +0.000 A 
ATOM     18  C   UNL     1       5.587   4.032  13.653  0.00  0.00    +0.000 A 
BRANCH  13  20
ATOM     19  C   UNL     1       6.057   1.354  11.328  0.00  0.00    +0.000 C 
ATOM     20  O   UNL     1       5.308   2.487  11.754  0.00  0.00    +0.000 OA
ENDBRANCH  13  20
ENDBRANCH   1  17
BRANCH   7  21
ATOM     21  C   UNL     1       2.811   6.076  19.411  0.00  0.00    +0.000 C 
BRANCH  21  22
ATOM     22  C   UNL     1       2.312   7.488  19.249  0.00  0.00    +0.000 A 
ATOM     23  C   UNL     1       2.388   8.159  18.023  0.00  0.00    +0.000 A 
ATOM     24  C   UNL     1       1.737   9.382  17.853  0.00  0.00    +0.000 A 
ATOM     25  C   UNL     1       1.009   9.932  18.902  0.00  0.00    +0.000 A 
ATOM     26  F   UNL     1       0.351  11.084  18.718  0.00  0.00    +0.000 F 
ATOM     27  C   UNL     1       0.931   9.292  20.132  0.00  0.00    +0.000 A 
ATOM     28  C   UNL     1       1.582   8.077  20.303  0.00  0.00    +0.000 A 
ENDBRANCH  21  22
ENDBRANCH   7  21
TORSDOF 4
ENDMDL
MODEL 8
REMARK VINA RESULT:      -8.4      3.462      8.155
REMARK  Name = 
REMARK  6 active torsions:
REMARK  status: ('A' for Active; 'I' for Inactive)
REMARK    1  A    between atoms: C_1  and  O_2
REMARK    2  A    between atoms: O_2  and  C_3
REMARK    3  A    between atoms: C_7  and  C_8
REMARK    4  A    between atoms: N_14  and  C_15
REMARK    5  A    between atoms: C_15  and  C_16
REMARK    6  A    between atoms: C_25  and  C_26
REMARK                            x       y       z     vdW  Elec       q    Type
REMARK                         _______ _______ _______ _____ _____    ______ ____
ROOT
ATOM      1  C   UNL     1       3.012   6.836  17.884  0.00  0.00    +0.000 A 
ATOM      2  C   UNL     1       2.564   5.504  17.996  0.00  0.00    +0.000 A 
ATOM      3  C   UNL     1       3.474   4.452  17.994  0.00  0.00    +0.000 A 
ATOM      4  C   UNL     1       4.804   4.754  17.751  0.00  0.00    +0.000 A 
ATOM      5  C   UNL     1       5.111   5.907  17.046  0.00  0.00    +0.000 A 
ATOM      6  C   UNL     1       4.285   7.014  17.293  0.00  0.00    +0.000 A 
ATOM      7  N   UNL     1       6.439   6.044  16.525  0.00  0.00    +0.000 N 
ATOM      8  C   UNL     1       7.276   6.463  17.581  0.00  0.00    +0.000 C 
ATOM      9  O   UNL     1       7.788   7.579  17.603  0.00  0.00    +0.000 OA
ATOM     10  C   UNL     1       7.542   5.361  18.619  0.00  0.00    +0.000 C 
ATOM     11  C   UNL     1       8.270   5.970  19.811  0.00  0.00    +0.000 C 
ATOM     12  S   UNL     1       6.030   4.335  19.085  0.00  0.00    +0.000 S 
ENDROOT
BRANCH   1  17
ATOM     13  C   UNL     1       1.088   8.892  20.480  0.00  0.00    +0.000 A 
ATOM     14  C   UNL     1       0.663   9.977  19.723  0.00  0.00    +0.000 A 
ATOM     15  C   UNL     1       1.025  10.080  18.377  0.00  0.00    +0.000 A 
ATOM     16  C   UNL     1       1.781   9.071  17.766  0.00  0.00    +0.000 A 
ATOM     17  C   UNL     1       2.197   7.939  18.482  0.00  0.00    +0.000 A 
ATOM     18  C   UNL     1       1.869   7.910  19.865  0.00  0.00    +0.000 A 
BRANCH  13  20
ATOM     19  C   UNL     1      -0.100   9.998  22.225  0.00  0.00    +0.000 C 
ATOM     20  O   UNL     1       0.692   8.898  21.790  0.00  0.00    +0.000 OA
ENDBRANCH  13  20
ENDBRANCH   1  17
BRANCH   7  21
ATOM     21  C   UNL     1       6.979   4.823  15.849  0.00  0.00    +0.000 C 
BRANCH  21  22
ATOM     22  C   UNL     1       6.467   4.493  14.472  0.00  0.00    +0.000 A 
ATOM     23  C   UNL     1       7.303   4.522  13.349  0.00  0.00    +0.000 A 
ATOM     24  C   UNL     1       6.853   4.017  12.128  0.00  0.00    +0.000 A 
ATOM     25  C   UNL     1       5.574   3.479  12.028  0.00  0.00    +0.000 A 
ATOM     26  F   UNL     1       5.167   2.956  10.865  0.00  0.00    +0.000 F 
ATOM     27  C   UNL     1       4.722   3.451  13.124  0.00  0.00    +0.000 A 
ATOM     28  C   UNL     1       5.168   3.958  14.339  0.00  0.00    +0.000 A 
ENDBRANCH  21  22
ENDBRANCH   7  21
TORSDOF 4
ENDMDL
MODEL 9
REMARK VINA RESULT:      -8.4      3.352      8.287
REMARK  Name = 
REMARK  6 active torsions:
REMARK  status: ('A' for Active; 'I' for Inactive)
REMARK    1  A    between atoms: C_1  and  O_2
REMARK    2  A    between atoms: O_2  and  C_3
REMARK    3  A    between atoms: C_7  and  C_8
REMARK    4  A    between atoms: N_14  and  C_15
REMARK    5  A    between atoms: C_15  and  C_16
REMARK    6  A    between atoms: C_25  and  C_26
REMARK                            x       y       z     vdW  Elec       q    Type
REMARK                         _______ _______ _______ _____ _____    ______ ____
ROOT
ATOM      1  C   UNL     1       2.382   6.805  18.870  0.00  0.00    +0.000 A 
ATOM      2  C   UNL     1       2.019   5.538  19.370  0.00  0.00    +0.000 A 
ATOM      3  C   UNL     1       2.888   4.459  19.248  0.00  0.00    +0.000 A 
ATOM      4  C   UNL     1       4.048   4.647  18.515  0.00  0.00    +0.000 A 
ATOM      5  C   UNL     1       4.076   5.641  17.550  0.00  0.00    +0.000 A 
ATOM      6  C   UNL     1       3.369   6.814  17.858  0.00  0.00    +0.000 A 
ATOM      7  N   UNL     1       5.140   5.618  16.590  0.00  0.00    +0.000 N 
ATOM      8  C   UNL     1       6.283   6.176  17.201  0.00  0.00    +0.000 C 
ATOM      9  O   UNL     1       6.755   7.251  16.843  0.00  0.00    +0.000 OA
ATOM     10  C   UNL     1       6.907   5.262  18.268  0.00  0.00    +0.000 C 
ATOM     11  C   UNL     1       7.993   6.035  19.006  0.00  0.00    +0.000 C 
ATOM     12  S   UNL     1       5.665   4.410  19.402  0.00  0.00    +0.000 S 
ENDROOT
BRANCH   1  17
ATOM     13  C   UNL     1       1.021  10.368  19.230  0.00  0.00    +0.000 A 
ATOM     14  C   UNL     1       0.714  10.418  20.584  0.00  0.00    +0.000 A 
ATOM     15  C   UNL     1       0.902   9.292  21.390  0.00  0.00    +0.000 A 
ATOM     16  C   UNL     1       1.444   8.117  20.852  0.00  0.00    +0.000 A 
ATOM     17  C   UNL     1       1.807   8.036  19.500  0.00  0.00    +0.000 A 
ATOM     18  C   UNL     1       1.530   9.179  18.701  0.00  0.00    +0.000 A 
BRANCH  13  20
ATOM     19  C   UNL     1       0.805  12.742  19.260  0.00  0.00    +0.000 C 
ATOM     20  O   UNL     1       0.783  11.520  18.530  0.00  0.00    +0.000 OA
ENDBRANCH  13  20
ENDBRANCH   1  17
BRANCH   7  21
ATOM     21  C   UNL     1       5.431   4.273  16.005  0.00  0.00    +0.000 C 
BRANCH  21  22
ATOM     22  C   UNL     1       6.061   4.217  14.638  0.00  0.00    +0.000 A 
ATOM     23  C   UNL     1       5.433   3.574  13.565  0.00  0.00    +0.000 A 
ATOM     24  C   UNL     1       5.940   3.713  12.272  0.00  0.00    +0.000 A 
ATOM     25  C   UNL     1       7.066   4.497  12.048  0.00  0.00    +0.000 A 
ATOM     26  F   UNL     1       7.520   4.662  10.799  0.00  0.00    +0.000 F 
ATOM     27  C   UNL     1       7.714   5.135  13.099  0.00  0.00    +0.000 A 
ATOM     28  C   UNL     1       7.213   4.992  14.386  0.00  0.00    +0.000 A 
ENDBRANCH  21  22
ENDBRANCH   7  21
TORSDOF 4
ENDMDL
