MODEL 1
REMARK VINA RESULT:      -7.8      0.000      0.000
REMARK  Name = 
REMARK  5 active torsions:
REMARK  status: ('A' for Active; 'I' for Inactive)
REMARK    1  A    between atoms: N_1  and  C_2
REMARK    2  A    between atoms: C_4  and  C_5
REMARK    3  A    between atoms: N_14  and  C_15
REMARK    4  A    between atoms: C_15  and  C_16
REMARK    5  A    between atoms: N_24  and  C_25
REMARK                            x       y       z     vdW  Elec       q    Type
REMARK                         _______ _______ _______ _____ _____    ______ ____
ROOT
ATOM      1  C   UNL     1       1.067   8.089  20.092  0.00  0.00    +0.000 A 
ATOM      2  C   UNL     1       2.032   7.574  19.243  0.00  0.00    +0.000 A 
ATOM      3  C   UNL     1       2.576   6.285  19.092  0.00  0.00    +0.000 A 
ATOM      4  N   UNL     1       3.504   6.219  18.077  0.00  0.00    +0.000 NA
ATOM      5  C   UNL     1       3.886   7.325  17.376  0.00  0.00    +0.000 A 
ATOM      6  N   UNL     1       4.869   7.211  16.398  0.00  0.00    +0.000 N 
ATOM      7  N   UNL     1       3.402   8.568  17.505  0.00  0.00    +0.000 NA
ATOM      8  C   UNL     1       2.422   8.660  18.421  0.00  0.00    +0.000 A 
ATOM      9  N   UNL     1       1.677   9.742  18.620  0.00  0.00    +0.000 NA
ATOM     10  N   UNL     1       0.873   9.418  19.657  0.00  0.00    +0.000 N 
ATOM     11  H   UNL     1       5.683   7.705  16.734  0.00  0.00    +0.000 HD
ENDROOT
BRANCH   3  12
ATOM     12  C   UNL     1       2.204   5.036  19.774  0.00  0.00    +0.000 A 
ATOM     13  C   UNL     1       2.487   4.862  21.146  0.00  0.00    +0.000 A 
ATOM     14  C   UNL     1       2.215   3.668  21.824  0.00  0.00    +0.000 A 
ATOM     15  C   UNL     1       1.558   2.636  21.170  0.00  0.00    +0.000 A 
ATOM     16  C   UNL     1       1.182   2.801  19.841  0.00  0.00    +0.000 A 
ATOM     17  C   UNL     1       1.511   3.978  19.143  0.00  0.00    +0.000 A 
ATOM     18 CL   UNL     1       1.037   4.015  17.476  0.00  0.00    +0.000 Cl
ENDBRANCH   3  12
BRANCH  10  19
ATOM     19  C   UNL     1      -0.040  10.401  20.145  0.00  0.00    +0.000 A 
ATOM     20  C   UNL     1       0.104  10.878  21.459  0.00  0.00    +0.000 A 
ATOM     21  C   UNL     1      -0.743  11.879  21.938  0.00  0.00    +0.000 A 
ATOM     22  C   UNL     1      -1.756  12.387  21.127  0.00  0.00    +0.000 A 
ATOM     23  C   UNL     1      -1.936  11.883  19.840  0.00  0.00    +0.000 A 
ATOM     24  C   UNL     1      -1.083  10.891  19.348  0.00  0.00    +0.000 A 
ENDBRANCH  10  19
BRANCH   1  25
ATOM     25  N   UNL     1       0.351   7.541  21.113  0.00  0.00    +0.000 N 
ATOM     26  H   UNL     1       0.719   7.440  22.052  0.00  0.00    +0.000 HD
ATOM     27  H   UNL     1      -0.417   6.894  20.922  0.00  0.00    +0.000 HD
ENDBRANCH   1  25
BRANCH   6  28
ATOM     28  C   UNL     1       5.133   5.895  15.838  0.00  0.00    +0.000 C 
BRANCH  28  29
ATOM     29  C   UNL     1       6.622   5.500  15.951  0.00  0.00    +0.000 C 
ATOM     30  C   UNL     1       7.486   6.503  16.713  0.00  0.00    +0.000 C 
ATOM     31  C   UNL     1       7.419   5.992  18.129  0.00  0.00    +0.000 C 
ATOM     32  C   UNL     1       7.425   4.498  17.908  0.00  0.00    +0.000 C 
ATOM     33  O   UNL     1       6.713   4.256  16.687  0.00  0.00    +0.000 OA
ENDBRANCH  28  29
ENDBRANCH   6  28
TORSDOF 5
ENDMDL
MODEL 2
REMARK VINA RESULT:      -7.5      1.448      2.063
REMARK  Name = 
REMARK  5 active torsions:
REMARK  status: ('A' for Active; 'I' for Inactive)
REMARK    1  A    between atoms: N_1  and  C_2
REMARK    2  A    between atoms: C_4  and  C_5
REMARK    3  A    between atoms: N_14  and  C_15
REMARK    4  A    between atoms: C_15  and  C_16
REMARK    5  A    between atoms: N_24  and  C_25
REMARK                            x       y       z     vdW  Elec       q    Type
REMARK                         _______ _______ _______ _____ _____    ______ ____
ROOT
ATOM      1  C   UNL     1       1.657   7.942  19.541  0.00  0.00    +0.000 A 
ATOM      2  C   UNL     1       2.518   7.170  18.779  0.00  0.00    +0.000 A 
ATOM      3  C   UNL     1       2.867   5.808  18.825  0.00  0.00    +0.000 A 
ATOM      4  N   UNL     1       3.752   5.456  17.830  0.00  0.00    +0.000 NA
ATOM      5  C   UNL     1       4.272   6.375  16.968  0.00  0.00    +0.000 A 
ATOM      6  N   UNL     1       5.204   5.974  16.018  0.00  0.00    +0.000 N 
ATOM      7  N   UNL     1       3.974   7.681  16.907  0.00  0.00    +0.000 NA
ATOM      8  C   UNL     1       3.040   8.052  17.801  0.00  0.00    +0.000 A 
ATOM      9  N   UNL     1       2.462   9.247  17.833  0.00  0.00    +0.000 NA
ATOM     10  N   UNL     1       1.646   9.204  18.910  0.00  0.00    +0.000 N 
ATOM     11  H   UNL     1       6.089   6.389  16.272  0.00  0.00    +0.000 HD
ENDROOT
BRANCH   3  12
ATOM     12  C   UNL     1       2.336   4.743  19.690  0.00  0.00    +0.000 A 
ATOM     13  C   UNL     1       2.694   4.689  21.055  0.00  0.00    +0.000 A 
ATOM     14  C   UNL     1       2.271   3.658  21.903  0.00  0.00    +0.000 A 
ATOM     15  C   UNL     1       1.390   2.695  21.433  0.00  0.00    +0.000 A 
ATOM     16  C   UNL     1       0.943   2.763  20.117  0.00  0.00    +0.000 A 
ATOM     17  C   UNL     1       1.418   3.763  19.249  0.00  0.00    +0.000 A 
ATOM     18 CL   UNL     1       0.825   3.683  17.622  0.00  0.00    +0.000 Cl
ENDBRANCH   3  12
BRANCH  10  19
ATOM     19  C   UNL     1       0.895  10.372  19.244  0.00  0.00    +0.000 A 
ATOM     20  C   UNL     1      -0.375  10.556  18.674  0.00  0.00    +0.000 A 
ATOM     21  C   UNL     1      -1.150  11.661  19.028  0.00  0.00    +0.000 A 
ATOM     22  C   UNL     1      -0.654  12.605  19.926  0.00  0.00    +0.000 A 
ATOM     23  C   UNL     1       0.626  12.455  20.457  0.00  0.00    +0.000 A 
ATOM     24  C   UNL     1       1.402  11.343  20.117  0.00  0.00    +0.000 A 
ENDBRANCH  10  19
BRANCH   1  25
ATOM     25  N   UNL     1       0.895   7.664  20.635  0.00  0.00    +0.000 N 
ATOM     26  H   UNL     1       0.516   8.383  21.240  0.00  0.00    +0.000 HD
ATOM     27  H   UNL     1       0.963   6.757  21.101  0.00  0.00    +0.000 HD
ENDBRANCH   1  25
BRANCH   6  28
ATOM     28  C   UNL     1       5.264   4.565  15.664  0.00  0.00    +0.000 C 
BRANCH  28  29
ATOM     29  C   UNL     1       6.637   4.165  15.082  0.00  0.00    +0.000 C 
ATOM     30  C   UNL     1       6.570   3.469  13.723  0.00  0.00    +0.000 C 
ATOM     31  C   UNL     1       6.685   4.618  12.755  0.00  0.00    +0.000 C 
ATOM     32  C   UNL     1       7.668   5.514  13.471  0.00  0.00    +0.000 C 
ATOM     33  O   UNL     1       7.417   5.367  14.875  0.00  0.00    +0.000 OA
ENDBRANCH  28  29
ENDBRANCH   6  28
TORSDOF 5
ENDMDL
MODEL 3
REMARK VINA RESULT:      -7.3      3.385      6.454
REMARK  Name = 
REMARK  5 active torsions:
REMARK  status: ('A' for Active; 'I' for Inactive)
REMARK    1  A    between atoms: N_1  and  C_2
REMARK    2  A    between atoms: C_4  and  C_5
REMARK    3  A    between atoms: N_14  and  C_15
REMARK    4  A    between atoms: C_15  and  C_16
REMARK    5  A    between atoms: N_24  and  C_25
REMARK                            x       y       z     vdW  Elec       q    Type
REMARK                         _______ _______ _______ _____ _____    ______ ____
ROOT
ATOM      1  C   UNL     1      -1.809  12.159  21.335  0.00  0.00    +0.000 A 
ATOM      2  C   UNL     1      -1.035  11.076  20.955  0.00  0.00    +0.000 A 
ATOM      3  C   UNL     1      -0.964  10.327  19.766  0.00  0.00    +0.000 A 
ATOM      4  N   UNL     1      -0.004   9.341  19.819  0.00  0.00    +0.000 NA
ATOM      5  C   UNL     1       0.718   9.098  20.950  0.00  0.00    +0.000 A 
ATOM      6  N   UNL     1       1.636   8.053  20.966  0.00  0.00    +0.000 N 
ATOM      7  N   UNL     1       0.664   9.780  22.103  0.00  0.00    +0.000 NA
ATOM      8  C   UNL     1      -0.193  10.815  22.064  0.00  0.00    +0.000 A 
ATOM      9  N   UNL     1      -0.308  11.732  23.018  0.00  0.00    +0.000 NA
ATOM     10  N   UNL     1      -1.313  12.535  22.602  0.00  0.00    +0.000 N 
ATOM     11  H   UNL     1       1.277   7.348  21.593  0.00  0.00    +0.000 HD
ENDROOT
BRANCH   3  12
ATOM     12  C   UNL     1      -1.673  10.537  18.495  0.00  0.00    +0.000 A 
ATOM     13  C   UNL     1      -2.621   9.593  18.044  0.00  0.00    +0.000 A 
ATOM     14  C   UNL     1      -3.273   9.712  16.810  0.00  0.00    +0.000 A 
ATOM     15  C   UNL     1      -3.067  10.837  16.026  0.00  0.00    +0.000 A 
ATOM     16  C   UNL     1      -2.206  11.834  16.475  0.00  0.00    +0.000 A 
ATOM     17  C   UNL     1      -1.505  11.684  17.686  0.00  0.00    +0.000 A 
ATOM     18 CL   UNL     1      -0.419  12.974  18.085  0.00  0.00    +0.000 Cl
ENDBRANCH   3  12
BRANCH  10  19
ATOM     19  C   UNL     1      -1.712  13.620  23.440  0.00  0.00    +0.000 A 
ATOM     20  C   UNL     1      -2.939  13.544  24.120  0.00  0.00    +0.000 A 
ATOM     21  C   UNL     1      -3.323  14.568  24.987  0.00  0.00    +0.000 A 
ATOM     22  C   UNL     1      -2.507  15.685  25.159  0.00  0.00    +0.000 A 
ATOM     23  C   UNL     1      -1.312  15.789  24.448  0.00  0.00    +0.000 A 
ATOM     24  C   UNL     1      -0.914  14.761  23.589  0.00  0.00    +0.000 A 
ENDBRANCH  10  19
BRANCH   1  25
ATOM     25  N   UNL     1      -2.811  12.839  20.710  0.00  0.00    +0.000 N 
ATOM     26  H   UNL     1      -3.792  12.694  20.922  0.00  0.00    +0.000 HD
ATOM     27  H   UNL     1      -2.667  13.241  19.781  0.00  0.00    +0.000 HD
ENDBRANCH   1  25
BRANCH   6  28
ATOM     28  C   UNL     1       2.129   7.551  19.693  0.00  0.00    +0.000 C 
BRANCH  28  29
ATOM     29  C   UNL     1       2.769   6.151  19.825  0.00  0.00    +0.000 C 
ATOM     30  C   UNL     1       2.107   5.249  20.866  0.00  0.00    +0.000 C 
ATOM     31  C   UNL     1       1.070   4.513  20.058  0.00  0.00    +0.000 C 
ATOM     32  C   UNL     1       1.798   4.312  18.750  0.00  0.00    +0.000 C 
ATOM     33  O   UNL     1       2.633   5.462  18.558  0.00  0.00    +0.000 OA
ENDBRANCH  28  29
ENDBRANCH   6  28
TORSDOF 5
ENDMDL
MODEL 4
REMARK VINA RESULT:      -7.2      3.389      6.265
REMARK  Name = 
REMARK  5 active torsions:
REMARK  status: ('A' for Active; 'I' for Inactive)
REMARK    1  A    between atoms: N_1  and  C_2
REMARK    2  A    between atoms: C_4  and  C_5
REMARK    3  A    between atoms: N_14  and  C_15
REMARK    4  A    between atoms: C_15  and  C_16
REMARK    5  A    between atoms: N_24  and  C_25
REMARK                            x       y       z     vdW  Elec       q    Type
REMARK                         _______ _______ _______ _____ _____    ______ ____
ROOT
ATOM      1  C   UNL     1      -1.785  12.154  21.297  0.00  0.00    +0.000 A 
ATOM      2  C   UNL     1      -0.998  11.084  20.904  0.00  0.00    +0.000 A 
ATOM      3  C   UNL     1      -0.922  10.348  19.708  0.00  0.00    +0.000 A 
ATOM      4  N   UNL     1       0.050   9.374  19.748  0.00  0.00    +0.000 NA
ATOM      5  C   UNL     1       0.781   9.130  20.873  0.00  0.00    +0.000 A 
ATOM      6  N   UNL     1       1.713   8.098  20.875  0.00  0.00    +0.000 N 
ATOM      7  N   UNL     1       0.723   9.801  22.033  0.00  0.00    +0.000 NA
ATOM      8  C   UNL     1      -0.148  10.824  22.008  0.00  0.00    +0.000 A 
ATOM      9  N   UNL     1      -0.272  11.731  22.970  0.00  0.00    +0.000 NA
ATOM     10  N   UNL     1      -1.289  12.524  22.566  0.00  0.00    +0.000 N 
ATOM     11  H   UNL     1       1.366   7.383  21.498  0.00  0.00    +0.000 HD
ENDROOT
BRANCH   3  12
ATOM     12  C   UNL     1      -1.640  10.560  18.442  0.00  0.00    +0.000 A 
ATOM     13  C   UNL     1      -2.564   9.598  17.977  0.00  0.00    +0.000 A 
ATOM     14  C   UNL     1      -3.221   9.721  16.747  0.00  0.00    +0.000 A 
ATOM     15  C   UNL     1      -3.047  10.864  15.981  0.00  0.00    +0.000 A 
ATOM     16  C   UNL     1      -2.213  11.875  16.446  0.00  0.00    +0.000 A 
ATOM     17  C   UNL     1      -1.505  11.724  17.652  0.00  0.00    +0.000 A 
ATOM     18 CL   UNL     1      -0.453  13.037  18.071  0.00  0.00    +0.000 Cl
ENDBRANCH   3  12
BRANCH  10  19
ATOM     19  C   UNL     1      -1.699  13.596  23.416  0.00  0.00    +0.000 A 
ATOM     20  C   UNL     1      -2.928  13.505  24.088  0.00  0.00    +0.000 A 
ATOM     21  C   UNL     1      -3.323  14.515  24.967  0.00  0.00    +0.000 A 
ATOM     22  C   UNL     1      -2.514  15.634  25.157  0.00  0.00    +0.000 A 
ATOM     23  C   UNL     1      -1.317  15.754  24.454  0.00  0.00    +0.000 A 
ATOM     24  C   UNL     1      -0.908  14.740  23.583  0.00  0.00    +0.000 A 
ENDBRANCH  10  19
BRANCH   1  25
ATOM     25  N   UNL     1      -2.799  12.826  20.683  0.00  0.00    +0.000 N 
ATOM     26  H   UNL     1      -2.677  13.738  20.258  0.00  0.00    +0.000 HD
ATOM     27  H   UNL     1      -3.773  12.634  20.924  0.00  0.00    +0.000 HD
ENDBRANCH   1  25
BRANCH   6  28
ATOM     28  C   UNL     1       2.207   7.614  19.596  0.00  0.00    +0.000 C 
BRANCH  28  29
ATOM     29  C   UNL     1       2.364   6.078  19.572  0.00  0.00    +0.000 C 
ATOM     30  C   UNL     1       2.174   5.445  18.194  0.00  0.00    +0.000 C 
ATOM     31  C   UNL     1       3.575   5.425  17.641  0.00  0.00    +0.000 C 
ATOM     32  C   UNL     1       4.381   5.114  18.879  0.00  0.00    +0.000 C 
ATOM     33  O   UNL     1       3.713   5.746  19.979  0.00  0.00    +0.000 OA
ENDBRANCH  28  29
ENDBRANCH   6  28
TORSDOF 5
ENDMDL
MODEL 5
REMARK VINA RESULT:      -7.2      2.320      7.389
REMARK  Name = 
REMARK  5 active torsions:
REMARK  status: ('A' for Active; 'I' for Inactive)
REMARK    1  A    between atoms: N_1  and  C_2
REMARK    2  A    between atoms: C_4  and  C_5
REMARK    3  A    between atoms: N_14  and  C_15
REMARK    4  A    between atoms: C_15  and  C_16
REMARK    5  A    between atoms: N_24  and  C_25
REMARK                            x       y       z     vdW  Elec       q    Type
REMARK                         _______ _______ _______ _____ _____    ______ ____
ROOT
ATOM      1  C   UNL     1       3.900   4.926  17.318  0.00  0.00    +0.000 A 
ATOM      2  C   UNL     1       3.196   5.863  18.054  0.00  0.00    +0.000 A 
ATOM      3  C   UNL     1       2.368   5.757  19.186  0.00  0.00    +0.000 A 
ATOM      4  N   UNL     1       1.896   6.978  19.613  0.00  0.00    +0.000 NA
ATOM      5  C   UNL     1       2.161   8.131  18.934  0.00  0.00    +0.000 A 
ATOM      6  N   UNL     1       1.614   9.330  19.378  0.00  0.00    +0.000 N 
ATOM      7  N   UNL     1       2.931   8.266  17.844  0.00  0.00    +0.000 NA
ATOM      8  C   UNL     1       3.491   7.109  17.448  0.00  0.00    +0.000 A 
ATOM      9  N   UNL     1       4.414   7.007  16.498  0.00  0.00    +0.000 NA
ATOM     10  N   UNL     1       4.645   5.680  16.386  0.00  0.00    +0.000 N 
ATOM     11  H   UNL     1       0.933   9.621  18.691  0.00  0.00    +0.000 HD
ENDROOT
BRANCH   3  12
ATOM     12  C   UNL     1       2.056   4.571  19.999  0.00  0.00    +0.000 A 
ATOM     13  C   UNL     1       2.498   4.488  21.337  0.00  0.00    +0.000 A 
ATOM     14  C   UNL     1       2.286   3.353  22.130  0.00  0.00    +0.000 A 
ATOM     15  C   UNL     1       1.536   2.296  21.637  0.00  0.00    +0.000 A 
ATOM     16  C   UNL     1       1.007   2.376  20.352  0.00  0.00    +0.000 A 
ATOM     17  C   UNL     1       1.273   3.489  19.535  0.00  0.00    +0.000 A 
ATOM     18 CL   UNL     1       0.604   3.420  17.937  0.00  0.00    +0.000 Cl
ENDBRANCH   3  12
BRANCH  10  19
ATOM     19  C   UNL     1       5.581   5.230  15.405  0.00  0.00    +0.000 A 
ATOM     20  C   UNL     1       5.140   4.386  14.374  0.00  0.00    +0.000 A 
ATOM     21  C   UNL     1       6.024   3.979  13.374  0.00  0.00    +0.000 A 
ATOM     22  C   UNL     1       7.358   4.383  13.412  0.00  0.00    +0.000 A 
ATOM     23  C   UNL     1       7.814   5.180  14.460  0.00  0.00    +0.000 A 
ATOM     24  C   UNL     1       6.930   5.603  15.458  0.00  0.00    +0.000 A 
ENDBRANCH  10  19
BRANCH   1  25
ATOM     25  N   UNL     1       3.989   3.569  17.399  0.00  0.00    +0.000 N 
ATOM     26  H   UNL     1       3.660   3.042  18.201  0.00  0.00    +0.000 HD
ATOM     27  H   UNL     1       4.689   3.059  16.857  0.00  0.00    +0.000 HD
ENDBRANCH   1  25
BRANCH   6  28
ATOM     28  C   UNL     1       1.170   9.413  20.760  0.00  0.00    +0.000 C 
BRANCH  28  29
ATOM     29  C   UNL     1      -0.310   9.838  20.874  0.00  0.00    +0.000 C 
ATOM     30  C   UNL     1      -0.602  10.811  22.016  0.00  0.00    +0.000 C 
ATOM     31  C   UNL     1      -0.444  12.156  21.356  0.00  0.00    +0.000 C 
ATOM     32  C   UNL     1      -1.016  11.886  19.985  0.00  0.00    +0.000 C 
ATOM     33  O   UNL     1      -0.687  10.529  19.658  0.00  0.00    +0.000 OA
ENDBRANCH  28  29
ENDBRANCH   6  28
TORSDOF 5
ENDMDL
MODEL 6
REMARK VINA RESULT:      -7.2      3.359      6.357
REMARK  Name = 
REMARK  5 active torsions:
REMARK  status: ('A' for Active; 'I' for Inactive)
REMARK    1  A    between atoms: N_1  and  C_2
REMARK    2  A    between atoms: C_4  and  C_5
REMARK    3  A    between atoms: N_14  and  C_15
REMARK    4  A    between atoms: C_15  and  C_16
REMARK    5  A    between atoms: N_24  and  C_25
REMARK                            x       y       z     vdW  Elec       q    Type
REMARK                         _______ _______ _______ _____ _____    ______ ____
ROOT
ATOM      1  C   UNL     1      -1.860  12.181  21.331  0.00  0.00    +0.000 A 
ATOM      2  C   UNL     1      -1.071  11.108  20.952  0.00  0.00    +0.000 A 
ATOM      3  C   UNL     1      -0.994  10.356  19.766  0.00  0.00    +0.000 A 
ATOM      4  N   UNL     1      -0.020   9.385  19.818  0.00  0.00    +0.000 NA
ATOM      5  C   UNL     1       0.711   9.157  20.946  0.00  0.00    +0.000 A 
ATOM      6  N   UNL     1       1.645   8.126  20.962  0.00  0.00    +0.000 N 
ATOM      7  N   UNL     1       0.652   9.842  22.097  0.00  0.00    +0.000 NA
ATOM      8  C   UNL     1      -0.221  10.864  22.059  0.00  0.00    +0.000 A 
ATOM      9  N   UNL     1      -0.346  11.783  23.009  0.00  0.00    +0.000 NA
ATOM     10  N   UNL     1      -1.364  12.570  22.594  0.00  0.00    +0.000 N 
ATOM     11  H   UNL     1       1.299   7.419  21.594  0.00  0.00    +0.000 HD
ENDROOT
BRANCH   3  12
ATOM     12  C   UNL     1      -1.713  10.550  18.497  0.00  0.00    +0.000 A 
ATOM     13  C   UNL     1      -2.657   9.596  18.060  0.00  0.00    +0.000 A 
ATOM     14  C   UNL     1      -3.317   9.700  16.829  0.00  0.00    +0.000 A 
ATOM     15  C   UNL     1      -3.123  10.820  16.034  0.00  0.00    +0.000 A 
ATOM     16  C   UNL     1      -2.266  11.826  16.469  0.00  0.00    +0.000 A 
ATOM     17  C   UNL     1      -1.557  11.691  17.677  0.00  0.00    +0.000 A 
ATOM     18 CL   UNL     1      -0.477  12.993  18.059  0.00  0.00    +0.000 Cl
ENDBRANCH   3  12
BRANCH  10  19
ATOM     19  C   UNL     1      -1.776  13.652  23.430  0.00  0.00    +0.000 A 
ATOM     20  C   UNL     1      -0.948  14.780  23.546  0.00  0.00    +0.000 A 
ATOM     21  C   UNL     1      -1.356  15.873  24.313  0.00  0.00    +0.000 A 
ATOM     22  C   UNL     1      -2.571  15.836  24.994  0.00  0.00    +0.000 A 
ATOM     23  C   UNL     1      -3.374  14.699  24.923  0.00  0.00    +0.000 A 
ATOM     24  C   UNL     1      -2.979  13.606  24.145  0.00  0.00    +0.000 A 
ENDBRANCH  10  19
BRANCH   1  25
ATOM     25  N   UNL     1      -2.875  12.844  20.708  0.00  0.00    +0.000 N 
ATOM     26  H   UNL     1      -3.850  12.713  20.952  0.00  0.00    +0.000 HD
ATOM     27  H   UNL     1      -2.754  13.210  19.762  0.00  0.00    +0.000 HD
ENDBRANCH   1  25
BRANCH   6  28
ATOM     28  C   UNL     1       2.139   7.626  19.689  0.00  0.00    +0.000 C 
BRANCH  28  29
ATOM     29  C   UNL     1       2.829   6.252  19.829  0.00  0.00    +0.000 C 
ATOM     30  C   UNL     1       1.877   5.058  19.768  0.00  0.00    +0.000 C 
ATOM     31  C   UNL     1       1.867   4.714  18.301  0.00  0.00    +0.000 C 
ATOM     32  C   UNL     1       3.305   4.978  17.923  0.00  0.00    +0.000 C 
ATOM     33  O   UNL     1       3.748   6.083  18.723  0.00  0.00    +0.000 OA
ENDBRANCH  28  29
ENDBRANCH   6  28
TORSDOF 5
ENDMDL
MODEL 7
REMARK VINA RESULT:      -7.1      2.466      7.385
REMARK  Name = 
REMARK  5 active torsions:
REMARK  status: ('A' for Active; 'I' for Inactive)
REMARK    1  A    between atoms: N_1  and  C_2
REMARK    2  A    between atoms: C_4  and  C_5
REMARK    3  A    between atoms: N_14  and  C_15
REMARK    4  A    between atoms: C_15  and  C_16
REMARK    5  A    between atoms: N_24  and  C_25
REMARK                            x       y       z     vdW  Elec       q    Type
REMARK                         _______ _______ _______ _____ _____    ______ ____
ROOT
ATOM      1  C   UNL     1       3.882   4.900  17.278  0.00  0.00    +0.000 A 
ATOM      2  C   UNL     1       3.218   5.849  18.037  0.00  0.00    +0.000 A 
ATOM      3  C   UNL     1       2.414   5.755  19.188  0.00  0.00    +0.000 A 
ATOM      4  N   UNL     1       1.983   6.984  19.633  0.00  0.00    +0.000 NA
ATOM      5  C   UNL     1       2.259   8.135  18.955  0.00  0.00    +0.000 A 
ATOM      6  N   UNL     1       1.752   9.343  19.420  0.00  0.00    +0.000 N 
ATOM      7  N   UNL     1       3.007   8.259  17.849  0.00  0.00    +0.000 NA
ATOM      8  C   UNL     1       3.529   7.092  17.432  0.00  0.00    +0.000 A 
ATOM      9  N   UNL     1       4.428   6.974  16.461  0.00  0.00    +0.000 NA
ATOM     10  N   UNL     1       4.623   5.643  16.334  0.00  0.00    +0.000 N 
ATOM     11  H   UNL     1       1.063   9.656  18.751  0.00  0.00    +0.000 HD
ENDROOT
BRANCH   3  12
ATOM     12  C   UNL     1       2.093   4.571  20.000  0.00  0.00    +0.000 A 
ATOM     13  C   UNL     1       2.547   4.477  21.333  0.00  0.00    +0.000 A 
ATOM     14  C   UNL     1       2.326   3.344  22.125  0.00  0.00    +0.000 A 
ATOM     15  C   UNL     1       1.555   2.299  21.636  0.00  0.00    +0.000 A 
ATOM     16  C   UNL     1       1.016   2.390  20.357  0.00  0.00    +0.000 A 
ATOM     17  C   UNL     1       1.290   3.503  19.540  0.00  0.00    +0.000 A 
ATOM     18 CL   UNL     1       0.604   3.448  17.949  0.00  0.00    +0.000 Cl
ENDBRANCH   3  12
BRANCH  10  19
ATOM     19  C   UNL     1       5.525   5.178  15.329  0.00  0.00    +0.000 A 
ATOM     20  C   UNL     1       6.873   5.569  15.384  0.00  0.00    +0.000 A 
ATOM     21  C   UNL     1       7.783   5.082  14.445  0.00  0.00    +0.000 A 
ATOM     22  C   UNL     1       7.353   4.231  13.429  0.00  0.00    +0.000 A 
ATOM     23  C   UNL     1       6.007   3.879  13.339  0.00  0.00    +0.000 A 
ATOM     24  C   UNL     1       5.092   4.351  14.285  0.00  0.00    +0.000 A 
ENDBRANCH  10  19
BRANCH   1  25
ATOM     25  N   UNL     1       3.940   3.541  17.349  0.00  0.00    +0.000 N 
ATOM     26  H   UNL     1       4.814   3.028  17.399  0.00  0.00    +0.000 HD
ATOM     27  H   UNL     1       3.170   2.967  17.001  0.00  0.00    +0.000 HD
ENDBRANCH   1  25
BRANCH   6  28
ATOM     28  C   UNL     1       1.342   9.428  20.812  0.00  0.00    +0.000 C 
BRANCH  28  29
ATOM     29  C   UNL     1      -0.192   9.514  20.967  0.00  0.00    +0.000 C 
ATOM     30  C   UNL     1      -0.715   9.075  22.334  0.00  0.00    +0.000 C 
ATOM     31  C   UNL     1      -0.736  10.365  23.112  0.00  0.00    +0.000 C 
ATOM     32  C   UNL     1      -1.162  11.349  22.049  0.00  0.00    +0.000 C 
ATOM     33  O   UNL     1      -0.594  10.896  20.813  0.00  0.00    +0.000 OA
ENDBRANCH  28  29
ENDBRANCH   6  28
TORSDOF 5
ENDMDL
MODEL 8
REMARK VINA RESULT:      -7.1      1.815      2.463
REMARK  Name = 
REMARK  5 active torsions:
REMARK  status: ('A' for Active; 'I' for Inactive)
REMARK    1  A    between atoms: N_1  and  C_2
REMARK    2  A    between atoms: C_4  and  C_5
REMARK    3  A    between atoms: N_14  and  C_15
REMARK    4  A    between atoms: C_15  and  C_16
REMARK    5  A    between atoms: N_24  and  C_25
REMARK                            x       y       z     vdW  Elec       q    Type
REMARK                         _______ _______ _______ _____ _____    ______ ____
ROOT
ATOM      1  C   UNL     1       1.863   7.785  19.415  0.00  0.00    +0.000 A 
ATOM      2  C   UNL     1       2.691   7.092  18.548  0.00  0.00    +0.000 A 
ATOM      3  C   UNL     1       3.106   5.749  18.499  0.00  0.00    +0.000 A 
ATOM      4  N   UNL     1       3.920   5.486  17.420  0.00  0.00    +0.000 NA
ATOM      5  C   UNL     1       4.322   6.469  16.563  0.00  0.00    +0.000 A 
ATOM      6  N   UNL     1       5.188   6.158  15.521  0.00  0.00    +0.000 N 
ATOM      7  N   UNL     1       3.960   7.760  16.591  0.00  0.00    +0.000 NA
ATOM      8  C   UNL     1       3.087   8.042  17.574  0.00  0.00    +0.000 A 
ATOM      9  N   UNL     1       2.460   9.204  17.712  0.00  0.00    +0.000 NA
ATOM     10  N   UNL     1       1.739   9.072  18.849  0.00  0.00    +0.000 N 
ATOM     11  H   UNL     1       6.071   6.605  15.723  0.00  0.00    +0.000 HD
ENDROOT
BRANCH   3  12
ATOM     12  C   UNL     1       2.700   4.621  19.352  0.00  0.00    +0.000 A 
ATOM     13  C   UNL     1       1.337   4.412  19.655  0.00  0.00    +0.000 A 
ATOM     14  C   UNL     1       0.906   3.395  20.516  0.00  0.00    +0.000 A 
ATOM     15  C   UNL     1       1.822   2.489  21.028  0.00  0.00    +0.000 A 
ATOM     16  C   UNL     1       3.164   2.608  20.683  0.00  0.00    +0.000 A 
ATOM     17  C   UNL     1       3.605   3.666  19.868  0.00  0.00    +0.000 A 
ATOM     18 CL   UNL     1       5.313   3.724  19.577  0.00  0.00    +0.000 Cl
ENDBRANCH   3  12
BRANCH  10  19
ATOM     19  C   UNL     1       0.965  10.184  19.299  0.00  0.00    +0.000 A 
ATOM     20  C   UNL     1      -0.246  10.483  18.654  0.00  0.00    +0.000 A 
ATOM     21  C   UNL     1      -1.045  11.531  19.113  0.00  0.00    +0.000 A 
ATOM     22  C   UNL     1      -0.630  12.307  20.194  0.00  0.00    +0.000 A 
ATOM     23  C   UNL     1       0.594  12.048  20.807  0.00  0.00    +0.000 A 
ATOM     24  C   UNL     1       1.394  10.990  20.362  0.00  0.00    +0.000 A 
ENDBRANCH  10  19
BRANCH   1  25
ATOM     25  N   UNL     1       1.209   7.420  20.552  0.00  0.00    +0.000 N 
ATOM     26  H   UNL     1       1.685   7.250  21.432  0.00  0.00    +0.000 HD
ATOM     27  H   UNL     1       0.299   6.958  20.505  0.00  0.00    +0.000 HD
ENDBRANCH   1  25
BRANCH   6  28
ATOM     28  C   UNL     1       5.284   4.771  15.096  0.00  0.00    +0.000 C 
BRANCH  28  29
ATOM     29  C   UNL     1       6.727   4.372  14.719  0.00  0.00    +0.000 C 
ATOM     30  C   UNL     1       6.842   3.553  13.434  0.00  0.00    +0.000 C 
ATOM     31  C   UNL     1       7.042   4.612  12.381  0.00  0.00    +0.000 C 
ATOM     32  C   UNL     1       7.907   5.607  13.118  0.00  0.00    +0.000 C 
ATOM     33  O   UNL     1       7.494   5.579  14.491  0.00  0.00    +0.000 OA
ENDBRANCH  28  29
ENDBRANCH   6  28
TORSDOF 5
ENDMDL
MODEL 9
REMARK VINA RESULT:      -7.1      3.939      6.781
REMARK  Name = 
REMARK  5 active torsions:
REMARK  status: ('A' for Active; 'I' for Inactive)
REMARK    1  A    between atoms: N_1  and  C_2
REMARK    2  A    between atoms: C_4  and  C_5
REMARK    3  A    between atoms: N_14  and  C_15
REMARK    4  A    between atoms: C_15  and  C_16
REMARK    5  A    between atoms: N_24  and  C_25
REMARK                            x       y       z     vdW  Elec       q    Type
REMARK                         _______ _______ _______ _____ _____    ______ ____
ROOT
ATOM      1  C   UNL     1      -0.082  13.351  19.597  0.00  0.00    +0.000 A 
ATOM      2  C   UNL     1       0.001  12.005  19.912  0.00  0.00    +0.000 A 
ATOM      3  C   UNL     1      -0.709  10.877  19.462  0.00  0.00    +0.000 A 
ATOM      4  N   UNL     1      -0.257   9.707  20.030  0.00  0.00    +0.000 NA
ATOM      5  C   UNL     1       0.718   9.698  20.983  0.00  0.00    +0.000 A 
ATOM      6  N   UNL     1       1.097   8.493  21.564  0.00  0.00    +0.000 N 
ATOM      7  N   UNL     1       1.402  10.754  21.446  0.00  0.00    +0.000 NA
ATOM      8  C   UNL     1       1.060  11.908  20.848  0.00  0.00    +0.000 A 
ATOM      9  N   UNL     1       1.700  13.060  21.015  0.00  0.00    +0.000 NA
ATOM     10  N   UNL     1       0.993  13.953  20.286  0.00  0.00    +0.000 N 
ATOM     11  H   UNL     1       0.794   8.516  22.527  0.00  0.00    +0.000 HD
ENDROOT
BRANCH   3  12
ATOM     12  C   UNL     1      -1.744  10.788  18.420  0.00  0.00    +0.000 A 
ATOM     13  C   UNL     1      -1.510  10.042  17.245  0.00  0.00    +0.000 A 
ATOM     14  C   UNL     1      -2.435   9.982  16.195  0.00  0.00    +0.000 A 
ATOM     15  C   UNL     1      -3.673  10.592  16.330  0.00  0.00    +0.000 A 
ATOM     16  C   UNL     1      -3.977  11.265  17.509  0.00  0.00    +0.000 A 
ATOM     17  C   UNL     1      -3.023  11.377  18.538  0.00  0.00    +0.000 A 
ATOM     18 CL   UNL     1      -3.519  12.299  19.919  0.00  0.00    +0.000 Cl
ENDBRANCH   3  12
BRANCH  10  19
ATOM     19  C   UNL     1       1.411  15.318  20.287  0.00  0.00    +0.000 A 
ATOM     20  C   UNL     1       2.321  15.756  19.311  0.00  0.00    +0.000 A 
ATOM     21  C   UNL     1       2.702  17.097  19.258  0.00  0.00    +0.000 A 
ATOM     22  C   UNL     1       2.205  18.004  20.193  0.00  0.00    +0.000 A 
ATOM     23  C   UNL     1       1.340  17.566  21.195  0.00  0.00    +0.000 A 
ATOM     24  C   UNL     1       0.944  16.226  21.245  0.00  0.00    +0.000 A 
ENDBRANCH  10  19
BRANCH   1  25
ATOM     25  N   UNL     1      -0.918  14.057  18.785  0.00  0.00    +0.000 N 
ATOM     26  H   UNL     1      -0.594  14.792  18.166  0.00  0.00    +0.000 HD
ATOM     27  H   UNL     1      -1.911  14.143  19.008  0.00  0.00    +0.000 HD
ENDBRANCH   1  25
BRANCH   6  28
ATOM     28  C   UNL     1       0.796   7.261  20.853  0.00  0.00    +0.000 C 
BRANCH  28  29
ATOM     29  C   UNL     1       2.065   6.437  20.544  0.00  0.00    +0.000 C 
ATOM     30  C   UNL     1       1.941   4.945  20.851  0.00  0.00    +0.000 C 
ATOM     31  C   UNL     1       1.459   4.374  19.544  0.00  0.00    +0.000 C 
ATOM     32  C   UNL     1       2.218   5.220  18.549  0.00  0.00    +0.000 C 
ATOM     33  O   UNL     1       2.339   6.528  19.125  0.00  0.00    +0.000 OA
ENDBRANCH  28  29
ENDBRANCH   6  28
TORSDOF 5
ENDMDL
