MODEL 1
REMARK VINA RESULT:      -8.3      0.000      0.000
REMARK  Name = 
REMARK  3 active torsions:
REMARK  status: ('A' for Active; 'I' for Inactive)
REMARK    1  A    between atoms: C_1  and  C_2
REMARK    2  A    between atoms: C_8  and  N_9
REMARK    3  A    between atoms: C_10  and  C_12
REMARK                            x       y       z     vdW  Elec       q    Type
REMARK                         _______ _______ _______ _____ _____    ______ ____
ROOT
ATOM      1  C   UNL     1       3.233   7.347  18.346  0.00  0.00    +0.000 C 
ATOM      2  C   UNL     1       4.055   7.291  17.085  0.00  0.00    +0.000 C 
ATOM      3  C   UNL     1       4.567   5.908  16.781  0.00  0.00    +0.000 C 
ATOM      4  O   UNL     1       5.326   5.765  15.821  0.00  0.00    +0.000 OA
ATOM      5  N   UNL     1       4.188   4.842  17.558  0.00  0.00    +0.000 NA
ATOM      6  C   UNL     1       3.160   4.956  18.320  0.00  0.00    +0.000 C 
ATOM      7  N   UNL     1       2.689   3.966  19.139  0.00  0.00    +0.000 N 
ATOM      8  C   UNL     1       1.273   3.587  19.170  0.00  0.00    +0.000 C 
ATOM      9  C   UNL     1       0.876   3.334  20.621  0.00  0.00    +0.000 C 
ATOM     10  C   UNL     1       1.787   2.295  21.278  0.00  0.00    +0.000 C 
ATOM     11  C   UNL     1       3.269   2.613  21.059  0.00  0.00    +0.000 C 
ATOM     12  C   UNL     1       3.574   2.887  19.586  0.00  0.00    +0.000 C 
ATOM     13  N   UNL     1       2.471   6.112  18.512  0.00  0.00    +0.000 N 
ATOM     14  H   UNL     1       2.014   6.090  19.423  0.00  0.00    +0.000 HD
ENDROOT
BRANCH   1  16
ATOM     15  N   UNL     1       1.466   8.653  19.424  0.00  0.00    +0.000 N 
ATOM     16  C   UNL     1       2.265   8.536  18.292  0.00  0.00    +0.000 C 
ATOM     17  O   UNL     1       2.213   9.237  17.283  0.00  0.00    +0.000 OA
ATOM     18  H   UNL     1       1.569   7.897  20.096  0.00  0.00    +0.000 HD
BRANCH  15  26
ATOM     19  C   UNL     1       0.946   9.357  22.199  0.00  0.00    +0.000 C 
ATOM     20  C   UNL     1       0.259  10.049  21.047  0.00  0.00    +0.000 A 
ATOM     21  C   UNL     1      -0.666  11.093  21.280  0.00  0.00    +0.000 A 
ATOM     22 CL   UNL     1      -1.066  11.651  22.870  0.00  0.00    +0.000 Cl
ATOM     23  C   UNL     1      -1.311  11.739  20.222  0.00  0.00    +0.000 A 
ATOM     24  C   UNL     1      -1.037  11.371  18.914  0.00  0.00    +0.000 A 
ATOM     25  C   UNL     1      -0.120  10.352  18.663  0.00  0.00    +0.000 A 
ATOM     26  C   UNL     1       0.529   9.676  19.707  0.00  0.00    +0.000 A 
ENDBRANCH  15  26
ENDBRANCH   1  16
TORSDOF 2
ENDMDL
MODEL 2
REMARK VINA RESULT:      -8.1      2.497      4.523
REMARK  Name = 
REMARK  3 active torsions:
REMARK  status: ('A' for Active; 'I' for Inactive)
REMARK    1  A    between atoms: C_1  and  C_2
REMARK    2  A    between atoms: C_8  and  N_9
REMARK    3  A    between atoms: C_10  and  C_12
REMARK                            x       y       z     vdW  Elec       q    Type
REMARK                         _______ _______ _______ _____ _____    ______ ____
ROOT
ATOM      1  C   UNL     1       2.685   4.348  19.400  0.00  0.00    +0.000 C 
ATOM      2  C   UNL     1       3.197   3.399  20.452  0.00  0.00    +0.000 C 
ATOM      3  C   UNL     1       4.466   2.700  20.040  0.00  0.00    +0.000 C 
ATOM      4  O   UNL     1       4.924   1.834  20.787  0.00  0.00    +0.000 OA
ATOM      5  N   UNL     1       5.089   3.031  18.863  0.00  0.00    +0.000 NA
ATOM      6  C   UNL     1       4.790   4.139  18.285  0.00  0.00    +0.000 C 
ATOM      7  N   UNL     1       5.341   4.573  17.110  0.00  0.00    +0.000 N 
ATOM      8  C   UNL     1       5.872   5.931  16.953  0.00  0.00    +0.000 C 
ATOM      9  C   UNL     1       5.474   6.444  15.572  0.00  0.00    +0.000 C 
ATOM     10  C   UNL     1       5.934   5.491  14.467  0.00  0.00    +0.000 C 
ATOM     11  C   UNL     1       5.534   4.042  14.758  0.00  0.00    +0.000 C 
ATOM     12  C   UNL     1       5.937   3.620  16.171  0.00  0.00    +0.000 C 
ATOM     13  N   UNL     1       3.798   4.974  18.692  0.00  0.00    +0.000 N 
ATOM     14  H   UNL     1       3.461   5.517  17.899  0.00  0.00    +0.000 HD
ENDROOT
BRANCH   1  16
ATOM     15  N   UNL     1       2.316   6.724  19.863  0.00  0.00    +0.000 N 
ATOM     16  C   UNL     1       1.821   5.437  20.051  0.00  0.00    +0.000 C 
ATOM     17  O   UNL     1       0.835   5.121  20.714  0.00  0.00    +0.000 OA
ATOM     18  H   UNL     1       3.218   6.767  19.395  0.00  0.00    +0.000 HD
BRANCH  15  26
ATOM     19  C   UNL     1       1.770   8.773  17.870  0.00  0.00    +0.000 C 
ATOM     20  C   UNL     1       1.431   8.953  19.330  0.00  0.00    +0.000 A 
ATOM     21  C   UNL     1       0.811  10.140  19.785  0.00  0.00    +0.000 A 
ATOM     22 CL   UNL     1       0.394  11.444  18.725  0.00  0.00    +0.000 Cl
ATOM     23  C   UNL     1       0.495  10.320  21.135  0.00  0.00    +0.000 A 
ATOM     24  C   UNL     1       0.776   9.320  22.052  0.00  0.00    +0.000 A 
ATOM     25  C   UNL     1       1.376   8.139  21.622  0.00  0.00    +0.000 A 
ATOM     26  C   UNL     1       1.718   7.939  20.276  0.00  0.00    +0.000 A 
ENDBRANCH  15  26
ENDBRANCH   1  16
TORSDOF 2
ENDMDL
MODEL 3
REMARK VINA RESULT:      -7.8      3.284      8.076
REMARK  Name = 
REMARK  3 active torsions:
REMARK  status: ('A' for Active; 'I' for Inactive)
REMARK    1  A    between atoms: C_1  and  C_2
REMARK    2  A    between atoms: C_8  and  N_9
REMARK    3  A    between atoms: C_10  and  C_12
REMARK                            x       y       z     vdW  Elec       q    Type
REMARK                         _______ _______ _______ _____ _____    ______ ____
ROOT
ATOM      1  C   UNL     1       1.628   9.361  20.438  0.00  0.00    +0.000 C 
ATOM      2  C   UNL     1       1.176   8.727  21.727  0.00  0.00    +0.000 C 
ATOM      3  C   UNL     1       0.421   9.680  22.615  0.00  0.00    +0.000 C 
ATOM      4  O   UNL     1       0.083   9.293  23.734  0.00  0.00    +0.000 OA
ATOM      5  N   UNL     1       0.120  10.946  22.175  0.00  0.00    +0.000 NA
ATOM      6  C   UNL     1       0.181  11.204  20.919  0.00  0.00    +0.000 C 
ATOM      7  N   UNL     1      -0.092  12.425  20.364  0.00  0.00    +0.000 N 
ATOM      8  C   UNL     1      -0.983  12.574  19.209  0.00  0.00    +0.000 C 
ATOM      9  C   UNL     1      -0.380  13.615  18.271  0.00  0.00    +0.000 C 
ATOM     10  C   UNL     1      -0.115  14.937  18.997  0.00  0.00    +0.000 C 
ATOM     11  C   UNL     1       0.650  14.727  20.306  0.00  0.00    +0.000 C 
ATOM     12  C   UNL     1       0.000  13.645  21.170  0.00  0.00    +0.000 C 
ATOM     13  N   UNL     1       0.645  10.338  19.978  0.00  0.00    +0.000 N 
ATOM     14  H   UNL     1       1.001  10.860  19.180  0.00  0.00    +0.000 HD
ENDROOT
BRANCH   1  16
ATOM     15  N   UNL     1       2.495   7.158  19.811  0.00  0.00    +0.000 N 
ATOM     16  C   UNL     1       1.814   8.285  19.359  0.00  0.00    +0.000 C 
ATOM     17  O   UNL     1       1.429   8.497  18.211  0.00  0.00    +0.000 OA
ATOM     18  H   UNL     1       2.846   7.228  20.763  0.00  0.00    +0.000 HD
BRANCH  15  26
ATOM     19  C   UNL     1       1.115   4.708  20.558  0.00  0.00    +0.000 C 
ATOM     20  C   UNL     1       2.102   4.765  19.418  0.00  0.00    +0.000 A 
ATOM     21  C   UNL     1       2.383   3.612  18.648  0.00  0.00    +0.000 A 
ATOM     22 CL   UNL     1       1.627   2.083  18.944  0.00  0.00    +0.000 Cl
ATOM     23  C   UNL     1       3.297   3.652  17.591  0.00  0.00    +0.000 A 
ATOM     24  C   UNL     1       3.935   4.840  17.270  0.00  0.00    +0.000 A 
ATOM     25  C   UNL     1       3.663   5.989  18.009  0.00  0.00    +0.000 A 
ATOM     26  C   UNL     1       2.763   5.973  19.085  0.00  0.00    +0.000 A 
ENDBRANCH  15  26
ENDBRANCH   1  16
TORSDOF 2
ENDMDL
MODEL 4
REMARK VINA RESULT:      -7.8      2.668      4.604
REMARK  Name = 
REMARK  3 active torsions:
REMARK  status: ('A' for Active; 'I' for Inactive)
REMARK    1  A    between atoms: C_1  and  C_2
REMARK    2  A    between atoms: C_8  and  N_9
REMARK    3  A    between atoms: C_10  and  C_12
REMARK                            x       y       z     vdW  Elec       q    Type
REMARK                         _______ _______ _______ _____ _____    ______ ____
ROOT
ATOM      1  C   UNL     1       2.971   4.624  19.492  0.00  0.00    +0.000 C 
ATOM      2  C   UNL     1       3.130   3.426  20.391  0.00  0.00    +0.000 C 
ATOM      3  C   UNL     1       4.448   2.724  20.202  0.00  0.00    +0.000 C 
ATOM      4  O   UNL     1       4.648   1.679  20.823  0.00  0.00    +0.000 OA
ATOM      5  N   UNL     1       5.398   3.248  19.360  0.00  0.00    +0.000 NA
ATOM      6  C   UNL     1       5.307   4.477  18.999  0.00  0.00    +0.000 C 
ATOM      7  N   UNL     1       6.189   5.107  18.163  0.00  0.00    +0.000 N 
ATOM      8  C   UNL     1       6.771   6.413  18.487  0.00  0.00    +0.000 C 
ATOM      9  C   UNL     1       6.809   7.250  17.211  0.00  0.00    +0.000 C 
ATOM     10  C   UNL     1       7.554   6.524  16.088  0.00  0.00    +0.000 C 
ATOM     11  C   UNL     1       7.056   5.088  15.905  0.00  0.00    +0.000 C 
ATOM     12  C   UNL     1       7.015   4.333  17.234  0.00  0.00    +0.000 C 
ATOM     13  N   UNL     1       4.256   5.288  19.295  0.00  0.00    +0.000 N 
ATOM     14  H   UNL     1       4.181   6.019  18.590  0.00  0.00    +0.000 HD
ENDROOT
BRANCH   1  16
ATOM     15  N   UNL     1       2.354   6.948  19.954  0.00  0.00    +0.000 N 
ATOM     16  C   UNL     1       1.977   5.618  20.110  0.00  0.00    +0.000 C 
ATOM     17  O   UNL     1       0.997   5.200  20.724  0.00  0.00    +0.000 OA
ATOM     18  H   UNL     1       3.267   7.084  19.529  0.00  0.00    +0.000 HD
BRANCH  15  26
ATOM     19  C   UNL     1       1.669   8.939  17.946  0.00  0.00    +0.000 C 
ATOM     20  C   UNL     1       1.266   9.079  19.394  0.00  0.00    +0.000 A 
ATOM     21  C   UNL     1       0.514  10.195  19.830  0.00  0.00    +0.000 A 
ATOM     22 CL   UNL     1       0.003  11.455  18.757  0.00  0.00    +0.000 Cl
ATOM     23  C   UNL     1       0.138  10.337  21.168  0.00  0.00    +0.000 A 
ATOM     24  C   UNL     1       0.488   9.366  22.094  0.00  0.00    +0.000 A 
ATOM     25  C   UNL     1       1.218   8.254  21.682  0.00  0.00    +0.000 A 
ATOM     26  C   UNL     1       1.623   8.095  20.349  0.00  0.00    +0.000 A 
ENDBRANCH  15  26
ENDBRANCH   1  16
TORSDOF 2
ENDMDL
MODEL 5
REMARK VINA RESULT:      -7.7      3.857      8.229
REMARK  Name = 
REMARK  3 active torsions:
REMARK  status: ('A' for Active; 'I' for Inactive)
REMARK    1  A    between atoms: C_1  and  C_2
REMARK    2  A    between atoms: C_8  and  N_9
REMARK    3  A    between atoms: C_10  and  C_12
REMARK                            x       y       z     vdW  Elec       q    Type
REMARK                         _______ _______ _______ _____ _____    ______ ____
ROOT
ATOM      1  C   UNL     1       0.667   9.790  21.837  0.00  0.00    +0.000 C 
ATOM      2  C   UNL     1      -0.535  10.119  22.685  0.00  0.00    +0.000 C 
ATOM      3  C   UNL     1      -0.840  11.593  22.719  0.00  0.00    +0.000 C 
ATOM      4  O   UNL     1      -1.747  11.985  23.454  0.00  0.00    +0.000 OA
ATOM      5  N   UNL     1      -0.121  12.468  21.942  0.00  0.00    +0.000 NA
ATOM      6  C   UNL     1       0.569  12.013  20.960  0.00  0.00    +0.000 C 
ATOM      7  N   UNL     1       1.326  12.785  20.120  0.00  0.00    +0.000 N 
ATOM      8  C   UNL     1       1.245  12.658  18.662  0.00  0.00    +0.000 C 
ATOM      9  C   UNL     1       2.658  12.764  18.093  0.00  0.00    +0.000 C 
ATOM     10  C   UNL     1       3.348  14.053  18.545  0.00  0.00    +0.000 C 
ATOM     11  C   UNL     1       3.244  14.258  20.059  0.00  0.00    +0.000 C 
ATOM     12  C   UNL     1       1.804  14.101  20.549  0.00  0.00    +0.000 C 
ATOM     13  N   UNL     1       0.744  10.691  20.691  0.00  0.00    +0.000 N 
ATOM     14  H   UNL     1       1.619  10.558  20.186  0.00  0.00    +0.000 HD
ENDROOT
BRANCH   1  16
ATOM     15  N   UNL     1       1.744   7.891  20.730  0.00  0.00    +0.000 N 
ATOM     16  C   UNL     1       0.577   8.341  21.338  0.00  0.00    +0.000 C 
ATOM     17  O   UNL     1      -0.481   7.723  21.442  0.00  0.00    +0.000 OA
ATOM     18  H   UNL     1       2.468   8.597  20.624  0.00  0.00    +0.000 HD
BRANCH  15  26
ATOM     19  C   UNL     1       3.031   7.609  18.135  0.00  0.00    +0.000 C 
ATOM     20  C   UNL     1       2.634   6.419  18.975  0.00  0.00    +0.000 A 
ATOM     21  C   UNL     1       2.894   5.102  18.529  0.00  0.00    +0.000 A 
ATOM     22 CL   UNL     1       3.676   4.762  17.022  0.00  0.00    +0.000 Cl
ATOM     23  C   UNL     1       2.528   3.992  19.295  0.00  0.00    +0.000 A 
ATOM     24  C   UNL     1       1.914   4.171  20.525  0.00  0.00    +0.000 A 
ATOM     25  C   UNL     1       1.660   5.460  20.987  0.00  0.00    +0.000 A 
ATOM     26  C   UNL     1       2.001   6.591  20.231  0.00  0.00    +0.000 A 
ENDBRANCH  15  26
ENDBRANCH   1  16
TORSDOF 2
ENDMDL
MODEL 6
REMARK VINA RESULT:      -7.6      3.670      8.111
REMARK  Name = 
REMARK  3 active torsions:
REMARK  status: ('A' for Active; 'I' for Inactive)
REMARK    1  A    between atoms: C_1  and  C_2
REMARK    2  A    between atoms: C_8  and  N_9
REMARK    3  A    between atoms: C_10  and  C_12
REMARK                            x       y       z     vdW  Elec       q    Type
REMARK                         _______ _______ _______ _____ _____    ______ ____
ROOT
ATOM      1  C   UNL     1       1.581   8.948  20.963  0.00  0.00    +0.000 C 
ATOM      2  C   UNL     1       0.485   8.753  21.978  0.00  0.00    +0.000 C 
ATOM      3  C   UNL     1      -0.096  10.052  22.468  0.00  0.00    +0.000 C 
ATOM      4  O   UNL     1      -0.938  10.013  23.367  0.00  0.00    +0.000 OA
ATOM      5  N   UNL     1       0.306  11.244  21.917  0.00  0.00    +0.000 NA
ATOM      6  C   UNL     1       0.912  11.238  20.785  0.00  0.00    +0.000 C 
ATOM      7  N   UNL     1       1.362  12.358  20.140  0.00  0.00    +0.000 N 
ATOM      8  C   UNL     1       1.083  12.606  18.722  0.00  0.00    +0.000 C 
ATOM      9  C   UNL     1       2.341  13.184  18.080  0.00  0.00    +0.000 C 
ATOM     10  C   UNL     1       2.825  14.432  18.823  0.00  0.00    +0.000 C 
ATOM     11  C   UNL     1       2.918  14.200  20.333  0.00  0.00    +0.000 C 
ATOM     12  C   UNL     1       1.631  13.588  20.888  0.00  0.00    +0.000 C 
ATOM     13  N   UNL     1       1.301  10.113  20.127  0.00  0.00    +0.000 N 
ATOM     14  H   UNL     1       2.095  10.325  19.527  0.00  0.00    +0.000 HD
ENDROOT
BRANCH   1  16
ATOM     15  N   UNL     1       1.854   6.521  20.790  0.00  0.00    +0.000 N 
ATOM     16  C   UNL     1       1.703   7.704  20.073  0.00  0.00    +0.000 C 
ATOM     17  O   UNL     1       1.721   7.826  18.850  0.00  0.00    +0.000 OA
ATOM     18  H   UNL     1       1.946   6.644  21.796  0.00  0.00    +0.000 HD
BRANCH  15  26
ATOM     19  C   UNL     1       4.297   5.662  19.464  0.00  0.00    +0.000 C 
ATOM     20  C   UNL     1       3.101   4.755  19.624  0.00  0.00    +0.000 A 
ATOM     21  C   UNL     1       3.133   3.426  19.140  0.00  0.00    +0.000 A 
ATOM     22 CL   UNL     1       4.519   2.751  18.351  0.00  0.00    +0.000 Cl
ATOM     23  C   UNL     1       2.031   2.577  19.279  0.00  0.00    +0.000 A 
ATOM     24  C   UNL     1       0.885   3.028  19.915  0.00  0.00    +0.000 A 
ATOM     25  C   UNL     1       0.838   4.330  20.409  0.00  0.00    +0.000 A 
ATOM     26  C   UNL     1       1.923   5.207  20.268  0.00  0.00    +0.000 A 
ENDBRANCH  15  26
ENDBRANCH   1  16
TORSDOF 2
ENDMDL
MODEL 7
REMARK VINA RESULT:      -7.6      5.283      7.865
REMARK  Name = 
REMARK  3 active torsions:
REMARK  status: ('A' for Active; 'I' for Inactive)
REMARK    1  A    between atoms: C_1  and  C_2
REMARK    2  A    between atoms: C_8  and  N_9
REMARK    3  A    between atoms: C_10  and  C_12
REMARK                            x       y       z     vdW  Elec       q    Type
REMARK                         _______ _______ _______ _____ _____    ______ ____
ROOT
ATOM      1  C   UNL     1       5.426   6.039  17.493  0.00  0.00    +0.000 C 
ATOM      2  C   UNL     1       6.763   6.032  18.187  0.00  0.00    +0.000 C 
ATOM      3  C   UNL     1       6.709   5.412  19.557  0.00  0.00    +0.000 C 
ATOM      4  O   UNL     1       7.727   5.435  20.250  0.00  0.00    +0.000 OA
ATOM      5  N   UNL     1       5.548   4.834  20.011  0.00  0.00    +0.000 NA
ATOM      6  C   UNL     1       4.629   4.529  19.169  0.00  0.00    +0.000 C 
ATOM      7  N   UNL     1       3.432   3.954  19.502  0.00  0.00    +0.000 N 
ATOM      8  C   UNL     1       2.909   2.781  18.796  0.00  0.00    +0.000 C 
ATOM      9  C   UNL     1       1.406   2.967  18.605  0.00  0.00    +0.000 C 
ATOM     10  C   UNL     1       0.701   3.228  19.938  0.00  0.00    +0.000 C 
ATOM     11  C   UNL     1       1.392   4.330  20.746  0.00  0.00    +0.000 C 
ATOM     12  C   UNL     1       2.897   4.085  20.859  0.00  0.00    +0.000 C 
ATOM     13  N   UNL     1       4.662   4.845  17.846  0.00  0.00    +0.000 N 
ATOM     14  H   UNL     1       3.712   4.905  17.486  0.00  0.00    +0.000 HD
ENDROOT
BRANCH   1  16
ATOM     15  N   UNL     1       6.465   5.087  15.491  0.00  0.00    +0.000 N 
ATOM     16  C   UNL     1       5.621   6.084  15.972  0.00  0.00    +0.000 C 
ATOM     17  O   UNL     1       5.101   6.984  15.315  0.00  0.00    +0.000 OA
ATOM     18  H   UNL     1       6.901   4.517  16.211  0.00  0.00    +0.000 HD
BRANCH  15  26
ATOM     19  C   UNL     1       5.049   2.961  14.099  0.00  0.00    +0.000 C 
ATOM     20  C   UNL     1       6.112   3.797  13.430  0.00  0.00    +0.000 A 
ATOM     21  C   UNL     1       6.452   3.584  12.074  0.00  0.00    +0.000 A 
ATOM     22 CL   UNL     1       5.685   2.378  11.097  0.00  0.00    +0.000 Cl
ATOM     23  C   UNL     1       7.437   4.350  11.444  0.00  0.00    +0.000 A 
ATOM     24  C   UNL     1       8.090   5.351  12.145  0.00  0.00    +0.000 A 
ATOM     25  C   UNL     1       7.762   5.585  13.479  0.00  0.00    +0.000 A 
ATOM     26  C   UNL     1       6.789   4.820  14.140  0.00  0.00    +0.000 A 
ENDBRANCH  15  26
ENDBRANCH   1  16
TORSDOF 2
ENDMDL
MODEL 8
REMARK VINA RESULT:      -7.5      3.389      8.143
REMARK  Name = 
REMARK  3 active torsions:
REMARK  status: ('A' for Active; 'I' for Inactive)
REMARK    1  A    between atoms: C_1  and  C_2
REMARK    2  A    between atoms: C_8  and  N_9
REMARK    3  A    between atoms: C_10  and  C_12
REMARK                            x       y       z     vdW  Elec       q    Type
REMARK                         _______ _______ _______ _____ _____    ______ ____
ROOT
ATOM      1  C   UNL     1       1.659   9.236  20.149  0.00  0.00    +0.000 C 
ATOM      2  C   UNL     1       1.231   8.587  21.440  0.00  0.00    +0.000 C 
ATOM      3  C   UNL     1       0.536   9.543  22.373  0.00  0.00    +0.000 C 
ATOM      4  O   UNL     1       0.223   9.141  23.495  0.00  0.00    +0.000 OA
ATOM      5  N   UNL     1       0.259  10.827  21.970  0.00  0.00    +0.000 NA
ATOM      6  C   UNL     1       0.286  11.111  20.718  0.00  0.00    +0.000 C 
ATOM      7  N   UNL     1       0.032  12.351  20.200  0.00  0.00    +0.000 N 
ATOM      8  C   UNL     1      -0.892  12.552  19.079  0.00  0.00    +0.000 C 
ATOM      9  C   UNL     1      -0.289  13.596  18.142  0.00  0.00    +0.000 C 
ATOM     10  C   UNL     1       0.040  14.892  18.887  0.00  0.00    +0.000 C 
ATOM     11  C   UNL     1       0.841  14.631  20.165  0.00  0.00    +0.000 C 
ATOM     12  C   UNL     1       0.188  13.550  21.027  0.00  0.00    +0.000 C 
ATOM     13  N   UNL     1       0.692  10.253  19.744  0.00  0.00    +0.000 N 
ATOM     14  H   UNL     1       1.037  10.781  18.946  0.00  0.00    +0.000 HD
ENDROOT
BRANCH   1  16
ATOM     15  N   UNL     1       2.362   6.992  19.470  0.00  0.00    +0.000 N 
ATOM     16  C   UNL     1       1.777   8.180  19.043  0.00  0.00    +0.000 C 
ATOM     17  O   UNL     1       1.426   8.452  17.897  0.00  0.00    +0.000 OA
ATOM     18  H   UNL     1       2.705   7.008  20.427  0.00  0.00    +0.000 HD
BRANCH  15  26
ATOM     19  C   UNL     1       4.575   6.863  17.585  0.00  0.00    +0.000 C 
ATOM     20  C   UNL     1       3.622   5.712  17.793  0.00  0.00    +0.000 A 
ATOM     21  C   UNL     1       3.783   4.502  17.077  0.00  0.00    +0.000 A 
ATOM     22 CL   UNL     1       5.064   4.253  15.939  0.00  0.00    +0.000 Cl
ATOM     23  C   UNL     1       2.905   3.430  17.258  0.00  0.00    +0.000 A 
ATOM     24  C   UNL     1       1.861   3.535  18.164  0.00  0.00    +0.000 A 
ATOM     25  C   UNL     1       1.692   4.713  18.887  0.00  0.00    +0.000 A 
ATOM     26  C   UNL     1       2.549   5.810  18.713  0.00  0.00    +0.000 A 
ENDBRANCH  15  26
ENDBRANCH   1  16
TORSDOF 2
ENDMDL
MODEL 9
REMARK VINA RESULT:      -7.5      2.483      4.421
REMARK  Name = 
REMARK  3 active torsions:
REMARK  status: ('A' for Active; 'I' for Inactive)
REMARK    1  A    between atoms: C_1  and  C_2
REMARK    2  A    between atoms: C_8  and  N_9
REMARK    3  A    between atoms: C_10  and  C_12
REMARK                            x       y       z     vdW  Elec       q    Type
REMARK                         _______ _______ _______ _____ _____    ______ ____
ROOT
ATOM      1  C   UNL     1       2.388   4.896  18.776  0.00  0.00    +0.000 C 
ATOM      2  C   UNL     1       1.931   3.527  19.209  0.00  0.00    +0.000 C 
ATOM      3  C   UNL     1       2.737   2.417  18.587  0.00  0.00    +0.000 C 
ATOM      4  O   UNL     1       2.393   1.254  18.802  0.00  0.00    +0.000 OA
ATOM      5  N   UNL     1       3.829   2.707  17.806  0.00  0.00    +0.000 NA
ATOM      6  C   UNL     1       4.354   3.877  17.873  0.00  0.00    +0.000 C 
ATOM      7  N   UNL     1       5.439   4.282  17.142  0.00  0.00    +0.000 N 
ATOM      8  C   UNL     1       6.584   4.958  17.758  0.00  0.00    +0.000 C 
ATOM      9  C   UNL     1       7.038   6.077  16.825  0.00  0.00    +0.000 C 
ATOM     10  C   UNL     1       7.340   5.548  15.421  0.00  0.00    +0.000 C 
ATOM     11  C   UNL     1       6.203   4.677  14.881  0.00  0.00    +0.000 C 
ATOM     12  C   UNL     1       5.786   3.606  15.890  0.00  0.00    +0.000 C 
ATOM     13  N   UNL     1       3.835   4.913  18.583  0.00  0.00    +0.000 N 
ATOM     14  H   UNL     1       4.133   5.795  18.169  0.00  0.00    +0.000 HD
ENDROOT
BRANCH   1  16
ATOM     15  N   UNL     1       1.900   7.230  19.329  0.00  0.00    +0.000 N 
ATOM     16  C   UNL     1       2.004   5.938  19.835  0.00  0.00    +0.000 C 
ATOM     17  O   UNL     1       1.881   5.599  21.010  0.00  0.00    +0.000 OA
ATOM     18  H   UNL     1       2.168   7.327  18.353  0.00  0.00    +0.000 HD
BRANCH  15  26
ATOM     19  C   UNL     1       1.479   9.695  17.842  0.00  0.00    +0.000 C 
ATOM     20  C   UNL     1       1.278   9.607  19.335  0.00  0.00    +0.000 A 
ATOM     21  C   UNL     1       0.854  10.736  20.074  0.00  0.00    +0.000 A 
ATOM     22 CL   UNL     1       0.533  12.270  19.338  0.00  0.00    +0.000 Cl
ATOM     23  C   UNL     1       0.668  10.668  21.458  0.00  0.00    +0.000 A 
ATOM     24  C   UNL     1       0.884   9.474  22.128  0.00  0.00    +0.000 A 
ATOM     25  C   UNL     1       1.290   8.348  21.417  0.00  0.00    +0.000 A 
ATOM     26  C   UNL     1       1.500   8.393  20.031  0.00  0.00    +0.000 A 
ENDBRANCH  15  26
ENDBRANCH   1  16
TORSDOF 2
ENDMDL
