MODEL 1
REMARK VINA RESULT:      -7.9      0.000      0.000
REMARK  Name = 
REMARK  8 active torsions:
REMARK  status: ('A' for Active; 'I' for Inactive)
REMARK    1  A    between atoms: C_1  and  O_2
REMARK    2  A    between atoms: O_2  and  C_3
REMARK    3  A    between atoms: C_6  and  C_7
REMARK    4  A    between atoms: C_7  and  C_8
REMARK    5  A    between atoms: C_7  and  C_15
REMARK    6  A    between atoms: C_8  and  C_9
REMARK    7  A    between atoms: C_9  and  N_10
REMARK    8  A    between atoms: C_15  and  C_16
REMARK                            x       y       z     vdW  Elec       q    Type
REMARK                         _______ _______ _______ _____ _____    ______ ____
ROOT
ATOM      1  C   UNL     1       2.992   6.805  18.498  0.00  0.00    +0.000 C 
ENDROOT
BRANCH   1   5
ATOM      2  C   UNL     1       0.246  10.043  19.375  0.00  0.00    +0.000 A 
ATOM      3  C   UNL     1       0.705   9.835  18.075  0.00  0.00    +0.000 A 
ATOM      4  C   UNL     1       1.650   8.841  17.811  0.00  0.00    +0.000 A 
ATOM      5  C   UNL     1       2.122   8.009  18.840  0.00  0.00    +0.000 A 
ATOM      6  C   UNL     1       1.677   8.250  20.143  0.00  0.00    +0.000 A 
ATOM      7  C   UNL     1       0.767   9.275  20.412  0.00  0.00    +0.000 A 
BRANCH   2   9
ATOM      8  C   UNL     1      -0.172  12.336  19.722  0.00  0.00    +0.000 C 
ATOM      9  O   UNL     1      -0.693  11.025  19.524  0.00  0.00    +0.000 OA
ENDBRANCH   2   9
ENDBRANCH   1   5
BRANCH   1  10
ATOM     10  C   UNL     1       4.002   7.201  17.383  0.00  0.00    +0.000 C 
BRANCH  10  11
ATOM     11  C   UNL     1       5.032   6.106  17.078  0.00  0.00    +0.000 C 
BRANCH  11  12
ATOM     12  N   UNL     1       6.070   5.998  18.078  0.00  0.00    +0.000 N 
ATOM     13  C   UNL     1       6.040   5.256  19.217  0.00  0.00    +0.000 A 
ATOM     14  N   UNL     1       7.210   5.317  19.809  0.00  0.00    +0.000 NA
ATOM     15  C   UNL     1       7.936   6.110  18.965  0.00  0.00    +0.000 A 
ATOM     16  N   UNL     1       7.279   6.554  17.890  0.00  0.00    +0.000 NA
ENDBRANCH  11  12
ENDBRANCH  10  11
ENDBRANCH   1  10
BRANCH   1  17
ATOM     17  C   UNL     1       2.200   5.538  18.060  0.00  0.00    +0.000 C 
BRANCH  17  18
ATOM     18  C   UNL     1       1.940   4.533  19.164  0.00  0.00    +0.000 A 
ATOM     19  C   UNL     1       1.214   3.356  18.907  0.00  0.00    +0.000 A 
ATOM     20  C   UNL     1       0.952   2.444  19.930  0.00  0.00    +0.000 A 
ATOM     21  C   UNL     1       1.425   2.684  21.213  0.00  0.00    +0.000 A 
ATOM     22  C   UNL     1       2.164   3.834  21.479  0.00  0.00    +0.000 A 
ATOM     23  C   UNL     1       2.421   4.754  20.461  0.00  0.00    +0.000 A 
ENDBRANCH  17  18
ENDBRANCH   1  17
TORSDOF 7
ENDMDL
MODEL 2
REMARK VINA RESULT:      -7.8      0.896      1.072
REMARK  Name = 
REMARK  8 active torsions:
REMARK  status: ('A' for Active; 'I' for Inactive)
REMARK    1  A    between atoms: C_1  and  O_2
REMARK    2  A    between atoms: O_2  and  C_3
REMARK    3  A    between atoms: C_6  and  C_7
REMARK    4  A    between atoms: C_7  and  C_8
REMARK    5  A    between atoms: C_7  and  C_15
REMARK    6  A    between atoms: C_8  and  C_9
REMARK    7  A    between atoms: C_9  and  N_10
REMARK    8  A    between atoms: C_15  and  C_16
REMARK                            x       y       z     vdW  Elec       q    Type
REMARK                         _______ _______ _______ _____ _____    ______ ____
ROOT
ATOM      1  C   UNL     1       3.127   6.616  18.534  0.00  0.00    +0.000 C 
ENDROOT
BRANCH   1   5
ATOM      2  C   UNL     1       0.522  10.015  19.208  0.00  0.00    +0.000 A 
ATOM      3  C   UNL     1       1.079   9.787  17.951  0.00  0.00    +0.000 A 
ATOM      4  C   UNL     1       1.980   8.737  17.757  0.00  0.00    +0.000 A 
ATOM      5  C   UNL     1       2.307   7.870  18.813  0.00  0.00    +0.000 A 
ATOM      6  C   UNL     1       1.766   8.131  20.076  0.00  0.00    +0.000 A 
ATOM      7  C   UNL     1       0.903   9.209  20.278  0.00  0.00    +0.000 A 
BRANCH   2   9
ATOM      8  C   UNL     1       0.224  12.352  19.276  0.00  0.00    +0.000 C 
ATOM      9  O   UNL     1      -0.363  11.054  19.287  0.00  0.00    +0.000 OA
ENDBRANCH   2   9
ENDBRANCH   1   5
BRANCH   1  10
ATOM     10  C   UNL     1       4.182   6.927  17.434  0.00  0.00    +0.000 C 
BRANCH  10  11
ATOM     11  C   UNL     1       4.639   5.683  16.660  0.00  0.00    +0.000 C 
BRANCH  11  12
ATOM     12  N   UNL     1       5.935   5.193  17.073  0.00  0.00    +0.000 N 
ATOM     13  C   UNL     1       6.831   4.504  16.317  0.00  0.00    +0.000 A 
ATOM     14  N   UNL     1       7.941   4.339  16.999  0.00  0.00    +0.000 NA
ATOM     15  C   UNL     1       7.669   4.972  18.180  0.00  0.00    +0.000 A 
ATOM     16  N   UNL     1       6.450   5.511  18.273  0.00  0.00    +0.000 NA
ENDBRANCH  11  12
ENDBRANCH  10  11
ENDBRANCH   1  10
BRANCH   1  17
ATOM     17  C   UNL     1       2.287   5.374  18.116  0.00  0.00    +0.000 C 
BRANCH  17  18
ATOM     18  C   UNL     1       1.990   4.396  19.234  0.00  0.00    +0.000 A 
ATOM     19  C   UNL     1       1.232   3.236  18.992  0.00  0.00    +0.000 A 
ATOM     20  C   UNL     1       0.937   2.349  20.028  0.00  0.00    +0.000 A 
ATOM     21  C   UNL     1       1.407   2.599  21.310  0.00  0.00    +0.000 A 
ATOM     22  C   UNL     1       2.177   3.732  21.563  0.00  0.00    +0.000 A 
ATOM     23  C   UNL     1       2.468   4.626  20.531  0.00  0.00    +0.000 A 
ENDBRANCH  17  18
ENDBRANCH   1  17
TORSDOF 7
ENDMDL
MODEL 3
REMARK VINA RESULT:      -7.8      2.436      4.766
REMARK  Name = 
REMARK  8 active torsions:
REMARK  status: ('A' for Active; 'I' for Inactive)
REMARK    1  A    between atoms: C_1  and  O_2
REMARK    2  A    between atoms: O_2  and  C_3
REMARK    3  A    between atoms: C_6  and  C_7
REMARK    4  A    between atoms: C_7  and  C_8
REMARK    5  A    between atoms: C_7  and  C_15
REMARK    6  A    between atoms: C_8  and  C_9
REMARK    7  A    between atoms: C_9  and  N_10
REMARK    8  A    between atoms: C_15  and  C_16
REMARK                            x       y       z     vdW  Elec       q    Type
REMARK                         _______ _______ _______ _____ _____    ______ ____
ROOT
ATOM      1  C   UNL     1       3.115   5.197  17.718  0.00  0.00    +0.000 C 
ENDROOT
BRANCH   1   5
ATOM      2  C   UNL     1       1.505   8.553  19.940  0.00  0.00    +0.000 A 
ATOM      3  C   UNL     1       1.869   8.698  18.602  0.00  0.00    +0.000 A 
ATOM      4  C   UNL     1       2.460   7.636  17.912  0.00  0.00    +0.000 A 
ATOM      5  C   UNL     1       2.660   6.397  18.541  0.00  0.00    +0.000 A 
ATOM      6  C   UNL     1       2.321   6.277  19.893  0.00  0.00    +0.000 A 
ATOM      7  C   UNL     1       1.773   7.353  20.593  0.00  0.00    +0.000 A 
BRANCH   2   9
ATOM      8  C   UNL     1       0.245  10.518  19.614  0.00  0.00    +0.000 C 
ATOM      9  O   UNL     1       0.915   9.643  20.517  0.00  0.00    +0.000 OA
ENDBRANCH   2   9
ENDBRANCH   1   5
BRANCH   1  10
ATOM     10  C   UNL     1       1.993   4.121  17.715  0.00  0.00    +0.000 C 
BRANCH  10  11
ATOM     11  C   UNL     1       2.434   2.780  18.316  0.00  0.00    +0.000 C 
BRANCH  11  12
ATOM     12  N   UNL     1       2.225   2.692  19.743  0.00  0.00    +0.000 N 
ATOM     13  C   UNL     1       3.173   2.529  20.704  0.00  0.00    +0.000 A 
ATOM     14  N   UNL     1       2.613   2.618  21.889  0.00  0.00    +0.000 NA
ATOM     15  C   UNL     1       1.301   2.856  21.587  0.00  0.00    +0.000 A 
ATOM     16  N   UNL     1       1.013   2.908  20.284  0.00  0.00    +0.000 NA
ENDBRANCH  11  12
ENDBRANCH  10  11
ENDBRANCH   1  10
BRANCH   1  17
ATOM     17  C   UNL     1       4.453   4.557  18.192  0.00  0.00    +0.000 C 
BRANCH  17  18
ATOM     18  C   UNL     1       5.652   5.482  18.160  0.00  0.00    +0.000 A 
ATOM     19  C   UNL     1       5.758   6.489  17.184  0.00  0.00    +0.000 A 
ATOM     20  C   UNL     1       6.876   7.322  17.139  0.00  0.00    +0.000 A 
ATOM     21  C   UNL     1       7.891   7.174  18.075  0.00  0.00    +0.000 A 
ATOM     22  C   UNL     1       7.792   6.196  19.062  0.00  0.00    +0.000 A 
ATOM     23  C   UNL     1       6.679   5.354  19.105  0.00  0.00    +0.000 A 
ENDBRANCH  17  18
ENDBRANCH   1  17
TORSDOF 7
ENDMDL
MODEL 4
REMARK VINA RESULT:      -7.8      2.491      4.874
REMARK  Name = 
REMARK  8 active torsions:
REMARK  status: ('A' for Active; 'I' for Inactive)
REMARK    1  A    between atoms: C_1  and  O_2
REMARK    2  A    between atoms: O_2  and  C_3
REMARK    3  A    between atoms: C_6  and  C_7
REMARK    4  A    between atoms: C_7  and  C_8
REMARK    5  A    between atoms: C_7  and  C_15
REMARK    6  A    between atoms: C_8  and  C_9
REMARK    7  A    between atoms: C_9  and  N_10
REMARK    8  A    between atoms: C_15  and  C_16
REMARK                            x       y       z     vdW  Elec       q    Type
REMARK                         _______ _______ _______ _____ _____    ______ ____
ROOT
ATOM      1  C   UNL     1       3.147   4.840  17.504  0.00  0.00    +0.000 C 
ENDROOT
BRANCH   1   5
ATOM      2  C   UNL     1       1.778   8.318  19.701  0.00  0.00    +0.000 A 
ATOM      3  C   UNL     1       2.132   8.423  18.356  0.00  0.00    +0.000 A 
ATOM      4  C   UNL     1       2.647   7.318  17.674  0.00  0.00    +0.000 A 
ATOM      5  C   UNL     1       2.778   6.076  18.317  0.00  0.00    +0.000 A 
ATOM      6  C   UNL     1       2.450   5.995  19.674  0.00  0.00    +0.000 A 
ATOM      7  C   UNL     1       1.979   7.112  20.366  0.00  0.00    +0.000 A 
BRANCH   2   9
ATOM      8  C   UNL     1       0.067   9.939  19.671  0.00  0.00    +0.000 C 
ATOM      9  O   UNL     1       1.264   9.450  20.270  0.00  0.00    +0.000 OA
ENDBRANCH   2   9
ENDBRANCH   1   5
BRANCH   1  10
ATOM     10  C   UNL     1       2.012   3.785  17.631  0.00  0.00    +0.000 C 
BRANCH  10  11
ATOM     11  C   UNL     1       2.449   2.504  18.355  0.00  0.00    +0.000 C 
BRANCH  11  12
ATOM     12  N   UNL     1       2.227   2.546  19.781  0.00  0.00    +0.000 N 
ATOM     13  C   UNL     1       3.165   2.457  20.762  0.00  0.00    +0.000 A 
ATOM     14  N   UNL     1       2.597   2.657  21.929  0.00  0.00    +0.000 NA
ATOM     15  C   UNL     1       1.291   2.884  21.596  0.00  0.00    +0.000 A 
ATOM     16  N   UNL     1       1.014   2.824  20.291  0.00  0.00    +0.000 NA
ENDBRANCH  11  12
ENDBRANCH  10  11
ENDBRANCH   1  10
BRANCH   1  17
ATOM     17  C   UNL     1       4.508   4.193  17.893  0.00  0.00    +0.000 C 
BRANCH  17  18
ATOM     18  C   UNL     1       5.677   5.154  17.965  0.00  0.00    +0.000 A 
ATOM     19  C   UNL     1       6.481   5.224  19.117  0.00  0.00    +0.000 A 
ATOM     20  C   UNL     1       7.541   6.129  19.192  0.00  0.00    +0.000 A 
ATOM     21  C   UNL     1       7.822   6.959  18.116  0.00  0.00    +0.000 A 
ATOM     22  C   UNL     1       7.050   6.887  16.958  0.00  0.00    +0.000 A 
ATOM     23  C   UNL     1       5.983   5.990  16.882  0.00  0.00    +0.000 A 
ENDBRANCH  17  18
ENDBRANCH   1  17
TORSDOF 7
ENDMDL
MODEL 5
REMARK VINA RESULT:      -7.8      1.901      2.588
REMARK  Name = 
REMARK  8 active torsions:
REMARK  status: ('A' for Active; 'I' for Inactive)
REMARK    1  A    between atoms: C_1  and  O_2
REMARK    2  A    between atoms: O_2  and  C_3
REMARK    3  A    between atoms: C_6  and  C_7
REMARK    4  A    between atoms: C_7  and  C_8
REMARK    5  A    between atoms: C_7  and  C_15
REMARK    6  A    between atoms: C_8  and  C_9
REMARK    7  A    between atoms: C_9  and  N_10
REMARK    8  A    between atoms: C_15  and  C_16
REMARK                            x       y       z     vdW  Elec       q    Type
REMARK                         _______ _______ _______ _____ _____    ______ ____
ROOT
ATOM      1  C   UNL     1       3.881   6.112  18.070  0.00  0.00    +0.000 C 
ENDROOT
BRANCH   1   5
ATOM      2  C   UNL     1       1.274   9.360  19.274  0.00  0.00    +0.000 A 
ATOM      3  C   UNL     1       1.560   8.317  20.153  0.00  0.00    +0.000 A 
ATOM      4  C   UNL     1       2.336   7.233  19.735  0.00  0.00    +0.000 A 
ATOM      5  C   UNL     1       2.874   7.195  18.438  0.00  0.00    +0.000 A 
ATOM      6  C   UNL     1       2.552   8.233  17.557  0.00  0.00    +0.000 A 
ATOM      7  C   UNL     1       1.737   9.291  17.963  0.00  0.00    +0.000 A 
BRANCH   2   9
ATOM      8  C   UNL     1      -0.373  10.011  20.829  0.00  0.00    +0.000 C 
ATOM      9  O   UNL     1       0.525  10.382  19.787  0.00  0.00    +0.000 OA
ENDBRANCH   2   9
ENDBRANCH   1   5
BRANCH   1  10
ATOM     10  C   UNL     1       4.740   6.597  16.868  0.00  0.00    +0.000 C 
BRANCH  10  11
ATOM     11  C   UNL     1       6.140   5.969  16.827  0.00  0.00    +0.000 C 
BRANCH  11  12
ATOM     12  N   UNL     1       6.409   5.242  15.608  0.00  0.00    +0.000 N 
ATOM     13  C   UNL     1       5.634   4.283  15.036  0.00  0.00    +0.000 A 
ATOM     14  N   UNL     1       6.146   3.943  13.875  0.00  0.00    +0.000 NA
ATOM     15  C   UNL     1       7.244   4.752  13.779  0.00  0.00    +0.000 A 
ATOM     16  N   UNL     1       7.448   5.565  14.819  0.00  0.00    +0.000 NA
ENDBRANCH  11  12
ENDBRANCH  10  11
ENDBRANCH   1  10
BRANCH   1  17
ATOM     17  C   UNL     1       3.249   4.729  17.736  0.00  0.00    +0.000 C 
BRANCH  17  18
ATOM     18  C   UNL     1       2.606   4.018  18.909  0.00  0.00    +0.000 A 
ATOM     19  C   UNL     1       1.233   3.714  18.901  0.00  0.00    +0.000 A 
ATOM     20  C   UNL     1       0.636   3.084  19.993  0.00  0.00    +0.000 A 
ATOM     21  C   UNL     1       1.403   2.735  21.097  0.00  0.00    +0.000 A 
ATOM     22  C   UNL     1       2.768   3.009  21.113  0.00  0.00    +0.000 A 
ATOM     23  C   UNL     1       3.368   3.647  20.025  0.00  0.00    +0.000 A 
ENDBRANCH  17  18
ENDBRANCH   1  17
TORSDOF 7
ENDMDL
MODEL 6
REMARK VINA RESULT:      -7.7      1.346      2.238
REMARK  Name = 
REMARK  8 active torsions:
REMARK  status: ('A' for Active; 'I' for Inactive)
REMARK    1  A    between atoms: C_1  and  O_2
REMARK    2  A    between atoms: O_2  and  C_3
REMARK    3  A    between atoms: C_6  and  C_7
REMARK    4  A    between atoms: C_7  and  C_8
REMARK    5  A    between atoms: C_7  and  C_15
REMARK    6  A    between atoms: C_8  and  C_9
REMARK    7  A    between atoms: C_9  and  N_10
REMARK    8  A    between atoms: C_15  and  C_16
REMARK                            x       y       z     vdW  Elec       q    Type
REMARK                         _______ _______ _______ _____ _____    ______ ____
ROOT
ATOM      1  C   UNL     1       3.166   6.612  18.420  0.00  0.00    +0.000 C 
ENDROOT
BRANCH   1   5
ATOM      2  C   UNL     1       0.922  10.207  19.336  0.00  0.00    +0.000 A 
ATOM      3  C   UNL     1       1.064   9.198  20.287  0.00  0.00    +0.000 A 
ATOM      4  C   UNL     1       1.720   8.008  19.962  0.00  0.00    +0.000 A 
ATOM      5  C   UNL     1       2.283   7.825  18.689  0.00  0.00    +0.000 A 
ATOM      6  C   UNL     1       2.104   8.832  17.735  0.00  0.00    +0.000 A 
ATOM      7  C   UNL     1       1.408  10.001  18.048  0.00  0.00    +0.000 A 
BRANCH   2   9
ATOM      8  C   UNL     1      -1.025  11.531  19.230  0.00  0.00    +0.000 C 
ATOM      9  O   UNL     1       0.284  11.339  19.760  0.00  0.00    +0.000 OA
ENDBRANCH   2   9
ENDBRANCH   1   5
BRANCH   1  10
ATOM     10  C   UNL     1       4.204   6.967  17.318  0.00  0.00    +0.000 C 
BRANCH  10  11
ATOM     11  C   UNL     1       5.594   6.369  17.575  0.00  0.00    +0.000 C 
BRANCH  11  12
ATOM     12  N   UNL     1       6.034   5.470  16.532  0.00  0.00    +0.000 N 
ATOM     13  C   UNL     1       5.397   4.356  16.084  0.00  0.00    +0.000 A 
ATOM     14  N   UNL     1       6.041   3.871  15.049  0.00  0.00    +0.000 NA
ATOM     15  C   UNL     1       7.074   4.753  14.893  0.00  0.00    +0.000 A 
ATOM     16  N   UNL     1       7.113   5.750  15.781  0.00  0.00    +0.000 NA
ENDBRANCH  11  12
ENDBRANCH  10  11
ENDBRANCH   1  10
BRANCH   1  17
ATOM     17  C   UNL     1       2.391   5.325  18.014  0.00  0.00    +0.000 C 
BRANCH  17  18
ATOM     18  C   UNL     1       2.038   4.401  19.162  0.00  0.00    +0.000 A 
ATOM     19  C   UNL     1       2.522   4.649  20.459  0.00  0.00    +0.000 A 
ATOM     20  C   UNL     1       2.218   3.782  21.509  0.00  0.00    +0.000 A 
ATOM     21  C   UNL     1       1.417   2.671  21.284  0.00  0.00    +0.000 A 
ATOM     22  C   UNL     1       0.912   2.423  20.009  0.00  0.00    +0.000 A 
ATOM     23  C   UNL     1       1.220   3.282  18.953  0.00  0.00    +0.000 A 
ENDBRANCH  17  18
ENDBRANCH   1  17
TORSDOF 7
ENDMDL
MODEL 7
REMARK VINA RESULT:      -7.7      1.585      2.035
REMARK  Name = 
REMARK  8 active torsions:
REMARK  status: ('A' for Active; 'I' for Inactive)
REMARK    1  A    between atoms: C_1  and  O_2
REMARK    2  A    between atoms: O_2  and  C_3
REMARK    3  A    between atoms: C_6  and  C_7
REMARK    4  A    between atoms: C_7  and  C_8
REMARK    5  A    between atoms: C_7  and  C_15
REMARK    6  A    between atoms: C_8  and  C_9
REMARK    7  A    between atoms: C_9  and  N_10
REMARK    8  A    between atoms: C_15  and  C_16
REMARK                            x       y       z     vdW  Elec       q    Type
REMARK                         _______ _______ _______ _____ _____    ______ ____
ROOT
ATOM      1  C   UNL     1       3.248   6.461  18.417  0.00  0.00    +0.000 C 
ENDROOT
BRANCH   1   5
ATOM      2  C   UNL     1       0.709   9.893  19.175  0.00  0.00    +0.000 A 
ATOM      3  C   UNL     1       1.289   9.703  17.922  0.00  0.00    +0.000 A 
ATOM      4  C   UNL     1       2.169   8.639  17.705  0.00  0.00    +0.000 A 
ATOM      5  C   UNL     1       2.452   7.723  18.730  0.00  0.00    +0.000 A 
ATOM      6  C   UNL     1       1.888   7.945  19.991  0.00  0.00    +0.000 A 
ATOM      7  C   UNL     1       1.046   9.035  20.218  0.00  0.00    +0.000 A 
BRANCH   2   9
ATOM      8  C   UNL     1      -0.860  11.036  20.512  0.00  0.00    +0.000 C 
ATOM      9  O   UNL     1      -0.153  10.948  19.277  0.00  0.00    +0.000 OA
ENDBRANCH   2   9
ENDBRANCH   1   5
BRANCH   1  10
ATOM     10  C   UNL     1       4.160   6.722  17.185  0.00  0.00    +0.000 C 
BRANCH  10  11
ATOM     11  C   UNL     1       5.605   6.246  17.385  0.00  0.00    +0.000 C 
BRANCH  11  12
ATOM     12  N   UNL     1       6.080   5.388  16.324  0.00  0.00    +0.000 N 
ATOM     13  C   UNL     1       5.526   4.219  15.903  0.00  0.00    +0.000 A 
ATOM     14  N   UNL     1       6.166   3.790  14.840  0.00  0.00    +0.000 NA
ATOM     15  C   UNL     1       7.109   4.760  14.642  0.00  0.00    +0.000 A 
ATOM     16  N   UNL     1       7.097   5.760  15.528  0.00  0.00    +0.000 NA
ENDBRANCH  11  12
ENDBRANCH  10  11
ENDBRANCH   1  10
BRANCH   1  17
ATOM     17  C   UNL     1       2.380   5.194  18.166  0.00  0.00    +0.000 C 
BRANCH  17  18
ATOM     18  C   UNL     1       2.327   4.214  19.321  0.00  0.00    +0.000 A 
ATOM     19  C   UNL     1       3.482   3.523  19.729  0.00  0.00    +0.000 A 
ATOM     20  C   UNL     1       3.427   2.600  20.775  0.00  0.00    +0.000 A 
ATOM     21  C   UNL     1       2.227   2.371  21.435  0.00  0.00    +0.000 A 
ATOM     22  C   UNL     1       1.079   3.063  21.058  0.00  0.00    +0.000 A 
ATOM     23  C   UNL     1       1.128   3.980  20.006  0.00  0.00    +0.000 A 
ENDBRANCH  17  18
ENDBRANCH   1  17
TORSDOF 7
ENDMDL
MODEL 8
REMARK VINA RESULT:      -7.6      0.764      1.269
REMARK  Name = 
REMARK  8 active torsions:
REMARK  status: ('A' for Active; 'I' for Inactive)
REMARK    1  A    between atoms: C_1  and  O_2
REMARK    2  A    between atoms: O_2  and  C_3
REMARK    3  A    between atoms: C_6  and  C_7
REMARK    4  A    between atoms: C_7  and  C_8
REMARK    5  A    between atoms: C_7  and  C_15
REMARK    6  A    between atoms: C_8  and  C_9
REMARK    7  A    between atoms: C_9  and  N_10
REMARK    8  A    between atoms: C_15  and  C_16
REMARK                            x       y       z     vdW  Elec       q    Type
REMARK                         _______ _______ _______ _____ _____    ______ ____
ROOT
ATOM      1  C   UNL     1       3.068   6.729  18.514  0.00  0.00    +0.000 C 
ENDROOT
BRANCH   1   5
ATOM      2  C   UNL     1       0.418  10.064  19.321  0.00  0.00    +0.000 A 
ATOM      3  C   UNL     1       0.988   9.900  18.059  0.00  0.00    +0.000 A 
ATOM      4  C   UNL     1       1.903   8.870  17.826  0.00  0.00    +0.000 A 
ATOM      5  C   UNL     1       2.231   7.960  18.843  0.00  0.00    +0.000 A 
ATOM      6  C   UNL     1       1.677   8.156  20.112  0.00  0.00    +0.000 A 
ATOM      7  C   UNL     1       0.799   9.214  20.355  0.00  0.00    +0.000 A 
BRANCH   2   9
ATOM      8  C   UNL     1      -0.613  11.627  20.752  0.00  0.00    +0.000 C 
ATOM      9  O   UNL     1      -0.480  11.087  19.439  0.00  0.00    +0.000 OA
ENDBRANCH   2   9
ENDBRANCH   1   5
BRANCH   1  10
ATOM     10  C   UNL     1       4.098   7.090  17.406  0.00  0.00    +0.000 C 
BRANCH  10  11
ATOM     11  C   UNL     1       4.714   5.861  16.724  0.00  0.00    +0.000 C 
BRANCH  11  12
ATOM     12  N   UNL     1       5.934   5.407  17.350  0.00  0.00    +0.000 N 
ATOM     13  C   UNL     1       6.179   5.289  18.683  0.00  0.00    +0.000 A 
ATOM     14  N   UNL     1       7.353   4.729  18.863  0.00  0.00    +0.000 NA
ATOM     15  C   UNL     1       7.782   4.506  17.585  0.00  0.00    +0.000 A 
ATOM     16  N   UNL     1       6.947   4.906  16.622  0.00  0.00    +0.000 NA
ENDBRANCH  11  12
ENDBRANCH  10  11
ENDBRANCH   1  10
BRANCH   1  17
ATOM     17  C   UNL     1       2.242   5.484  18.074  0.00  0.00    +0.000 C 
BRANCH  17  18
ATOM     18  C   UNL     1       1.955   4.485  19.176  0.00  0.00    +0.000 A 
ATOM     19  C   UNL     1       2.409   4.711  20.488  0.00  0.00    +0.000 A 
ATOM     20  C   UNL     1       2.167   3.777  21.496  0.00  0.00    +0.000 A 
ATOM     21  C   UNL     1       1.455   2.619  21.213  0.00  0.00    +0.000 A 
ATOM     22  C   UNL     1       0.979   2.390  19.924  0.00  0.00    +0.000 A 
ATOM     23  C   UNL     1       1.227   3.318  18.911  0.00  0.00    +0.000 A 
ENDBRANCH  17  18
ENDBRANCH   1  17
TORSDOF 7
ENDMDL
MODEL 9
REMARK VINA RESULT:      -7.6      1.058      1.622
REMARK  Name = 
REMARK  8 active torsions:
REMARK  status: ('A' for Active; 'I' for Inactive)
REMARK    1  A    between atoms: C_1  and  O_2
REMARK    2  A    between atoms: O_2  and  C_3
REMARK    3  A    between atoms: C_6  and  C_7
REMARK    4  A    between atoms: C_7  and  C_8
REMARK    5  A    between atoms: C_7  and  C_15
REMARK    6  A    between atoms: C_8  and  C_9
REMARK    7  A    between atoms: C_9  and  N_10
REMARK    8  A    between atoms: C_15  and  C_16
REMARK                            x       y       z     vdW  Elec       q    Type
REMARK                         _______ _______ _______ _____ _____    ______ ____
ROOT
ATOM      1  C   UNL     1       3.049   6.645  18.529  0.00  0.00    +0.000 C 
ENDROOT
BRANCH   1   5
ATOM      2  C   UNL     1       1.033  10.418  19.235  0.00  0.00    +0.000 A 
ATOM      3  C   UNL     1       1.012   9.412  20.199  0.00  0.00    +0.000 A 
ATOM      4  C   UNL     1       1.595   8.170  19.936  0.00  0.00    +0.000 A 
ATOM      5  C   UNL     1       2.246   7.928  18.716  0.00  0.00    +0.000 A 
ATOM      6  C   UNL     1       2.231   8.936  17.746  0.00  0.00    +0.000 A 
ATOM      7  C   UNL     1       1.607  10.160  17.993  0.00  0.00    +0.000 A 
BRANCH   2   9
ATOM      8  C   UNL     1       0.642  12.675  18.679  0.00  0.00    +0.000 C 
ATOM      9  O   UNL     1       0.455  11.602  19.598  0.00  0.00    +0.000 OA
ENDBRANCH   2   9
ENDBRANCH   1   5
BRANCH   1  10
ATOM     10  C   UNL     1       4.170   6.890  17.480  0.00  0.00    +0.000 C 
BRANCH  10  11
ATOM     11  C   UNL     1       4.509   5.644  16.650  0.00  0.00    +0.000 C 
BRANCH  11  12
ATOM     12  N   UNL     1       5.838   5.134  16.896  0.00  0.00    +0.000 N 
ATOM     13  C   UNL     1       6.756   4.750  15.969  0.00  0.00    +0.000 A 
ATOM     14  N   UNL     1       7.887   4.459  16.568  0.00  0.00    +0.000 NA
ATOM     15  C   UNL     1       7.605   4.703  17.883  0.00  0.00    +0.000 A 
ATOM     16  N   UNL     1       6.360   5.117  18.135  0.00  0.00    +0.000 NA
ENDBRANCH  11  12
ENDBRANCH  10  11
ENDBRANCH   1  10
BRANCH   1  17
ATOM     17  C   UNL     1       2.202   5.408  18.112  0.00  0.00    +0.000 C 
BRANCH  17  18
ATOM     18  C   UNL     1       1.959   4.396  19.213  0.00  0.00    +0.000 A 
ATOM     19  C   UNL     1       1.368   3.152  18.929  0.00  0.00    +0.000 A 
ATOM     20  C   UNL     1       1.120   2.232  19.948  0.00  0.00    +0.000 A 
ATOM     21  C   UNL     1       1.474   2.534  21.257  0.00  0.00    +0.000 A 
ATOM     22  C   UNL     1       2.080   3.753  21.552  0.00  0.00    +0.000 A 
ATOM     23  C   UNL     1       2.322   4.679  20.537  0.00  0.00    +0.000 A 
ENDBRANCH  17  18
ENDBRANCH   1  17
TORSDOF 7
ENDMDL
