MODEL 1
REMARK VINA RESULT:      -6.7      0.000      0.000
REMARK  Name = 
REMARK  7 active torsions:
REMARK  status: ('A' for Active; 'I' for Inactive)
REMARK    1  A    between atoms: O_1  and  C_2
REMARK    2  A    between atoms: C_5  and  O_6
REMARK    3  A    between atoms: O_6  and  C_7
REMARK    4  A    between atoms: C_7  and  C_8
REMARK    5  A    between atoms: C_8  and  N_9
REMARK    6  A    between atoms: N_9  and  C_10
REMARK    7  A    between atoms: C_10  and  C_11
REMARK                            x       y       z     vdW  Elec       q    Type
REMARK                         _______ _______ _______ _____ _____    ______ ____
ROOT
ATOM      1  C   UNL     1       7.888   5.010  19.538  0.00  0.00    +0.000 A 
ATOM      2  N   UNL     1       6.741   5.533  19.870  0.00  0.00    +0.000 NA
ATOM      3  C   UNL     1       5.912   5.269  18.791  0.00  0.00    +0.000 A 
ATOM      4  C   UNL     1       4.552   5.600  18.579  0.00  0.00    +0.000 A 
ATOM      5  C   UNL     1       3.975   5.190  17.361  0.00  0.00    +0.000 A 
ATOM      6  C   UNL     1       4.705   4.486  16.396  0.00  0.00    +0.000 A 
ATOM      7  C   UNL     1       6.045   4.158  16.598  0.00  0.00    +0.000 A 
ATOM      8  C   UNL     1       6.610   4.566  17.804  0.00  0.00    +0.000 A 
ATOM      9  N   UNL     1       7.874   4.416  18.317  0.00  0.00    +0.000 N 
ATOM     10  H   UNL     1       8.660   3.957  17.882  0.00  0.00    +0.000 HD
ENDROOT
BRANCH   1  11
ATOM     11  O   UNL     1       8.952   5.054  20.309  0.00  0.00    +0.000 OA
ATOM     12  H   UNL     1       9.608   4.586  19.761  0.00  0.00    +0.000 HD
ENDBRANCH   1  11
BRANCH   4  13
ATOM     13  O   UNL     1       3.887   6.291  19.566  0.00  0.00    +0.000 OA
BRANCH  13  14
ATOM     14  C   UNL     1       2.529   6.641  19.290  0.00  0.00    +0.000 C 
BRANCH  14  15
ATOM     15  C   UNL     1       1.602   6.066  20.372  0.00  0.00    +0.000 C 
BRANCH  15  16
ATOM     16  N   UNL     1       2.377   5.253  21.317  0.00  0.00    +0.000 NA
ATOM     17  H   UNL     1       2.321   5.659  22.252  0.00  0.00    +0.000 HD
BRANCH  16  18
ATOM     18  C   UNL     1       1.896   3.873  21.385  0.00  0.00    +0.000 C 
BRANCH  18  19
ATOM     19  C   UNL     1       2.442   3.058  20.231  0.00  0.00    +0.000 A 
ATOM     20  C   UNL     1       1.666   2.794  19.092  0.00  0.00    +0.000 A 
ATOM     21  C   UNL     1       2.176   2.015  18.049  0.00  0.00    +0.000 A 
ATOM     22  C   UNL     1       3.467   1.495  18.128  0.00  0.00    +0.000 A 
ATOM     23  C   UNL     1       4.257   1.767  19.243  0.00  0.00    +0.000 A 
ATOM     24  C   UNL     1       3.748   2.546  20.285  0.00  0.00    +0.000 A 
ENDBRANCH  18  19
ENDBRANCH  16  18
ENDBRANCH  15  16
ENDBRANCH  14  15
ENDBRANCH  13  14
ENDBRANCH   4  13
TORSDOF 7
ENDMDL
MODEL 2
REMARK VINA RESULT:      -6.6      1.167      1.459
REMARK  Name = 
REMARK  7 active torsions:
REMARK  status: ('A' for Active; 'I' for Inactive)
REMARK    1  A    between atoms: O_1  and  C_2
REMARK    2  A    between atoms: C_5  and  O_6
REMARK    3  A    between atoms: O_6  and  C_7
REMARK    4  A    between atoms: C_7  and  C_8
REMARK    5  A    between atoms: C_8  and  N_9
REMARK    6  A    between atoms: N_9  and  C_10
REMARK    7  A    between atoms: C_10  and  C_11
REMARK                            x       y       z     vdW  Elec       q    Type
REMARK                         _______ _______ _______ _____ _____    ______ ____
ROOT
ATOM      1  C   UNL     1       7.281   5.266  19.340  0.00  0.00    +0.000 A 
ATOM      2  N   UNL     1       6.019   5.470  19.085  0.00  0.00    +0.000 NA
ATOM      3  C   UNL     1       5.874   5.136  17.748  0.00  0.00    +0.000 A 
ATOM      4  C   UNL     1       4.728   5.160  16.917  0.00  0.00    +0.000 A 
ATOM      5  C   UNL     1       4.899   4.759  15.577  0.00  0.00    +0.000 A 
ATOM      6  C   UNL     1       6.143   4.350  15.080  0.00  0.00    +0.000 A 
ATOM      7  C   UNL     1       7.275   4.323  15.894  0.00  0.00    +0.000 A 
ATOM      8  C   UNL     1       7.100   4.722  17.217  0.00  0.00    +0.000 A 
ATOM      9  N   UNL     1       7.980   4.818  18.265  0.00  0.00    +0.000 N 
ATOM     10  H   UNL     1       8.966   4.603  18.258  0.00  0.00    +0.000 HD
ENDROOT
BRANCH   1  11
ATOM     11  O   UNL     1       7.823   5.475  20.519  0.00  0.00    +0.000 OA
ATOM     12  H   UNL     1       7.350   4.822  21.067  0.00  0.00    +0.000 HD
ENDBRANCH   1  11
BRANCH   4  13
ATOM     13  O   UNL     1       3.534   5.570  17.464  0.00  0.00    +0.000 OA
BRANCH  13  14
ATOM     14  C   UNL     1       3.450   6.945  17.846  0.00  0.00    +0.000 C 
BRANCH  14  15
ATOM     15  C   UNL     1       2.415   7.122  18.967  0.00  0.00    +0.000 C 
BRANCH  15  16
ATOM     16  N   UNL     1       2.892   6.477  20.197  0.00  0.00    +0.000 NA
ATOM     17  H   UNL     1       3.076   7.183  20.910  0.00  0.00    +0.000 HD
BRANCH  16  18
ATOM     18  C   UNL     1       1.921   5.523  20.735  0.00  0.00    +0.000 C 
BRANCH  18  19
ATOM     19  C   UNL     1       2.046   4.183  20.039  0.00  0.00    +0.000 A 
ATOM     20  C   UNL     1       0.947   3.588  19.400  0.00  0.00    +0.000 A 
ATOM     21  C   UNL     1       1.071   2.337  18.789  0.00  0.00    +0.000 A 
ATOM     22  C   UNL     1       2.295   1.668  18.803  0.00  0.00    +0.000 A 
ATOM     23  C   UNL     1       3.400   2.257  19.414  0.00  0.00    +0.000 A 
ATOM     24  C   UNL     1       3.276   3.507  20.024  0.00  0.00    +0.000 A 
ENDBRANCH  18  19
ENDBRANCH  16  18
ENDBRANCH  15  16
ENDBRANCH  14  15
ENDBRANCH  13  14
ENDBRANCH   4  13
TORSDOF 7
ENDMDL
MODEL 3
REMARK VINA RESULT:      -6.6      1.394      2.060
REMARK  Name = 
REMARK  7 active torsions:
REMARK  status: ('A' for Active; 'I' for Inactive)
REMARK    1  A    between atoms: O_1  and  C_2
REMARK    2  A    between atoms: C_5  and  O_6
REMARK    3  A    between atoms: O_6  and  C_7
REMARK    4  A    between atoms: C_7  and  C_8
REMARK    5  A    between atoms: C_8  and  N_9
REMARK    6  A    between atoms: N_9  and  C_10
REMARK    7  A    between atoms: C_10  and  C_11
REMARK                            x       y       z     vdW  Elec       q    Type
REMARK                         _______ _______ _______ _____ _____    ______ ____
ROOT
ATOM      1  C   UNL     1       7.397   5.290  19.573  0.00  0.00    +0.000 A 
ATOM      2  N   UNL     1       6.136   5.557  19.374  0.00  0.00    +0.000 NA
ATOM      3  C   UNL     1       5.918   5.242  18.043  0.00  0.00    +0.000 A 
ATOM      4  C   UNL     1       4.740   5.330  17.261  0.00  0.00    +0.000 A 
ATOM      5  C   UNL     1       4.834   4.931  15.913  0.00  0.00    +0.000 A 
ATOM      6  C   UNL     1       6.033   4.466  15.360  0.00  0.00    +0.000 A 
ATOM      7  C   UNL     1       7.197   4.377  16.124  0.00  0.00    +0.000 A 
ATOM      8  C   UNL     1       7.098   4.773  17.456  0.00  0.00    +0.000 A 
ATOM      9  N   UNL     1       8.025   4.817  18.466  0.00  0.00    +0.000 N 
ATOM     10  H   UNL     1       8.998   4.553  18.416  0.00  0.00    +0.000 HD
ENDROOT
BRANCH   1  11
ATOM     11  O   UNL     1       7.997   5.462  20.729  0.00  0.00    +0.000 OA
ATOM     12  H   UNL     1       8.652   4.739  20.716  0.00  0.00    +0.000 HD
ENDBRANCH   1  11
BRANCH   4  13
ATOM     13  O   UNL     1       3.592   5.793  17.861  0.00  0.00    +0.000 OA
BRANCH  13  14
ATOM     14  C   UNL     1       3.299   7.180  17.685  0.00  0.00    +0.000 C 
BRANCH  14  15
ATOM     15  C   UNL     1       2.375   7.676  18.807  0.00  0.00    +0.000 C 
BRANCH  15  16
ATOM     16  N   UNL     1       2.673   6.962  20.055  0.00  0.00    +0.000 NA
ATOM     17  H   UNL     1       3.056   7.610  20.743  0.00  0.00    +0.000 HD
BRANCH  16  18
ATOM     18  C   UNL     1       1.485   6.329  20.629  0.00  0.00    +0.000 C 
BRANCH  18  19
ATOM     19  C   UNL     1       1.588   4.820  20.544  0.00  0.00    +0.000 A 
ATOM     20  C   UNL     1       2.219   4.075  21.552  0.00  0.00    +0.000 A 
ATOM     21  C   UNL     1       2.332   2.685  21.444  0.00  0.00    +0.000 A 
ATOM     22  C   UNL     1       1.812   2.024  20.332  0.00  0.00    +0.000 A 
ATOM     23  C   UNL     1       1.164   2.749  19.334  0.00  0.00    +0.000 A 
ATOM     24  C   UNL     1       1.050   4.136  19.443  0.00  0.00    +0.000 A 
ENDBRANCH  18  19
ENDBRANCH  16  18
ENDBRANCH  15  16
ENDBRANCH  14  15
ENDBRANCH  13  14
ENDBRANCH   4  13
TORSDOF 7
ENDMDL
MODEL 4
REMARK VINA RESULT:      -6.6      1.288      1.703
REMARK  Name = 
REMARK  7 active torsions:
REMARK  status: ('A' for Active; 'I' for Inactive)
REMARK    1  A    between atoms: O_1  and  C_2
REMARK    2  A    between atoms: C_5  and  O_6
REMARK    3  A    between atoms: O_6  and  C_7
REMARK    4  A    between atoms: C_7  and  C_8
REMARK    5  A    between atoms: C_8  and  N_9
REMARK    6  A    between atoms: N_9  and  C_10
REMARK    7  A    between atoms: C_10  and  C_11
REMARK                            x       y       z     vdW  Elec       q    Type
REMARK                         _______ _______ _______ _____ _____    ______ ____
ROOT
ATOM      1  C   UNL     1       7.540   5.382  19.414  0.00  0.00    +0.000 A 
ATOM      2  N   UNL     1       6.510   6.139  19.156  0.00  0.00    +0.000 NA
ATOM      3  C   UNL     1       6.173   5.837  17.847  0.00  0.00    +0.000 A 
ATOM      4  C   UNL     1       5.140   6.349  17.026  0.00  0.00    +0.000 A 
ATOM      5  C   UNL     1       5.050   5.839  15.715  0.00  0.00    +0.000 A 
ATOM      6  C   UNL     1       5.938   4.868  15.237  0.00  0.00    +0.000 A 
ATOM      7  C   UNL     1       6.958   4.359  16.040  0.00  0.00    +0.000 A 
ATOM      8  C   UNL     1       7.042   4.868  17.334  0.00  0.00    +0.000 A 
ATOM      9  N   UNL     1       7.905   4.599  18.366  0.00  0.00    +0.000 N 
ATOM     10  H   UNL     1       8.675   3.947  18.366  0.00  0.00    +0.000 HD
ENDROOT
BRANCH   1  11
ATOM     11  O   UNL     1       8.162   5.379  20.571  0.00  0.00    +0.000 OA
ATOM     12  H   UNL     1       8.494   6.295  20.616  0.00  0.00    +0.000 HD
ENDBRANCH   1  11
BRANCH   4  13
ATOM     13  O   UNL     1       4.298   7.300  17.553  0.00  0.00    +0.000 OA
BRANCH  13  14
ATOM     14  C   UNL     1       2.916   6.946  17.643  0.00  0.00    +0.000 C 
BRANCH  14  15
ATOM     15  C   UNL     1       2.418   7.110  19.088  0.00  0.00    +0.000 C 
BRANCH  15  16
ATOM     16  N   UNL     1       3.265   6.335  20.002  0.00  0.00    +0.000 NA
ATOM     17  H   UNL     1       3.616   6.939  20.746  0.00  0.00    +0.000 HD
BRANCH  16  18
ATOM     18  C   UNL     1       2.542   5.220  20.616  0.00  0.00    +0.000 C 
BRANCH  18  19
ATOM     19  C   UNL     1       2.488   4.035  19.674  0.00  0.00    +0.000 A 
ATOM     20  C   UNL     1       3.643   3.557  19.036  0.00  0.00    +0.000 A 
ATOM     21  C   UNL     1       3.570   2.480  18.147  0.00  0.00    +0.000 A 
ATOM     22  C   UNL     1       2.345   1.865  17.889  0.00  0.00    +0.000 A 
ATOM     23  C   UNL     1       1.194   2.315  18.533  0.00  0.00    +0.000 A 
ATOM     24  C   UNL     1       1.267   3.390  19.422  0.00  0.00    +0.000 A 
ENDBRANCH  18  19
ENDBRANCH  16  18
ENDBRANCH  15  16
ENDBRANCH  14  15
ENDBRANCH  13  14
ENDBRANCH   4  13
TORSDOF 7
ENDMDL
MODEL 5
REMARK VINA RESULT:      -6.5      2.060      4.289
REMARK  Name = 
REMARK  7 active torsions:
REMARK  status: ('A' for Active; 'I' for Inactive)
REMARK    1  A    between atoms: O_1  and  C_2
REMARK    2  A    between atoms: C_5  and  O_6
REMARK    3  A    between atoms: O_6  and  C_7
REMARK    4  A    between atoms: C_7  and  C_8
REMARK    5  A    between atoms: C_8  and  N_9
REMARK    6  A    between atoms: N_9  and  C_10
REMARK    7  A    between atoms: C_10  and  C_11
REMARK                            x       y       z     vdW  Elec       q    Type
REMARK                         _______ _______ _______ _____ _____    ______ ____
ROOT
ATOM      1  C   UNL     1       7.312   5.344  19.266  0.00  0.00    +0.000 A 
ATOM      2  N   UNL     1       6.174   4.710  19.199  0.00  0.00    +0.000 NA
ATOM      3  C   UNL     1       5.943   4.550  17.843  0.00  0.00    +0.000 A 
ATOM      4  C   UNL     1       4.862   3.936  17.165  0.00  0.00    +0.000 A 
ATOM      5  C   UNL     1       4.909   3.931  15.757  0.00  0.00    +0.000 A 
ATOM      6  C   UNL     1       5.973   4.502  15.049  0.00  0.00    +0.000 A 
ATOM      7  C   UNL     1       7.041   5.107  15.711  0.00  0.00    +0.000 A 
ATOM      8  C   UNL     1       6.988   5.110  17.103  0.00  0.00    +0.000 A 
ATOM      9  N   UNL     1       7.849   5.611  18.048  0.00  0.00    +0.000 N 
ATOM     10  H   UNL     1       8.721   6.092  17.887  0.00  0.00    +0.000 HD
ENDROOT
BRANCH   1  11
ATOM     11  O   UNL     1       7.880   5.691  20.399  0.00  0.00    +0.000 OA
ATOM     12  H   UNL     1       7.405   5.124  21.035  0.00  0.00    +0.000 HD
ENDBRANCH   1  11
BRANCH   4  13
ATOM     13  O   UNL     1       3.846   3.391  17.915  0.00  0.00    +0.000 OA
BRANCH  13  14
ATOM     14  C   UNL     1       2.691   4.210  18.112  0.00  0.00    +0.000 C 
BRANCH  14  15
ATOM     15  C   UNL     1       2.582   4.629  19.586  0.00  0.00    +0.000 C 
BRANCH  15  16
ATOM     16  N   UNL     1       3.254   5.917  19.793  0.00  0.00    +0.000 NA
ATOM     17  H   UNL     1       4.251   5.767  19.950  0.00  0.00    +0.000 HD
BRANCH  16  18
ATOM     18  C   UNL     1       3.099   6.814  18.647  0.00  0.00    +0.000 C 
BRANCH  18  19
ATOM     19  C   UNL     1       2.186   7.972  18.993  0.00  0.00    +0.000 A 
ATOM     20  C   UNL     1       1.867   8.958  18.046  0.00  0.00    +0.000 A 
ATOM     21  C   UNL     1       1.046  10.036  18.391  0.00  0.00    +0.000 A 
ATOM     22  C   UNL     1       0.531  10.140  19.683  0.00  0.00    +0.000 A 
ATOM     23  C   UNL     1       0.822   9.158  20.626  0.00  0.00    +0.000 A 
ATOM     24  C   UNL     1       1.640   8.080  20.282  0.00  0.00    +0.000 A 
ENDBRANCH  18  19
ENDBRANCH  16  18
ENDBRANCH  15  16
ENDBRANCH  14  15
ENDBRANCH  13  14
ENDBRANCH   4  13
TORSDOF 7
ENDMDL
MODEL 6
REMARK VINA RESULT:      -6.3      3.045      5.895
REMARK  Name = 
REMARK  7 active torsions:
REMARK  status: ('A' for Active; 'I' for Inactive)
REMARK    1  A    between atoms: O_1  and  C_2
REMARK    2  A    between atoms: C_5  and  O_6
REMARK    3  A    between atoms: O_6  and  C_7
REMARK    4  A    between atoms: C_7  and  C_8
REMARK    5  A    between atoms: C_8  and  N_9
REMARK    6  A    between atoms: N_9  and  C_10
REMARK    7  A    between atoms: C_10  and  C_11
REMARK                            x       y       z     vdW  Elec       q    Type
REMARK                         _______ _______ _______ _____ _____    ______ ____
ROOT
ATOM      1  C   UNL     1       3.528   1.654  18.562  0.00  0.00    +0.000 A 
ATOM      2  N   UNL     1       4.073   2.836  18.465  0.00  0.00    +0.000 NA
ATOM      3  C   UNL     1       3.197   3.679  19.129  0.00  0.00    +0.000 A 
ATOM      4  C   UNL     1       3.261   5.077  19.347  0.00  0.00    +0.000 A 
ATOM      5  C   UNL     1       2.201   5.662  20.068  0.00  0.00    +0.000 A 
ATOM      6  C   UNL     1       1.128   4.904  20.553  0.00  0.00    +0.000 A 
ATOM      7  C   UNL     1       1.060   3.527  20.342  0.00  0.00    +0.000 A 
ATOM      8  C   UNL     1       2.110   2.955  19.628  0.00  0.00    +0.000 A 
ATOM      9  N   UNL     1       2.356   1.660  19.247  0.00  0.00    +0.000 N 
ATOM     10  H   UNL     1       1.782   0.849  19.428  0.00  0.00    +0.000 HD
ENDROOT
BRANCH   1  11
ATOM     11  O   UNL     1       4.061   0.569  18.048  0.00  0.00    +0.000 OA
ATOM     12  H   UNL     1       3.893  -0.083  18.754  0.00  0.00    +0.000 HD
ENDBRANCH   1  11
BRANCH   4  13
ATOM     13  O   UNL     1       4.341   5.767  18.847  0.00  0.00    +0.000 OA
BRANCH  13  14
ATOM     14  C   UNL     1       4.054   6.782  17.882  0.00  0.00    +0.000 C 
BRANCH  14  15
ATOM     15  C   UNL     1       5.310   7.101  17.057  0.00  0.00    +0.000 C 
BRANCH  15  16
ATOM     16  N   UNL     1       5.273   6.370  15.784  0.00  0.00    +0.000 NA
ATOM     17  H   UNL     1       5.580   6.979  15.025  0.00  0.00    +0.000 HD
BRANCH  16  18
ATOM     18  C   UNL     1       6.133   5.186  15.800  0.00  0.00    +0.000 C 
BRANCH  18  19
ATOM     19  C   UNL     1       6.451   4.736  14.389  0.00  0.00    +0.000 A 
ATOM     20  C   UNL     1       7.526   5.286  13.673  0.00  0.00    +0.000 A 
ATOM     21  C   UNL     1       7.788   4.882  12.361  0.00  0.00    +0.000 A 
ATOM     22  C   UNL     1       6.984   3.920  11.750  0.00  0.00    +0.000 A 
ATOM     23  C   UNL     1       5.927   3.349  12.457  0.00  0.00    +0.000 A 
ATOM     24  C   UNL     1       5.666   3.752  13.768  0.00  0.00    +0.000 A 
ENDBRANCH  18  19
ENDBRANCH  16  18
ENDBRANCH  15  16
ENDBRANCH  14  15
ENDBRANCH  13  14
ENDBRANCH   4  13
TORSDOF 7
ENDMDL
MODEL 7
REMARK VINA RESULT:      -6.2      1.996      4.166
REMARK  Name = 
REMARK  7 active torsions:
REMARK  status: ('A' for Active; 'I' for Inactive)
REMARK    1  A    between atoms: O_1  and  C_2
REMARK    2  A    between atoms: C_5  and  O_6
REMARK    3  A    between atoms: O_6  and  C_7
REMARK    4  A    between atoms: C_7  and  C_8
REMARK    5  A    between atoms: C_8  and  N_9
REMARK    6  A    between atoms: N_9  and  C_10
REMARK    7  A    between atoms: C_10  and  C_11
REMARK                            x       y       z     vdW  Elec       q    Type
REMARK                         _______ _______ _______ _____ _____    ______ ____
ROOT
ATOM      1  C   UNL     1       7.458   5.334  19.299  0.00  0.00    +0.000 A 
ATOM      2  N   UNL     1       6.323   4.692  19.274  0.00  0.00    +0.000 NA
ATOM      3  C   UNL     1       6.036   4.544  17.927  0.00  0.00    +0.000 A 
ATOM      4  C   UNL     1       4.931   3.929  17.289  0.00  0.00    +0.000 A 
ATOM      5  C   UNL     1       4.917   3.939  15.880  0.00  0.00    +0.000 A 
ATOM      6  C   UNL     1       5.946   4.527  15.134  0.00  0.00    +0.000 A 
ATOM      7  C   UNL     1       7.036   5.133  15.756  0.00  0.00    +0.000 A 
ATOM      8  C   UNL     1       7.044   5.121  17.149  0.00  0.00    +0.000 A 
ATOM      9  N   UNL     1       7.940   5.618  18.062  0.00  0.00    +0.000 N 
ATOM     10  H   UNL     1       8.801   6.109  17.869  0.00  0.00    +0.000 HD
ENDROOT
BRANCH   1  11
ATOM     11  O   UNL     1       8.072   5.673  20.410  0.00  0.00    +0.000 OA
ATOM     12  H   UNL     1       8.704   6.342  20.086  0.00  0.00    +0.000 HD
ENDBRANCH   1  11
BRANCH   4  13
ATOM     13  O   UNL     1       3.952   3.367  18.076  0.00  0.00    +0.000 OA
BRANCH  13  14
ATOM     14  C   UNL     1       2.853   4.212  18.422  0.00  0.00    +0.000 C 
BRANCH  14  15
ATOM     15  C   UNL     1       2.830   4.461  19.938  0.00  0.00    +0.000 C 
BRANCH  15  16
ATOM     16  N   UNL     1       3.090   5.878  20.219  0.00  0.00    +0.000 NA
ATOM     17  H   UNL     1       3.459   6.335  19.385  0.00  0.00    +0.000 HD
BRANCH  16  18
ATOM     18  C   UNL     1       1.882   6.590  20.637  0.00  0.00    +0.000 C 
BRANCH  18  19
ATOM     19  C   UNL     1       1.719   7.876  19.853  0.00  0.00    +0.000 A 
ATOM     20  C   UNL     1       1.019   8.970  20.383  0.00  0.00    +0.000 A 
ATOM     21  C   UNL     1       0.853  10.139  19.634  0.00  0.00    +0.000 A 
ATOM     22  C   UNL     1       1.388  10.230  18.349  0.00  0.00    +0.000 A 
ATOM     23  C   UNL     1       2.104   9.160  17.819  0.00  0.00    +0.000 A 
ATOM     24  C   UNL     1       2.271   7.993  18.567  0.00  0.00    +0.000 A 
ENDBRANCH  18  19
ENDBRANCH  16  18
ENDBRANCH  15  16
ENDBRANCH  14  15
ENDBRANCH  13  14
ENDBRANCH   4  13
TORSDOF 7
ENDMDL
MODEL 8
REMARK VINA RESULT:      -6.2      2.722      4.843
REMARK  Name = 
REMARK  7 active torsions:
REMARK  status: ('A' for Active; 'I' for Inactive)
REMARK    1  A    between atoms: O_1  and  C_2
REMARK    2  A    between atoms: C_5  and  O_6
REMARK    3  A    between atoms: O_6  and  C_7
REMARK    4  A    between atoms: C_7  and  C_8
REMARK    5  A    between atoms: C_8  and  N_9
REMARK    6  A    between atoms: N_9  and  C_10
REMARK    7  A    between atoms: C_10  and  C_11
REMARK                            x       y       z     vdW  Elec       q    Type
REMARK                         _______ _______ _______ _____ _____    ______ ____
ROOT
ATOM      1  C   UNL     1       6.379   4.106  14.778  0.00  0.00    +0.000 A 
ATOM      2  N   UNL     1       5.951   3.625  15.913  0.00  0.00    +0.000 NA
ATOM      3  C   UNL     1       6.357   4.550  16.860  0.00  0.00    +0.000 A 
ATOM      4  C   UNL     1       6.180   4.560  18.265  0.00  0.00    +0.000 A 
ATOM      5  C   UNL     1       6.717   5.654  18.971  0.00  0.00    +0.000 A 
ATOM      6  C   UNL     1       7.397   6.692  18.322  0.00  0.00    +0.000 A 
ATOM      7  C   UNL     1       7.575   6.688  16.939  0.00  0.00    +0.000 A 
ATOM      8  C   UNL     1       7.042   5.604  16.247  0.00  0.00    +0.000 A 
ATOM      9  N   UNL     1       7.037   5.286  14.911  0.00  0.00    +0.000 N 
ATOM     10  H   UNL     1       7.443   5.817  14.155  0.00  0.00    +0.000 HD
ENDROOT
BRANCH   1  11
ATOM     11  O   UNL     1       6.192   3.508  13.623  0.00  0.00    +0.000 OA
ATOM     12  H   UNL     1       6.756   2.718  13.721  0.00  0.00    +0.000 HD
ENDBRANCH   1  11
BRANCH   4  13
ATOM     13  O   UNL     1       5.502   3.513  18.845  0.00  0.00    +0.000 OA
BRANCH  13  14
ATOM     14  C   UNL     1       4.203   3.807  19.362  0.00  0.00    +0.000 C 
BRANCH  14  15
ATOM     15  C   UNL     1       3.168   3.819  18.226  0.00  0.00    +0.000 C 
BRANCH  15  16
ATOM     16  N   UNL     1       2.389   5.062  18.270  0.00  0.00    +0.000 NA
ATOM     17  H   UNL     1       1.392   4.848  18.227  0.00  0.00    +0.000 HD
BRANCH  16  18
ATOM     18  C   UNL     1       2.642   5.832  19.488  0.00  0.00    +0.000 C 
BRANCH  18  19
ATOM     19  C   UNL     1       2.171   7.262  19.325  0.00  0.00    +0.000 A 
ATOM     20  C   UNL     1       1.633   7.981  20.404  0.00  0.00    +0.000 A 
ATOM     21  C   UNL     1       1.175   9.290  20.229  0.00  0.00    +0.000 A 
ATOM     22  C   UNL     1       1.253   9.899  18.977  0.00  0.00    +0.000 A 
ATOM     23  C   UNL     1       1.805   9.206  17.902  0.00  0.00    +0.000 A 
ATOM     24  C   UNL     1       2.263   7.898  18.077  0.00  0.00    +0.000 A 
ENDBRANCH  18  19
ENDBRANCH  16  18
ENDBRANCH  15  16
ENDBRANCH  14  15
ENDBRANCH  13  14
ENDBRANCH   4  13
TORSDOF 7
ENDMDL
MODEL 9
REMARK VINA RESULT:      -6.2      2.909      5.813
REMARK  Name = 
REMARK  7 active torsions:
REMARK  status: ('A' for Active; 'I' for Inactive)
REMARK    1  A    between atoms: O_1  and  C_2
REMARK    2  A    between atoms: C_5  and  O_6
REMARK    3  A    between atoms: O_6  and  C_7
REMARK    4  A    between atoms: C_7  and  C_8
REMARK    5  A    between atoms: C_8  and  N_9
REMARK    6  A    between atoms: N_9  and  C_10
REMARK    7  A    between atoms: C_10  and  C_11
REMARK                            x       y       z     vdW  Elec       q    Type
REMARK                         _______ _______ _______ _____ _____    ______ ____
ROOT
ATOM      1  C   UNL     1       3.559   1.641  18.729  0.00  0.00    +0.000 A 
ATOM      2  N   UNL     1       4.114   2.818  18.824  0.00  0.00    +0.000 NA
ATOM      3  C   UNL     1       3.136   3.619  19.391  0.00  0.00    +0.000 A 
ATOM      4  C   UNL     1       3.162   4.994  19.728  0.00  0.00    +0.000 A 
ATOM      5  C   UNL     1       1.994   5.537  20.298  0.00  0.00    +0.000 A 
ATOM      6  C   UNL     1       0.852   4.759  20.527  0.00  0.00    +0.000 A 
ATOM      7  C   UNL     1       0.820   3.404  20.198  0.00  0.00    +0.000 A 
ATOM      8  C   UNL     1       1.978   2.874  19.633  0.00  0.00    +0.000 A 
ATOM      9  N   UNL     1       2.285   1.610  19.198  0.00  0.00    +0.000 N 
ATOM     10  H   UNL     1       1.688   0.796  19.211  0.00  0.00    +0.000 HD
ENDROOT
BRANCH   1  11
ATOM     11  O   UNL     1       4.173   0.592  18.230  0.00  0.00    +0.000 OA
ATOM     12  H   UNL     1       3.614  -0.136  18.562  0.00  0.00    +0.000 HD
ENDBRANCH   1  11
BRANCH   4  13
ATOM     13  O   UNL     1       4.314   5.706  19.480  0.00  0.00    +0.000 OA
BRANCH  13  14
ATOM     14  C   UNL     1       4.453   6.250  18.166  0.00  0.00    +0.000 C 
BRANCH  14  15
ATOM     15  C   UNL     1       5.905   6.106  17.683  0.00  0.00    +0.000 C 
BRANCH  15  16
ATOM     16  N   UNL     1       5.957   6.194  16.219  0.00  0.00    +0.000 NA
ATOM     17  H   UNL     1       6.035   7.170  15.932  0.00  0.00    +0.000 HD
BRANCH  16  18
ATOM     18  C   UNL     1       7.093   5.458  15.660  0.00  0.00    +0.000 C 
BRANCH  18  19
ATOM     19  C   UNL     1       6.705   4.778  14.364  0.00  0.00    +0.000 A 
ATOM     20  C   UNL     1       5.500   4.067  14.245  0.00  0.00    +0.000 A 
ATOM     21  C   UNL     1       5.172   3.420  13.050  0.00  0.00    +0.000 A 
ATOM     22  C   UNL     1       6.038   3.480  11.958  0.00  0.00    +0.000 A 
ATOM     23  C   UNL     1       7.226   4.201  12.055  0.00  0.00    +0.000 A 
ATOM     24  C   UNL     1       7.555   4.848  13.248  0.00  0.00    +0.000 A 
ENDBRANCH  18  19
ENDBRANCH  16  18
ENDBRANCH  15  16
ENDBRANCH  14  15
ENDBRANCH  13  14
ENDBRANCH   4  13
TORSDOF 7
ENDMDL
