MODEL 1
REMARK VINA RESULT:      -7.1      0.000      0.000
REMARK  Name = 
REMARK  10 active torsions:
REMARK  status: ('A' for Active; 'I' for Inactive)
REMARK    1  A    between atoms: C_1  and  C_2
REMARK    2  A    between atoms: N_4  and  C_5
REMARK    3  A    between atoms: C_5  and  C_6
REMARK    4  A    between atoms: C_6  and  C_7
REMARK    5  A    between atoms: C_6  and  C_8
REMARK    6  A    between atoms: C_11  and  C_12
REMARK    7  A    between atoms: N_14  and  C_15
REMARK    8  A    between atoms: N_14  and  C_16
REMARK    9  A    between atoms: C_16  and  C_17
REMARK   10  A    between atoms: N_19  and  C_20
REMARK                            x       y       z     vdW  Elec       q    Type
REMARK                         _______ _______ _______ _____ _____    ______ ____
ROOT
ATOM      1  C   UNL     1       5.890   5.485  19.142  0.00  0.00    +0.000 C 
ATOM      2  O   UNL     1       6.132   5.203  20.322  0.00  0.00    +0.000 OA
ATOM      3  N   UNL     1       6.928   6.038  18.372  0.00  0.00    +0.000 N 
ATOM      4  C   UNL     1       8.256   6.106  18.982  0.00  0.00    +0.000 C 
ENDROOT
BRANCH   1  11
ATOM      5  C   UNL     1       3.422   7.358  17.416  0.00  0.00    +0.000 C 
ATOM      6  C   UNL     1       3.496   5.982  17.974  0.00  0.00    +0.000 A 
ATOM      7  N   UNL     1       2.345   5.296  17.891  0.00  0.00    +0.000 NA
ATOM      8  N   UNL     1       2.607   4.114  18.467  0.00  0.00    +0.000 N 
ATOM      9  C   UNL     1       3.916   4.002  18.813  0.00  0.00    +0.000 A 
ATOM     10 CL   UNL     1       4.510   2.500  19.384  0.00  0.00    +0.000 Cl
ATOM     11  C   UNL     1       4.535   5.230  18.630  0.00  0.00    +0.000 A 
BRANCH   8  12
ATOM     12  C   UNL     1       1.490   3.224  18.735  0.00  0.00    +0.000 C 
BRANCH  12  13
ATOM     13  C   UNL     1       0.866   3.403  20.129  0.00  0.00    +0.000 C 
ATOM     14  C   UNL     1       1.526   2.493  21.165  0.00  0.00    +0.000 C 
ATOM     15  C   UNL     1       0.979   4.865  20.567  0.00  0.00    +0.000 C 
ENDBRANCH  12  13
ENDBRANCH   8  12
ENDBRANCH   1  11
BRANCH   3  16
ATOM     16  C   UNL     1       6.816   6.395  16.969  0.00  0.00    +0.000 C 
BRANCH  16  17
ATOM     17  C   UNL     1       6.963   5.311  15.904  0.00  0.00    +0.000 C 
ATOM     18  O   UNL     1       7.805   4.423  16.010  0.00  0.00    +0.000 OA
ATOM     19  N   UNL     1       6.139   5.506  14.796  0.00  0.00    +0.000 N 
ATOM     20  H   UNL     1       5.839   6.458  14.620  0.00  0.00    +0.000 HD
BRANCH  19  21
ATOM     21  C   UNL     1       6.175   4.639  13.689  0.00  0.00    +0.000 A 
ATOM     22  C   UNL     1       5.118   3.767  13.415  0.00  0.00    +0.000 A 
ATOM     23  C   UNL     1       5.238   2.819  12.399  0.00  0.00    +0.000 A 
ATOM     24  C   UNL     1       6.421   2.741  11.669  0.00  0.00    +0.000 A 
ATOM     25 CL   UNL     1       6.619   1.499  10.496  0.00  0.00    +0.000 Cl
ATOM     26  C   UNL     1       7.455   3.649  11.899  0.00  0.00    +0.000 A 
ATOM     27  C   UNL     1       7.319   4.625  12.890  0.00  0.00    +0.000 A 
ENDBRANCH  19  21
ENDBRANCH  16  17
ENDBRANCH   3  16
TORSDOF 6
ENDMDL
MODEL 2
REMARK VINA RESULT:      -6.8      3.639      7.906
REMARK  Name = 
REMARK  10 active torsions:
REMARK  status: ('A' for Active; 'I' for Inactive)
REMARK    1  A    between atoms: C_1  and  C_2
REMARK    2  A    between atoms: N_4  and  C_5
REMARK    3  A    between atoms: C_5  and  C_6
REMARK    4  A    between atoms: C_6  and  C_7
REMARK    5  A    between atoms: C_6  and  C_8
REMARK    6  A    between atoms: C_11  and  C_12
REMARK    7  A    between atoms: N_14  and  C_15
REMARK    8  A    between atoms: N_14  and  C_16
REMARK    9  A    between atoms: C_16  and  C_17
REMARK   10  A    between atoms: N_19  and  C_20
REMARK                            x       y       z     vdW  Elec       q    Type
REMARK                         _______ _______ _______ _____ _____    ______ ____
ROOT
ATOM      1  C   UNL     1       4.873   4.797  19.029  0.00  0.00    +0.000 C 
ATOM      2  O   UNL     1       5.353   4.069  19.906  0.00  0.00    +0.000 OA
ATOM      3  N   UNL     1       3.557   5.257  19.202  0.00  0.00    +0.000 N 
ATOM      4  C   UNL     1       2.901   4.958  20.476  0.00  0.00    +0.000 C 
ENDROOT
BRANCH   1  11
ATOM      5  C   UNL     1       7.805   6.705  18.446  0.00  0.00    +0.000 C 
ATOM      6  C   UNL     1       6.869   5.932  17.589  0.00  0.00    +0.000 A 
ATOM      7  N   UNL     1       7.124   6.029  16.275  0.00  0.00    +0.000 NA
ATOM      8  N   UNL     1       6.167   5.300  15.684  0.00  0.00    +0.000 N 
ATOM      9  C   UNL     1       5.384   4.664  16.595  0.00  0.00    +0.000 A 
ATOM     10 CL   UNL     1       4.223   3.524  16.057  0.00  0.00    +0.000 Cl
ATOM     11  C   UNL     1       5.709   5.123  17.863  0.00  0.00    +0.000 A 
BRANCH   8  12
ATOM     12  C   UNL     1       6.035   5.389  14.239  0.00  0.00    +0.000 C 
BRANCH  12  13
ATOM     13  C   UNL     1       6.942   4.418  13.466  0.00  0.00    +0.000 C 
ATOM     14  C   UNL     1       6.130   3.448  12.608  0.00  0.00    +0.000 C 
ATOM     15  C   UNL     1       7.919   5.204  12.588  0.00  0.00    +0.000 C 
ENDBRANCH  12  13
ENDBRANCH   8  12
ENDBRANCH   1  11
BRANCH   3  16
ATOM     16  C   UNL     1       2.861   6.139  18.283  0.00  0.00    +0.000 C 
BRANCH  16  17
ATOM     17  C   UNL     1       2.347   7.489  18.781  0.00  0.00    +0.000 C 
ATOM     18  O   UNL     1       2.186   7.707  19.979  0.00  0.00    +0.000 OA
ATOM     19  N   UNL     1       1.995   8.362  17.753  0.00  0.00    +0.000 N 
ATOM     20  H   UNL     1       1.750   7.937  16.866  0.00  0.00    +0.000 HD
BRANCH  19  21
ATOM     21  C   UNL     1       1.449   9.631  18.018  0.00  0.00    +0.000 A 
ATOM     22  C   UNL     1       2.267  10.753  18.182  0.00  0.00    +0.000 A 
ATOM     23  C   UNL     1       1.716  11.968  18.587  0.00  0.00    +0.000 A 
ATOM     24  C   UNL     1       0.348  12.053  18.835  0.00  0.00    +0.000 A 
ATOM     25 CL   UNL     1      -0.319  13.516  19.446  0.00  0.00    +0.000 Cl
ATOM     26  C   UNL     1      -0.480  10.952  18.614  0.00  0.00    +0.000 A 
ATOM     27  C   UNL     1       0.067   9.745  18.170  0.00  0.00    +0.000 A 
ENDBRANCH  19  21
ENDBRANCH  16  17
ENDBRANCH   3  16
TORSDOF 6
ENDMDL
MODEL 3
REMARK VINA RESULT:      -6.8      3.686      5.687
REMARK  Name = 
REMARK  10 active torsions:
REMARK  status: ('A' for Active; 'I' for Inactive)
REMARK    1  A    between atoms: C_1  and  C_2
REMARK    2  A    between atoms: N_4  and  C_5
REMARK    3  A    between atoms: C_5  and  C_6
REMARK    4  A    between atoms: C_6  and  C_7
REMARK    5  A    between atoms: C_6  and  C_8
REMARK    6  A    between atoms: C_11  and  C_12
REMARK    7  A    between atoms: N_14  and  C_15
REMARK    8  A    between atoms: N_14  and  C_16
REMARK    9  A    between atoms: C_16  and  C_17
REMARK   10  A    between atoms: N_19  and  C_20
REMARK                            x       y       z     vdW  Elec       q    Type
REMARK                         _______ _______ _______ _____ _____    ______ ____
ROOT
ATOM      1  C   UNL     1       2.045   4.189  18.018  0.00  0.00    +0.000 C 
ATOM      2  O   UNL     1       1.129   4.346  17.202  0.00  0.00    +0.000 OA
ATOM      3  N   UNL     1       3.032   3.233  17.724  0.00  0.00    +0.000 N 
ATOM      4  C   UNL     1       2.982   2.597  16.406  0.00  0.00    +0.000 C 
ENDROOT
BRANCH   1  11
ATOM      5  C   UNL     1       1.586   3.584  21.483  0.00  0.00    +0.000 C 
ATOM      6  C   UNL     1       1.800   4.795  20.648  0.00  0.00    +0.000 A 
ATOM      7  N   UNL     1       1.724   5.949  21.330  0.00  0.00    +0.000 NA
ATOM      8  N   UNL     1       1.909   6.905  20.409  0.00  0.00    +0.000 N 
ATOM      9  C   UNL     1       2.203   6.380  19.191  0.00  0.00    +0.000 A 
ATOM     10 CL   UNL     1       2.670   7.425  17.915  0.00  0.00    +0.000 Cl
ATOM     11  C   UNL     1       2.033   5.004  19.242  0.00  0.00    +0.000 A 
BRANCH   8  12
ATOM     12  C   UNL     1       1.660   8.283  20.798  0.00  0.00    +0.000 C 
BRANCH  12  13
ATOM     13  C   UNL     1       0.175   8.680  20.784  0.00  0.00    +0.000 C 
ATOM     14  C   UNL     1      -0.377   8.855  22.198  0.00  0.00    +0.000 C 
ATOM     15  C   UNL     1      -0.013   9.971  19.984  0.00  0.00    +0.000 C 
ENDBRANCH  12  13
ENDBRANCH   8  12
ENDBRANCH   1  11
BRANCH   3  16
ATOM     16  C   UNL     1       4.184   2.949  18.561  0.00  0.00    +0.000 C 
BRANCH  16  17
ATOM     17  C   UNL     1       5.190   4.060  18.856  0.00  0.00    +0.000 C 
ATOM     18  O   UNL     1       5.512   4.338  20.008  0.00  0.00    +0.000 OA
ATOM     19  N   UNL     1       5.593   4.761  17.719  0.00  0.00    +0.000 N 
ATOM     20  H   UNL     1       4.954   4.748  16.933  0.00  0.00    +0.000 HD
BRANCH  19  21
ATOM     21  C   UNL     1       6.473   5.854  17.802  0.00  0.00    +0.000 A 
ATOM     22  C   UNL     1       7.562   5.846  18.678  0.00  0.00    +0.000 A 
ATOM     23  C   UNL     1       8.334   6.995  18.847  0.00  0.00    +0.000 A 
ATOM     24  C   UNL     1       8.006   8.152  18.144  0.00  0.00    +0.000 A 
ATOM     25 CL   UNL     1       8.881   9.604  18.435  0.00  0.00    +0.000 Cl
ATOM     26  C   UNL     1       6.958   8.146  17.223  0.00  0.00    +0.000 A 
ATOM     27  C   UNL     1       6.209   6.983  17.025  0.00  0.00    +0.000 A 
ENDBRANCH  19  21
ENDBRANCH  16  17
ENDBRANCH   3  16
TORSDOF 6
ENDMDL
MODEL 4
REMARK VINA RESULT:      -6.7      4.310      8.874
REMARK  Name = 
REMARK  10 active torsions:
REMARK  status: ('A' for Active; 'I' for Inactive)
REMARK    1  A    between atoms: C_1  and  C_2
REMARK    2  A    between atoms: N_4  and  C_5
REMARK    3  A    between atoms: C_5  and  C_6
REMARK    4  A    between atoms: C_6  and  C_7
REMARK    5  A    between atoms: C_6  and  C_8
REMARK    6  A    between atoms: C_11  and  C_12
REMARK    7  A    between atoms: N_14  and  C_15
REMARK    8  A    between atoms: N_14  and  C_16
REMARK    9  A    between atoms: C_16  and  C_17
REMARK   10  A    between atoms: N_19  and  C_20
REMARK                            x       y       z     vdW  Elec       q    Type
REMARK                         _______ _______ _______ _____ _____    ______ ____
ROOT
ATOM      1  C   UNL     1       2.299   4.723  18.575  0.00  0.00    +0.000 C 
ATOM      2  O   UNL     1       1.970   3.838  17.775  0.00  0.00    +0.000 OA
ATOM      3  N   UNL     1       1.659   4.751  19.826  0.00  0.00    +0.000 N 
ATOM      4  C   UNL     1       0.756   3.644  20.145  0.00  0.00    +0.000 C 
ENDROOT
BRANCH   1  11
ATOM      5  C   UNL     1       2.390   8.190  17.831  0.00  0.00    +0.000 C 
ATOM      6  C   UNL     1       3.382   7.084  17.801  0.00  0.00    +0.000 A 
ATOM      7  N   UNL     1       4.578   7.435  17.302  0.00  0.00    +0.000 NA
ATOM      8  N   UNL     1       5.307   6.310  17.331  0.00  0.00    +0.000 N 
ATOM      9  C   UNL     1       4.636   5.292  17.930  0.00  0.00    +0.000 A 
ATOM     10 CL   UNL     1       5.453   3.820  18.250  0.00  0.00    +0.000 Cl
ATOM     11  C   UNL     1       3.326   5.689  18.157  0.00  0.00    +0.000 A 
BRANCH   8  12
ATOM     12  C   UNL     1       6.588   6.310  16.644  0.00  0.00    +0.000 C 
BRANCH  12  13
ATOM     13  C   UNL     1       7.750   6.864  17.485  0.00  0.00    +0.000 C 
ATOM     14  C   UNL     1       7.664   8.382  17.637  0.00  0.00    +0.000 C 
ATOM     15  C   UNL     1       7.760   6.199  18.863  0.00  0.00    +0.000 C 
ENDBRANCH  12  13
ENDBRANCH   8  12
ENDBRANCH   1  11
BRANCH   3  16
ATOM     16  C   UNL     1       1.950   5.704  20.882  0.00  0.00    +0.000 C 
BRANCH  16  17
ATOM     17  C   UNL     1       0.979   6.854  21.143  0.00  0.00    +0.000 C 
ATOM     18  O   UNL     1      -0.228   6.724  20.955  0.00  0.00    +0.000 OA
ATOM     19  N   UNL     1       1.612   8.045  21.495  0.00  0.00    +0.000 N 
ATOM     20  H   UNL     1       2.572   8.152  21.190  0.00  0.00    +0.000 HD
BRANCH  19  21
ATOM     21  C   UNL     1       0.884   9.227  21.720  0.00  0.00    +0.000 A 
ATOM     22  C   UNL     1       0.191   9.437  22.915  0.00  0.00    +0.000 A 
ATOM     23  C   UNL     1      -0.639  10.550  23.058  0.00  0.00    +0.000 A 
ATOM     24  C   UNL     1      -0.779  11.442  21.998  0.00  0.00    +0.000 A 
ATOM     25 CL   UNL     1      -1.889  12.749  22.124  0.00  0.00    +0.000 Cl
ATOM     26  C   UNL     1      -0.041  11.269  20.826  0.00  0.00    +0.000 A 
ATOM     27  C   UNL     1       0.821  10.176  20.699  0.00  0.00    +0.000 A 
ENDBRANCH  19  21
ENDBRANCH  16  17
ENDBRANCH   3  16
TORSDOF 6
ENDMDL
MODEL 5
REMARK VINA RESULT:      -6.7      7.118      8.988
REMARK  Name = 
REMARK  10 active torsions:
REMARK  status: ('A' for Active; 'I' for Inactive)
REMARK    1  A    between atoms: C_1  and  C_2
REMARK    2  A    between atoms: N_4  and  C_5
REMARK    3  A    between atoms: C_5  and  C_6
REMARK    4  A    between atoms: C_6  and  C_7
REMARK    5  A    between atoms: C_6  and  C_8
REMARK    6  A    between atoms: C_11  and  C_12
REMARK    7  A    between atoms: N_14  and  C_15
REMARK    8  A    between atoms: N_14  and  C_16
REMARK    9  A    between atoms: C_16  and  C_17
REMARK   10  A    between atoms: N_19  and  C_20
REMARK                            x       y       z     vdW  Elec       q    Type
REMARK                         _______ _______ _______ _____ _____    ______ ____
ROOT
ATOM      1  C   UNL     1      -0.498  12.504  18.539  0.00  0.00    +0.000 C 
ATOM      2  O   UNL     1      -0.325  13.693  18.242  0.00  0.00    +0.000 OA
ATOM      3  N   UNL     1       0.634  11.732  18.850  0.00  0.00    +0.000 N 
ATOM      4  C   UNL     1       1.919  12.427  18.939  0.00  0.00    +0.000 C 
ENDROOT
BRANCH   1  11
ATOM      5  C   UNL     1      -2.450  10.473  16.384  0.00  0.00    +0.000 C 
ATOM      6  C   UNL     1      -2.703  11.200  17.655  0.00  0.00    +0.000 A 
ATOM      7  N   UNL     1      -3.982  11.162  18.061  0.00  0.00    +0.000 NA
ATOM      8  N   UNL     1      -4.007  11.889  19.187  0.00  0.00    +0.000 N 
ATOM      9  C   UNL     1      -2.763  12.292  19.554  0.00  0.00    +0.000 A 
ATOM     10 CL   UNL     1      -2.540  13.066  21.066  0.00  0.00    +0.000 Cl
ATOM     11  C   UNL     1      -1.872  11.980  18.536  0.00  0.00    +0.000 A 
BRANCH   8  12
ATOM     12  C   UNL     1      -5.303  12.226  19.752  0.00  0.00    +0.000 C 
BRANCH  12  13
ATOM     13  C   UNL     1      -6.494  11.604  19.005  0.00  0.00    +0.000 C 
ATOM     14  C   UNL     1      -7.123  10.458  19.797  0.00  0.00    +0.000 C 
ATOM     15  C   UNL     1      -7.544  12.678  18.711  0.00  0.00    +0.000 C 
ENDBRANCH  12  13
ENDBRANCH   8  12
ENDBRANCH   1  11
BRANCH   3  16
ATOM     16  C   UNL     1       0.600  10.335  19.244  0.00  0.00    +0.000 C 
BRANCH  16  17
ATOM     17  C   UNL     1       1.421   9.314  18.460  0.00  0.00    +0.000 C 
ATOM     18  O   UNL     1       1.544   9.396  17.240  0.00  0.00    +0.000 OA
ATOM     19  N   UNL     1       1.898   8.265  19.245  0.00  0.00    +0.000 N 
ATOM     20  H   UNL     1       1.382   8.068  20.095  0.00  0.00    +0.000 HD
BRANCH  19  21
ATOM     21  C   UNL     1       2.628   7.200  18.687  0.00  0.00    +0.000 A 
ATOM     22  C   UNL     1       3.789   7.426  17.942  0.00  0.00    +0.000 A 
ATOM     23  C   UNL     1       4.414   6.370  17.280  0.00  0.00    +0.000 A 
ATOM     24  C   UNL     1       3.866   5.091  17.358  0.00  0.00    +0.000 A 
ATOM     25 CL   UNL     1       4.564   3.808  16.450  0.00  0.00    +0.000 Cl
ATOM     26  C   UNL     1       2.744   4.850  18.150  0.00  0.00    +0.000 A 
ATOM     27  C   UNL     1       2.141   5.902  18.846  0.00  0.00    +0.000 A 
ENDBRANCH  19  21
ENDBRANCH  16  17
ENDBRANCH   3  16
TORSDOF 6
ENDMDL
MODEL 6
REMARK VINA RESULT:      -6.5      7.196      9.434
REMARK  Name = 
REMARK  10 active torsions:
REMARK  status: ('A' for Active; 'I' for Inactive)
REMARK    1  A    between atoms: C_1  and  C_2
REMARK    2  A    between atoms: N_4  and  C_5
REMARK    3  A    between atoms: C_5  and  C_6
REMARK    4  A    between atoms: C_6  and  C_7
REMARK    5  A    between atoms: C_6  and  C_8
REMARK    6  A    between atoms: C_11  and  C_12
REMARK    7  A    between atoms: N_14  and  C_15
REMARK    8  A    between atoms: N_14  and  C_16
REMARK    9  A    between atoms: C_16  and  C_17
REMARK   10  A    between atoms: N_19  and  C_20
REMARK                            x       y       z     vdW  Elec       q    Type
REMARK                         _______ _______ _______ _____ _____    ______ ____
ROOT
ATOM      1  C   UNL     1      -0.650  12.373  19.029  0.00  0.00    +0.000 C 
ATOM      2  O   UNL     1      -0.304  13.366  18.377  0.00  0.00    +0.000 OA
ATOM      3  N   UNL     1       0.273  11.829  19.938  0.00  0.00    +0.000 N 
ATOM      4  C   UNL     1       1.523  12.562  20.150  0.00  0.00    +0.000 C 
ENDROOT
BRANCH   1  11
ATOM      5  C   UNL     1      -2.075   9.882  16.945  0.00  0.00    +0.000 C 
ATOM      6  C   UNL     1      -2.610  10.857  17.932  0.00  0.00    +0.000 A 
ATOM      7  N   UNL     1      -3.950  10.875  18.011  0.00  0.00    +0.000 NA
ATOM      8  N   UNL     1      -4.228  11.825  18.916  0.00  0.00    +0.000 N 
ATOM      9  C   UNL     1      -3.099  12.327  19.481  0.00  0.00    +0.000 A 
ATOM     10 CL   UNL     1      -3.230  13.411  20.802  0.00  0.00    +0.000 Cl
ATOM     11  C   UNL     1      -1.997  11.827  18.802  0.00  0.00    +0.000 A 
BRANCH   8  12
ATOM     12  C   UNL     1      -5.612  12.243  19.062  0.00  0.00    +0.000 C 
BRANCH  12  13
ATOM     13  C   UNL     1      -6.355  11.557  20.220  0.00  0.00    +0.000 C 
ATOM     14  C   UNL     1      -7.375  12.491  20.870  0.00  0.00    +0.000 C 
ATOM     15  C   UNL     1      -7.050  10.290  19.716  0.00  0.00    +0.000 C 
ENDBRANCH  12  13
ENDBRANCH   8  12
ENDBRANCH   1  11
BRANCH   3  16
ATOM     16  C   UNL     1       0.014  10.687  20.796  0.00  0.00    +0.000 C 
BRANCH  16  17
ATOM     17  C   UNL     1       0.920   9.461  20.709  0.00  0.00    +0.000 C 
ATOM     18  O   UNL     1       1.408   8.956  21.717  0.00  0.00    +0.000 OA
ATOM     19  N   UNL     1       1.203   9.071  19.401  0.00  0.00    +0.000 N 
ATOM     20  H   UNL     1       1.127   9.791  18.691  0.00  0.00    +0.000 HD
BRANCH  19  21
ATOM     21  C   UNL     1       2.066   7.996  19.122  0.00  0.00    +0.000 A 
ATOM     22  C   UNL     1       2.902   8.008  18.002  0.00  0.00    +0.000 A 
ATOM     23  C   UNL     1       3.641   6.873  17.668  0.00  0.00    +0.000 A 
ATOM     24  C   UNL     1       3.530   5.727  18.452  0.00  0.00    +0.000 A 
ATOM     25 CL   UNL     1       4.347   4.289  17.979  0.00  0.00    +0.000 Cl
ATOM     26  C   UNL     1       2.745   5.732  19.604  0.00  0.00    +0.000 A 
ATOM     27  C   UNL     1       2.036   6.882  19.961  0.00  0.00    +0.000 A 
ENDBRANCH  19  21
ENDBRANCH  16  17
ENDBRANCH   3  16
TORSDOF 6
ENDMDL
MODEL 7
REMARK VINA RESULT:      -6.5      2.467      5.888
REMARK  Name = 
REMARK  10 active torsions:
REMARK  status: ('A' for Active; 'I' for Inactive)
REMARK    1  A    between atoms: C_1  and  C_2
REMARK    2  A    between atoms: N_4  and  C_5
REMARK    3  A    between atoms: C_5  and  C_6
REMARK    4  A    between atoms: C_6  and  C_7
REMARK    5  A    between atoms: C_6  and  C_8
REMARK    6  A    between atoms: C_11  and  C_12
REMARK    7  A    between atoms: N_14  and  C_15
REMARK    8  A    between atoms: N_14  and  C_16
REMARK    9  A    between atoms: C_16  and  C_17
REMARK   10  A    between atoms: N_19  and  C_20
REMARK                            x       y       z     vdW  Elec       q    Type
REMARK                         _______ _______ _______ _____ _____    ______ ____
ROOT
ATOM      1  C   UNL     1       6.932   4.610  16.606  0.00  0.00    +0.000 C 
ATOM      2  O   UNL     1       8.060   4.111  16.508  0.00  0.00    +0.000 OA
ATOM      3  N   UNL     1       6.420   5.301  15.495  0.00  0.00    +0.000 N 
ATOM      4  C   UNL     1       7.198   5.254  14.256  0.00  0.00    +0.000 C 
ENDROOT
BRANCH   1  11
ATOM      5  C   UNL     1       7.335   5.792  19.926  0.00  0.00    +0.000 C 
ATOM      6  C   UNL     1       6.379   4.880  19.245  0.00  0.00    +0.000 A 
ATOM      7  N   UNL     1       5.504   4.288  20.074  0.00  0.00    +0.000 NA
ATOM      8  N   UNL     1       4.765   3.496  19.285  0.00  0.00    +0.000 N 
ATOM      9  C   UNL     1       5.082   3.655  17.973  0.00  0.00    +0.000 A 
ATOM     10 CL   UNL     1       4.127   2.885  16.777  0.00  0.00    +0.000 Cl
ATOM     11  C   UNL     1       6.212   4.456  17.879  0.00  0.00    +0.000 A 
BRANCH   8  12
ATOM     12  C   UNL     1       3.868   2.546  19.921  0.00  0.00    +0.000 C 
BRANCH  12  13
ATOM     13  C   UNL     1       2.436   3.070  20.119  0.00  0.00    +0.000 C 
ATOM     14  C   UNL     1       1.442   2.362  19.199  0.00  0.00    +0.000 C 
ATOM     15  C   UNL     1       2.014   2.897  21.580  0.00  0.00    +0.000 C 
ENDBRANCH  12  13
ENDBRANCH   8  12
ENDBRANCH   1  11
BRANCH   3  16
ATOM     16  C   UNL     1       5.107   5.917  15.437  0.00  0.00    +0.000 C 
BRANCH  16  17
ATOM     17  C   UNL     1       4.601   6.718  16.635  0.00  0.00    +0.000 C 
ATOM     18  O   UNL     1       5.350   7.455  17.271  0.00  0.00    +0.000 OA
ATOM     19  N   UNL     1       3.276   6.438  16.971  0.00  0.00    +0.000 N 
ATOM     20  H   UNL     1       2.921   5.533  16.684  0.00  0.00    +0.000 HD
BRANCH  19  21
ATOM     21  C   UNL     1       2.655   7.038  18.081  0.00  0.00    +0.000 A 
ATOM     22  C   UNL     1       2.122   8.328  18.005  0.00  0.00    +0.000 A 
ATOM     23  C   UNL     1       1.641   8.956  19.153  0.00  0.00    +0.000 A 
ATOM     24  C   UNL     1       1.706   8.293  20.376  0.00  0.00    +0.000 A 
ATOM     25 CL   UNL     1       1.223   9.106  21.813  0.00  0.00    +0.000 Cl
ATOM     26  C   UNL     1       2.180   6.984  20.446  0.00  0.00    +0.000 A 
ATOM     27  C   UNL     1       2.625   6.340  19.288  0.00  0.00    +0.000 A 
ENDBRANCH  19  21
ENDBRANCH  16  17
ENDBRANCH   3  16
TORSDOF 6
ENDMDL
MODEL 8
REMARK VINA RESULT:      -6.4      7.239      9.408
REMARK  Name = 
REMARK  10 active torsions:
REMARK  status: ('A' for Active; 'I' for Inactive)
REMARK    1  A    between atoms: C_1  and  C_2
REMARK    2  A    between atoms: N_4  and  C_5
REMARK    3  A    between atoms: C_5  and  C_6
REMARK    4  A    between atoms: C_6  and  C_7
REMARK    5  A    between atoms: C_6  and  C_8
REMARK    6  A    between atoms: C_11  and  C_12
REMARK    7  A    between atoms: N_14  and  C_15
REMARK    8  A    between atoms: N_14  and  C_16
REMARK    9  A    between atoms: C_16  and  C_17
REMARK   10  A    between atoms: N_19  and  C_20
REMARK                            x       y       z     vdW  Elec       q    Type
REMARK                         _______ _______ _______ _____ _____    ______ ____
ROOT
ATOM      1  C   UNL     1      -0.730  12.340  19.239  0.00  0.00    +0.000 C 
ATOM      2  O   UNL     1      -0.395  13.416  18.727  0.00  0.00    +0.000 OA
ATOM      3  N   UNL     1       0.199  11.686  20.065  0.00  0.00    +0.000 N 
ATOM      4  C   UNL     1       1.441  12.395  20.375  0.00  0.00    +0.000 C 
ENDROOT
BRANCH   1  11
ATOM      5  C   UNL     1      -2.096   9.946  17.007  0.00  0.00    +0.000 C 
ATOM      6  C   UNL     1      -2.660  10.888  18.009  0.00  0.00    +0.000 A 
ATOM      7  N   UNL     1      -4.001  10.917  18.037  0.00  0.00    +0.000 NA
ATOM      8  N   UNL     1      -4.306  11.834  18.966  0.00  0.00    +0.000 N 
ATOM      9  C   UNL     1      -3.195  12.303  19.594  0.00  0.00    +0.000 A 
ATOM     10 CL   UNL     1      -3.368  13.337  20.949  0.00  0.00    +0.000 Cl
ATOM     11  C   UNL     1      -2.072  11.818  18.939  0.00  0.00    +0.000 A 
BRANCH   8  12
ATOM     12  C   UNL     1      -5.691  12.261  19.075  0.00  0.00    +0.000 C 
BRANCH  12  13
ATOM     13  C   UNL     1      -6.402  11.764  20.344  0.00  0.00    +0.000 C 
ATOM     14  C   UNL     1      -7.318  12.835  20.936  0.00  0.00    +0.000 C 
ATOM     15  C   UNL     1      -7.207  10.500  20.030  0.00  0.00    +0.000 C 
ENDBRANCH  12  13
ENDBRANCH   8  12
ENDBRANCH   1  11
BRANCH   3  16
ATOM     16  C   UNL     1      -0.049  10.436  20.760  0.00  0.00    +0.000 C 
BRANCH  16  17
ATOM     17  C   UNL     1       0.946   9.286  20.614  0.00  0.00    +0.000 C 
ATOM     18  O   UNL     1       1.562   8.850  21.583  0.00  0.00    +0.000 OA
ATOM     19  N   UNL     1       1.142   8.886  19.292  0.00  0.00    +0.000 N 
ATOM     20  H   UNL     1       0.943   9.578  18.579  0.00  0.00    +0.000 HD
BRANCH  19  21
ATOM     21  C   UNL     1       2.064   7.878  18.957  0.00  0.00    +0.000 A 
ATOM     22  C   UNL     1       2.233   6.750  19.765  0.00  0.00    +0.000 A 
ATOM     23  C   UNL     1       3.251   5.837  19.490  0.00  0.00    +0.000 A 
ATOM     24  C   UNL     1       4.103   6.064  18.413  0.00  0.00    +0.000 A 
ATOM     25 CL   UNL     1       5.432   5.006  18.139  0.00  0.00    +0.000 Cl
ATOM     26  C   UNL     1       3.900   7.156  17.568  0.00  0.00    +0.000 A 
ATOM     27  C   UNL     1       2.855   8.048  17.820  0.00  0.00    +0.000 A 
ENDBRANCH  19  21
ENDBRANCH  16  17
ENDBRANCH   3  16
TORSDOF 6
ENDMDL
MODEL 9
REMARK VINA RESULT:      -6.4      7.348      9.307
REMARK  Name = 
REMARK  10 active torsions:
REMARK  status: ('A' for Active; 'I' for Inactive)
REMARK    1  A    between atoms: C_1  and  C_2
REMARK    2  A    between atoms: N_4  and  C_5
REMARK    3  A    between atoms: C_5  and  C_6
REMARK    4  A    between atoms: C_6  and  C_7
REMARK    5  A    between atoms: C_6  and  C_8
REMARK    6  A    between atoms: C_11  and  C_12
REMARK    7  A    between atoms: N_14  and  C_15
REMARK    8  A    between atoms: N_14  and  C_16
REMARK    9  A    between atoms: C_16  and  C_17
REMARK   10  A    between atoms: N_19  and  C_20
REMARK                            x       y       z     vdW  Elec       q    Type
REMARK                         _______ _______ _______ _____ _____    ______ ____
ROOT
ATOM      1  C   UNL     1      -0.680  12.688  19.311  0.00  0.00    +0.000 C 
ATOM      2  O   UNL     1      -0.464  13.894  19.137  0.00  0.00    +0.000 OA
ATOM      3  N   UNL     1       0.401  11.873  19.687  0.00  0.00    +0.000 N 
ATOM      4  C   UNL     1       1.672  12.536  19.985  0.00  0.00    +0.000 C 
ENDROOT
BRANCH   1  11
ATOM      5  C   UNL     1      -2.276  10.488  17.033  0.00  0.00    +0.000 C 
ATOM      6  C   UNL     1      -2.732  11.341  18.161  0.00  0.00    +0.000 A 
ATOM      7  N   UNL     1      -4.064  11.366  18.325  0.00  0.00    +0.000 NA
ATOM      8  N   UNL     1      -4.268  12.201  19.354  0.00  0.00    +0.000 N 
ATOM      9  C   UNL     1      -3.098  12.617  19.905  0.00  0.00    +0.000 A 
ATOM     10 CL   UNL     1      -3.128  13.532  21.353  0.00  0.00    +0.000 Cl
ATOM     11  C   UNL     1      -2.049  12.190  19.103  0.00  0.00    +0.000 A 
BRANCH   8  12
ATOM     12  C   UNL     1      -5.633  12.614  19.635  0.00  0.00    +0.000 C 
BRANCH  12  13
ATOM     13  C   UNL     1      -6.314  11.810  20.754  0.00  0.00    +0.000 C 
ATOM     14  C   UNL     1      -6.800  12.714  21.886  0.00  0.00    +0.000 C 
ATOM     15  C   UNL     1      -7.486  11.009  20.182  0.00  0.00    +0.000 C 
ENDBRANCH  12  13
ENDBRANCH   8  12
ENDBRANCH   1  11
BRANCH   3  16
ATOM     16  C   UNL     1       0.310  10.450  19.957  0.00  0.00    +0.000 C 
BRANCH  16  17
ATOM     17  C   UNL     1       1.032   9.464  19.041  0.00  0.00    +0.000 C 
ATOM     18  O   UNL     1       0.934   9.541  17.818  0.00  0.00    +0.000 OA
ATOM     19  N   UNL     1       1.693   8.448  19.729  0.00  0.00    +0.000 N 
ATOM     20  H   UNL     1       1.345   8.233  20.657  0.00  0.00    +0.000 HD
BRANCH  19  21
ATOM     21  C   UNL     1       2.367   7.416  19.052  0.00  0.00    +0.000 A 
ATOM     22  C   UNL     1       2.312   6.094  19.502  0.00  0.00    +0.000 A 
ATOM     23  C   UNL     1       3.103   5.115  18.900  0.00  0.00    +0.000 A 
ATOM     24  C   UNL     1       3.954   5.467  17.856  0.00  0.00    +0.000 A 
ATOM     25 CL   UNL     1       5.016   4.291  17.188  0.00  0.00    +0.000 Cl
ATOM     26  C   UNL     1       3.966   6.772  17.363  0.00  0.00    +0.000 A 
ATOM     27  C   UNL     1       3.144   7.744  17.940  0.00  0.00    +0.000 A 
ENDBRANCH  19  21
ENDBRANCH  16  17
ENDBRANCH   3  16
TORSDOF 6
ENDMDL
