MODEL 1
REMARK VINA RESULT:      -9.0      0.000      0.000
REMARK  Name = 
REMARK  4 active torsions:
REMARK  status: ('A' for Active; 'I' for Inactive)
REMARK    1  A    between atoms: C_1  and  S_2
REMARK    2  A    between atoms: S_2  and  C_5
REMARK    3  A    between atoms: C_5  and  C_6
REMARK    4  A    between atoms: C_8  and  C_9
REMARK                            x       y       z     vdW  Elec       q    Type
REMARK                         _______ _______ _______ _____ _____    ______ ____
ROOT
ATOM      1  C   UNL     1       4.227   5.884  17.404  0.00  0.00    +0.000 A 
ATOM      2  N   UNL     1       3.596   7.081  17.510  0.00  0.00    +0.000 NA
ATOM      3  C   UNL     1       2.664   7.194  18.475  0.00  0.00    +0.000 A 
ATOM      4  N   UNL     1       2.285   6.186  19.281  0.00  0.00    +0.000 NA
ATOM      5  C   UNL     1       2.901   5.002  19.161  0.00  0.00    +0.000 A 
ATOM      6  C   UNL     1       3.869   4.799  18.193  0.00  0.00    +0.000 A 
ATOM      7  O   UNL     1       4.542   3.623  18.005  0.00  0.00    +0.000 OA
ATOM      8  C   UNL     1       3.987   2.500  18.687  0.00  0.00    +0.000 C 
ATOM      9  C   UNL     1       3.485   2.833  20.094  0.00  0.00    +0.000 C 
ATOM     10  C   UNL     1       2.754   1.618  20.662  0.00  0.00    +0.000 C 
ATOM     11  O   UNL     1       2.216   1.925  21.943  0.00  0.00    +0.000 OA
ATOM     12  C   UNL     1       1.206   2.936  21.878  0.00  0.00    +0.000 C 
ATOM     13  C   UNL     1       1.371   4.050  20.825  0.00  0.00    +0.000 C 
ATOM     14  N   UNL     1       2.600   3.994  20.057  0.00  0.00    +0.000 N 
ENDROOT
BRANCH   3  15
ATOM     15  C   UNL     1       2.093   8.528  18.717  0.00  0.00    +0.000 A 
ATOM     16  C   UNL     1       2.188   9.575  17.764  0.00  0.00    +0.000 A 
ATOM     17  C   UNL     1       1.671  10.846  18.010  0.00  0.00    +0.000 A 
ATOM     18  C   UNL     1       1.048  11.127  19.221  0.00  0.00    +0.000 A 
ATOM     19  F   UNL     1       0.557  12.347  19.461  0.00  0.00    +0.000 F 
ATOM     20  C   UNL     1       0.953  10.110  20.175  0.00  0.00    +0.000 A 
ATOM     21  N   UNL     1       0.401  10.148  21.436  0.00  0.00    +0.000 N 
ATOM     22  C   UNL     1       0.521   8.929  22.032  0.00  0.00    +0.000 A 
ATOM     23  C   UNL     1       1.167   8.096  21.150  0.00  0.00    +0.000 A 
ATOM     24  C   UNL     1       1.448   8.828  19.953  0.00  0.00    +0.000 A 
ATOM     25  H   UNL     1      -0.040  10.964  21.844  0.00  0.00    +0.000 HD
ENDBRANCH   3  15
BRANCH   1  26
ATOM     26  C   UNL     1       5.405   5.777  16.489  0.00  0.00    +0.000 C 
ATOM     27  C   UNL     1       5.358   6.411  15.093  0.00  0.00    +0.000 C 
ATOM     28  C   UNL     1       5.331   4.921  15.240  0.00  0.00    +0.000 C 
BRANCH  26  30
ATOM     29  C   UNL     1       6.783   5.822  19.018  0.00  0.00    +0.000 C 
ATOM     30  S   UNL     1       7.046   5.959  17.272  0.00  0.00    +0.000 S 
ATOM     31  O   UNL     1       7.500   7.313  17.010  0.00  0.00    +0.000 OA
ATOM     32  O   UNL     1       7.852   4.819  16.878  0.00  0.00    +0.000 OA
ENDBRANCH  26  30
ENDBRANCH   1  26
TORSDOF 3
ENDMDL
MODEL 2
REMARK VINA RESULT:      -8.7      0.989      1.562
REMARK  Name = 
REMARK  4 active torsions:
REMARK  status: ('A' for Active; 'I' for Inactive)
REMARK    1  A    between atoms: C_1  and  S_2
REMARK    2  A    between atoms: S_2  and  C_5
REMARK    3  A    between atoms: C_5  and  C_6
REMARK    4  A    between atoms: C_8  and  C_9
REMARK                            x       y       z     vdW  Elec       q    Type
REMARK                         _______ _______ _______ _____ _____    ______ ____
ROOT
ATOM      1  C   UNL     1       4.729   6.170  17.976  0.00  0.00    +0.000 A 
ATOM      2  N   UNL     1       3.961   7.288  17.924  0.00  0.00    +0.000 NA
ATOM      3  C   UNL     1       2.839   7.289  18.668  0.00  0.00    +0.000 A 
ATOM      4  N   UNL     1       2.414   6.241  19.396  0.00  0.00    +0.000 NA
ATOM      5  C   UNL     1       3.168   5.135  19.431  0.00  0.00    +0.000 A 
ATOM      6  C   UNL     1       4.336   5.048  18.692  0.00  0.00    +0.000 A 
ATOM      7  O   UNL     1       5.161   3.957  18.672  0.00  0.00    +0.000 OA
ATOM      8  C   UNL     1       4.603   2.774  19.244  0.00  0.00    +0.000 C 
ATOM      9  C   UNL     1       3.781   3.041  20.506  0.00  0.00    +0.000 C 
ATOM     10  C   UNL     1       3.086   1.748  20.930  0.00  0.00    +0.000 C 
ATOM     11  O   UNL     1       2.258   1.986  22.063  0.00  0.00    +0.000 OA
ATOM     12  C   UNL     1       1.178   2.877  21.768  0.00  0.00    +0.000 C 
ATOM     13  C   UNL     1       1.438   4.008  20.752  0.00  0.00    +0.000 C 
ATOM     14  N   UNL     1       2.800   4.095  20.262  0.00  0.00    +0.000 N 
ENDROOT
BRANCH   3  15
ATOM     15  C   UNL     1       2.084   8.550  18.759  0.00  0.00    +0.000 A 
ATOM     16  C   UNL     1       2.108   9.521  17.725  0.00  0.00    +0.000 A 
ATOM     17  C   UNL     1       1.415  10.725  17.829  0.00  0.00    +0.000 A 
ATOM     18  C   UNL     1       0.679  11.015  18.973  0.00  0.00    +0.000 A 
ATOM     19  F   UNL     1       0.019  12.173  19.076  0.00  0.00    +0.000 F 
ATOM     20  C   UNL     1       0.652  10.073  20.005  0.00  0.00    +0.000 A 
ATOM     21  N   UNL     1       0.013  10.136  21.224  0.00  0.00    +0.000 N 
ATOM     22  C   UNL     1       0.250   8.995  21.930  0.00  0.00    +0.000 A 
ATOM     23  C   UNL     1       1.057   8.190  21.163  0.00  0.00    +0.000 A 
ATOM     24  C   UNL     1       1.323   8.857  19.925  0.00  0.00    +0.000 A 
ATOM     25  H   UNL     1      -0.556  10.915  21.532  0.00  0.00    +0.000 HD
ENDBRANCH   3  15
BRANCH   1  26
ATOM     26  C   UNL     1       6.078   6.202  17.331  0.00  0.00    +0.000 C 
ATOM     27  C   UNL     1       7.323   5.778  18.122  0.00  0.00    +0.000 C 
ATOM     28  C   UNL     1       7.114   7.218  17.769  0.00  0.00    +0.000 C 
BRANCH  26  30
ATOM     29  C   UNL     1       5.520   3.990  15.572  0.00  0.00    +0.000 C 
ATOM     30  S   UNL     1       6.148   5.646  15.592  0.00  0.00    +0.000 S 
ATOM     31  O   UNL     1       7.550   5.580  15.217  0.00  0.00    +0.000 OA
ATOM     32  O   UNL     1       5.216   6.457  14.832  0.00  0.00    +0.000 OA
ENDBRANCH  26  30
ENDBRANCH   1  26
TORSDOF 3
ENDMDL
MODEL 3
REMARK VINA RESULT:      -8.3      1.994      4.722
REMARK  Name = 
REMARK  4 active torsions:
REMARK  status: ('A' for Active; 'I' for Inactive)
REMARK    1  A    between atoms: C_1  and  S_2
REMARK    2  A    between atoms: S_2  and  C_5
REMARK    3  A    between atoms: C_5  and  C_6
REMARK    4  A    between atoms: C_8  and  C_9
REMARK                            x       y       z     vdW  Elec       q    Type
REMARK                         _______ _______ _______ _____ _____    ______ ____
ROOT
ATOM      1  C   UNL     1       2.568   5.002  19.574  0.00  0.00    +0.000 A 
ATOM      2  N   UNL     1       1.853   6.140  19.765  0.00  0.00    +0.000 NA
ATOM      3  C   UNL     1       2.384   7.279  19.282  0.00  0.00    +0.000 A 
ATOM      4  N   UNL     1       3.589   7.360  18.691  0.00  0.00    +0.000 NA
ATOM      5  C   UNL     1       4.297   6.236  18.520  0.00  0.00    +0.000 A 
ATOM      6  C   UNL     1       3.826   5.022  18.989  0.00  0.00    +0.000 A 
ATOM      7  O   UNL     1       4.487   3.831  18.856  0.00  0.00    +0.000 OA
ATOM      8  C   UNL     1       5.849   3.944  18.449  0.00  0.00    +0.000 C 
ATOM      9  C   UNL     1       6.078   5.024  17.390  0.00  0.00    +0.000 C 
ATOM     10  C   UNL     1       7.579   5.186  17.159  0.00  0.00    +0.000 C 
ATOM     11  O   UNL     1       7.821   6.235  16.228  0.00  0.00    +0.000 OA
ATOM     12  C   UNL     1       7.410   7.510  16.729  0.00  0.00    +0.000 C 
ATOM     13  C   UNL     1       6.164   7.557  17.636  0.00  0.00    +0.000 C 
ATOM     14  N   UNL     1       5.484   6.289  17.815  0.00  0.00    +0.000 N 
ENDROOT
BRANCH   3  15
ATOM     15  C   UNL     1       1.550   8.491  19.327  0.00  0.00    +0.000 A 
ATOM     16  C   UNL     1       1.248   9.244  18.163  0.00  0.00    +0.000 A 
ATOM     17  C   UNL     1       0.482  10.407  18.215  0.00  0.00    +0.000 A 
ATOM     18  C   UNL     1      -0.005  10.873  19.432  0.00  0.00    +0.000 A 
ATOM     19  F   UNL     1      -0.735  11.992  19.484  0.00  0.00    +0.000 F 
ATOM     20  C   UNL     1       0.290  10.147  20.590  0.00  0.00    +0.000 A 
ATOM     21  N   UNL     1      -0.063  10.411  21.895  0.00  0.00    +0.000 N 
ATOM     22  C   UNL     1       0.434   9.442  22.714  0.00  0.00    +0.000 A 
ATOM     23  C   UNL     1       1.125   8.549  21.931  0.00  0.00    +0.000 A 
ATOM     24  C   UNL     1       1.041   8.977  20.568  0.00  0.00    +0.000 A 
ATOM     25  H   UNL     1      -0.622  11.203  22.188  0.00  0.00    +0.000 HD
ENDBRANCH   3  15
BRANCH   1  26
ATOM     26  C   UNL     1       1.927   3.693  19.908  0.00  0.00    +0.000 C 
ATOM     27  C   UNL     1       1.083   3.548  21.182  0.00  0.00    +0.000 C 
ATOM     28  C   UNL     1       2.418   2.877  21.087  0.00  0.00    +0.000 C 
BRANCH  26  30
ATOM     29  C   UNL     1       2.476   1.662  17.941  0.00  0.00    +0.000 C 
ATOM     30  S   UNL     1       1.213   2.769  18.502  0.00  0.00    +0.000 S 
ATOM     31  O   UNL     1       0.974   3.726  17.436  0.00  0.00    +0.000 OA
ATOM     32  O   UNL     1       0.133   1.948  19.016  0.00  0.00    +0.000 OA
ENDBRANCH  26  30
ENDBRANCH   1  26
TORSDOF 3
ENDMDL
MODEL 4
REMARK VINA RESULT:      -7.8      1.842      4.670
REMARK  Name = 
REMARK  4 active torsions:
REMARK  status: ('A' for Active; 'I' for Inactive)
REMARK    1  A    between atoms: C_1  and  S_2
REMARK    2  A    between atoms: S_2  and  C_5
REMARK    3  A    between atoms: C_5  and  C_6
REMARK    4  A    between atoms: C_8  and  C_9
REMARK                            x       y       z     vdW  Elec       q    Type
REMARK                         _______ _______ _______ _____ _____    ______ ____
ROOT
ATOM      1  C   UNL     1       2.437   4.877  19.563  0.00  0.00    +0.000 A 
ATOM      2  N   UNL     1       1.801   6.064  19.737  0.00  0.00    +0.000 NA
ATOM      3  C   UNL     1       2.376   7.148  19.183  0.00  0.00    +0.000 A 
ATOM      4  N   UNL     1       3.554   7.131  18.534  0.00  0.00    +0.000 NA
ATOM      5  C   UNL     1       4.184   5.959  18.379  0.00  0.00    +0.000 A 
ATOM      6  C   UNL     1       3.665   4.796  18.920  0.00  0.00    +0.000 A 
ATOM      7  O   UNL     1       4.245   3.562  18.808  0.00  0.00    +0.000 OA
ATOM      8  C   UNL     1       5.591   3.575  18.335  0.00  0.00    +0.000 C 
ATOM      9  C   UNL     1       5.832   4.595  17.221  0.00  0.00    +0.000 C 
ATOM     10  C   UNL     1       7.328   4.655  16.915  0.00  0.00    +0.000 C 
ATOM     11  O   UNL     1       7.587   5.649  15.930  0.00  0.00    +0.000 OA
ATOM     12  C   UNL     1       7.277   6.966  16.394  0.00  0.00    +0.000 C 
ATOM     13  C   UNL     1       6.081   7.126  17.354  0.00  0.00    +0.000 C 
ATOM     14  N   UNL     1       5.337   5.910  17.619  0.00  0.00    +0.000 N 
ENDROOT
BRANCH   3  15
ATOM     15  C   UNL     1       1.619   8.410  19.213  0.00  0.00    +0.000 A 
ATOM     16  C   UNL     1       1.383   9.178  18.044  0.00  0.00    +0.000 A 
ATOM     17  C   UNL     1       0.691  10.387  18.084  0.00  0.00    +0.000 A 
ATOM     18  C   UNL     1       0.216  10.885  19.292  0.00  0.00    +0.000 A 
ATOM     19  F   UNL     1      -0.444  12.048  19.333  0.00  0.00    +0.000 F 
ATOM     20  C   UNL     1       0.447  10.145  20.455  0.00  0.00    +0.000 A 
ATOM     21  N   UNL     1       0.091  10.432  21.754  0.00  0.00    +0.000 N 
ATOM     22  C   UNL     1       0.514   9.436  22.582  0.00  0.00    +0.000 A 
ATOM     23  C   UNL     1       1.159   8.499  21.811  0.00  0.00    +0.000 A 
ATOM     24  C   UNL     1       1.123   8.929  20.446  0.00  0.00    +0.000 A 
ATOM     25  H   UNL     1      -0.422  11.259  22.038  0.00  0.00    +0.000 HD
ENDBRANCH   3  15
BRANCH   1  26
ATOM     26  C   UNL     1       1.735   3.625  19.982  0.00  0.00    +0.000 C 
ATOM     27  C   UNL     1       1.470   2.510  18.963  0.00  0.00    +0.000 C 
ATOM     28  C   UNL     1       0.333   3.330  19.490  0.00  0.00    +0.000 C 
BRANCH  26  30
ATOM     29  C   UNL     1       3.560   1.868  21.354  0.00  0.00    +0.000 C 
ATOM     30  S   UNL     1       2.193   2.962  21.623  0.00  0.00    +0.000 S 
ATOM     31  O   UNL     1       1.079   2.153  22.086  0.00  0.00    +0.000 OA
ATOM     32  O   UNL     1       2.690   4.065  22.422  0.00  0.00    +0.000 OA
ENDBRANCH  26  30
ENDBRANCH   1  26
TORSDOF 3
ENDMDL
MODEL 5
REMARK VINA RESULT:      -7.7      5.282      8.406
REMARK  Name = 
REMARK  4 active torsions:
REMARK  status: ('A' for Active; 'I' for Inactive)
REMARK    1  A    between atoms: C_1  and  S_2
REMARK    2  A    between atoms: S_2  and  C_5
REMARK    3  A    between atoms: C_5  and  C_6
REMARK    4  A    between atoms: C_8  and  C_9
REMARK                            x       y       z     vdW  Elec       q    Type
REMARK                         _______ _______ _______ _____ _____    ______ ____
ROOT
ATOM      1  C   UNL     1      -0.392  10.703  20.259  0.00  0.00    +0.000 A 
ATOM      2  N   UNL     1       0.614   9.807  20.096  0.00  0.00    +0.000 NA
ATOM      3  C   UNL     1       0.675   9.171  18.911  0.00  0.00    +0.000 A 
ATOM      4  N   UNL     1      -0.224   9.325  17.923  0.00  0.00    +0.000 NA
ATOM      5  C   UNL     1      -1.224  10.201  18.096  0.00  0.00    +0.000 A 
ATOM      6  C   UNL     1      -1.363  10.894  19.285  0.00  0.00    +0.000 A 
ATOM      7  O   UNL     1      -2.354  11.802  19.542  0.00  0.00    +0.000 OA
ATOM      8  C   UNL     1      -3.429  11.795  18.605  0.00  0.00    +0.000 C 
ATOM      9  C   UNL     1      -2.971  11.608  17.157  0.00  0.00    +0.000 C 
ATOM     10  C   UNL     1      -4.199  11.435  16.265  0.00  0.00    +0.000 C 
ATOM     11  O   UNL     1      -3.797  11.189  14.922  0.00  0.00    +0.000 OA
ATOM     12  C   UNL     1      -3.093   9.952  14.784  0.00  0.00    +0.000 C 
ATOM     13  C   UNL     1      -2.190   9.506  15.952  0.00  0.00    +0.000 C 
ATOM     14  N   UNL     1      -2.088  10.450  17.048  0.00  0.00    +0.000 N 
ENDROOT
BRANCH   3  15
ATOM     15  C   UNL     1       1.852   8.325  18.652  0.00  0.00    +0.000 A 
ATOM     16  C   UNL     1       2.751   8.588  17.586  0.00  0.00    +0.000 A 
ATOM     17  C   UNL     1       3.848   7.766  17.328  0.00  0.00    +0.000 A 
ATOM     18  C   UNL     1       4.085   6.645  18.115  0.00  0.00    +0.000 A 
ATOM     19  F   UNL     1       5.133   5.852  17.865  0.00  0.00    +0.000 F 
ATOM     20  C   UNL     1       3.203   6.367  19.164  0.00  0.00    +0.000 A 
ATOM     21  N   UNL     1       3.220   5.322  20.061  0.00  0.00    +0.000 N 
ATOM     22  C   UNL     1       2.171   5.434  20.922  0.00  0.00    +0.000 A 
ATOM     23  C   UNL     1       1.463   6.558  20.573  0.00  0.00    +0.000 A 
ATOM     24  C   UNL     1       2.108   7.174  19.454  0.00  0.00    +0.000 A 
ATOM     25  H   UNL     1       3.922   4.591  20.076  0.00  0.00    +0.000 HD
ENDBRANCH   3  15
BRANCH   1  26
ATOM     26  C   UNL     1      -0.378  11.576  21.473  0.00  0.00    +0.000 C 
ATOM     27  C   UNL     1      -0.393  10.952  22.874  0.00  0.00    +0.000 C 
ATOM     28  C   UNL     1      -1.602  11.673  22.362  0.00  0.00    +0.000 C 
BRANCH  26  30
ATOM     29  C   UNL     1       0.265  13.900  19.898  0.00  0.00    +0.000 C 
ATOM     30  S   UNL     1       0.701  13.049  21.388  0.00  0.00    +0.000 S 
ATOM     31  O   UNL     1       2.065  12.575  21.231  0.00  0.00    +0.000 OA
ATOM     32  O   UNL     1       0.343  13.922  22.490  0.00  0.00    +0.000 OA
ENDBRANCH  26  30
ENDBRANCH   1  26
TORSDOF 3
ENDMDL
MODEL 6
REMARK VINA RESULT:      -7.6      2.113      5.031
REMARK  Name = 
REMARK  4 active torsions:
REMARK  status: ('A' for Active; 'I' for Inactive)
REMARK    1  A    between atoms: C_1  and  S_2
REMARK    2  A    between atoms: S_2  and  C_5
REMARK    3  A    between atoms: C_5  and  C_6
REMARK    4  A    between atoms: C_8  and  C_9
REMARK                            x       y       z     vdW  Elec       q    Type
REMARK                         _______ _______ _______ _____ _____    ______ ____
ROOT
ATOM      1  C   UNL     1       2.679   4.592  20.022  0.00  0.00    +0.000 A 
ATOM      2  N   UNL     1       1.962   5.681  20.398  0.00  0.00    +0.000 NA
ATOM      3  C   UNL     1       2.406   6.879  19.972  0.00  0.00    +0.000 A 
ATOM      4  N   UNL     1       3.535   7.058  19.264  0.00  0.00    +0.000 NA
ATOM      5  C   UNL     1       4.248   5.980  18.909  0.00  0.00    +0.000 A 
ATOM      6  C   UNL     1       3.864   4.712  19.307  0.00  0.00    +0.000 A 
ATOM      7  O   UNL     1       4.535   3.563  18.989  0.00  0.00    +0.000 OA
ATOM      8  C   UNL     1       5.840   3.763  18.449  0.00  0.00    +0.000 C 
ATOM      9  C   UNL     1       5.921   4.944  17.480  0.00  0.00    +0.000 C 
ATOM     10  C   UNL     1       7.383   5.181  17.104  0.00  0.00    +0.000 C 
ATOM     11  O   UNL     1       7.492   6.319  16.257  0.00  0.00    +0.000 OA
ATOM     12  C   UNL     1       7.107   7.527  16.920  0.00  0.00    +0.000 C 
ATOM     13  C   UNL     1       5.969   7.445  17.958  0.00  0.00    +0.000 C 
ATOM     14  N   UNL     1       5.347   6.141  18.087  0.00  0.00    +0.000 N 
ENDROOT
BRANCH   3  15
ATOM     15  C   UNL     1       1.552   8.051  20.224  0.00  0.00    +0.000 A 
ATOM     16  C   UNL     1       0.703   8.137  21.358  0.00  0.00    +0.000 A 
ATOM     17  C   UNL     1      -0.126   9.236  21.575  0.00  0.00    +0.000 A 
ATOM     18  C   UNL     1      -0.151  10.288  20.666  0.00  0.00    +0.000 A 
ATOM     19  F   UNL     1      -0.950  11.340  20.871  0.00  0.00    +0.000 F 
ATOM     20  C   UNL     1       0.673  10.215  19.539  0.00  0.00    +0.000 A 
ATOM     21  N   UNL     1       0.813  11.113  18.504  0.00  0.00    +0.000 N 
ATOM     22  C   UNL     1       1.728  10.648  17.608  0.00  0.00    +0.000 A 
ATOM     23  C   UNL     1       2.177   9.432  18.064  0.00  0.00    +0.000 A 
ATOM     24  C   UNL     1       1.520   9.137  19.301  0.00  0.00    +0.000 A 
ATOM     25  H   UNL     1       0.314  11.992  18.437  0.00  0.00    +0.000 HD
ENDBRANCH   3  15
BRANCH   1  26
ATOM     26  C   UNL     1       2.114   3.236  20.296  0.00  0.00    +0.000 C 
ATOM     27  C   UNL     1       1.288   2.985  21.565  0.00  0.00    +0.000 C 
ATOM     28  C   UNL     1       2.657   2.393  21.433  0.00  0.00    +0.000 C 
BRANCH  26  30
ATOM     29  C   UNL     1       1.447   3.493  17.506  0.00  0.00    +0.000 C 
ATOM     30  S   UNL     1       1.442   2.341  18.851  0.00  0.00    +0.000 S 
ATOM     31  O   UNL     1       0.054   2.029  19.145  0.00  0.00    +0.000 OA
ATOM     32  O   UNL     1       2.381   1.290  18.508  0.00  0.00    +0.000 OA
ENDBRANCH  26  30
ENDBRANCH   1  26
TORSDOF 3
ENDMDL
MODEL 7
REMARK VINA RESULT:      -7.4      9.323     11.681
REMARK  Name = 
REMARK  4 active torsions:
REMARK  status: ('A' for Active; 'I' for Inactive)
REMARK    1  A    between atoms: C_1  and  S_2
REMARK    2  A    between atoms: S_2  and  C_5
REMARK    3  A    between atoms: C_5  and  C_6
REMARK    4  A    between atoms: C_8  and  C_9
REMARK                            x       y       z     vdW  Elec       q    Type
REMARK                         _______ _______ _______ _____ _____    ______ ____
ROOT
ATOM      1  C   UNL     1       6.913  14.570  21.700  0.00  0.00    +0.000 A 
ATOM      2  N   UNL     1       7.895  14.093  20.894  0.00  0.00    +0.000 NA
ATOM      3  C   UNL     1       7.731  14.266  19.568  0.00  0.00    +0.000 A 
ATOM      4  N   UNL     1       6.640  14.817  19.008  0.00  0.00    +0.000 NA
ATOM      5  C   UNL     1       5.667  15.272  19.808  0.00  0.00    +0.000 A 
ATOM      6  C   UNL     1       5.754  15.132  21.182  0.00  0.00    +0.000 A 
ATOM      7  O   UNL     1       4.805  15.568  22.067  0.00  0.00    +0.000 OA
ATOM      8  C   UNL     1       3.559  15.933  21.477  0.00  0.00    +0.000 C 
ATOM      9  C   UNL     1       3.712  16.678  20.149  0.00  0.00    +0.000 C 
ATOM     10  C   UNL     1       2.332  16.860  19.519  0.00  0.00    +0.000 C 
ATOM     11  O   UNL     1       2.454  17.490  18.248  0.00  0.00    +0.000 OA
ATOM     12  C   UNL     1       3.159  16.678  17.306  0.00  0.00    +0.000 C 
ATOM     13  C   UNL     1       4.301  15.788  17.838  0.00  0.00    +0.000 C 
ATOM     14  N   UNL     1       4.594  15.941  19.250  0.00  0.00    +0.000 N 
ENDROOT
BRANCH   3  15
ATOM     15  C   UNL     1       8.858  13.910  18.691  0.00  0.00    +0.000 A 
ATOM     16  C   UNL     1       9.327  12.577  18.566  0.00  0.00    +0.000 A 
ATOM     17  C   UNL     1      10.413  12.250  17.757  0.00  0.00    +0.000 A 
ATOM     18  C   UNL     1      11.083  13.241  17.049  0.00  0.00    +0.000 A 
ATOM     19  F   UNL     1      12.130  12.930  16.276  0.00  0.00    +0.000 F 
ATOM     20  C   UNL     1      10.640  14.562  17.167  0.00  0.00    +0.000 A 
ATOM     21  N   UNL     1      11.142  15.704  16.583  0.00  0.00    +0.000 N 
ATOM     22  C   UNL     1      10.407  16.783  16.969  0.00  0.00    +0.000 A 
ATOM     23  C   UNL     1       9.425  16.336  17.820  0.00  0.00    +0.000 A 
ATOM     24  C   UNL     1       9.551  14.917  17.957  0.00  0.00    +0.000 A 
ATOM     25  H   UNL     1      11.933  15.723  15.950  0.00  0.00    +0.000 HD
ENDBRANCH   3  15
BRANCH   1  26
ATOM     26  C   UNL     1       7.146  14.584  23.177  0.00  0.00    +0.000 C 
ATOM     27  C   UNL     1       7.427  15.906  23.903  0.00  0.00    +0.000 C 
ATOM     28  C   UNL     1       8.521  14.898  23.733  0.00  0.00    +0.000 C 
BRANCH  26  30
ATOM     29  C   UNL     1       7.166  12.628  25.291  0.00  0.00    +0.000 C 
ATOM     30  S   UNL     1       6.089  13.468  24.165  0.00  0.00    +0.000 S 
ATOM     31  O   UNL     1       5.551  12.470  23.258  0.00  0.00    +0.000 OA
ATOM     32  O   UNL     1       5.205  14.293  24.966  0.00  0.00    +0.000 OA
ENDBRANCH  26  30
ENDBRANCH   1  26
TORSDOF 3
ENDMDL
MODEL 8
REMARK VINA RESULT:      -7.3      5.976     10.193
REMARK  Name = 
REMARK  4 active torsions:
REMARK  status: ('A' for Active; 'I' for Inactive)
REMARK    1  A    between atoms: C_1  and  S_2
REMARK    2  A    between atoms: S_2  and  C_5
REMARK    3  A    between atoms: C_5  and  C_6
REMARK    4  A    between atoms: C_8  and  C_9
REMARK                            x       y       z     vdW  Elec       q    Type
REMARK                         _______ _______ _______ _____ _____    ______ ____
ROOT
ATOM      1  C   UNL     1      -1.223  13.045  20.279  0.00  0.00    +0.000 A 
ATOM      2  N   UNL     1      -0.746  11.822  19.936  0.00  0.00    +0.000 NA
ATOM      3  C   UNL     1       0.467  11.785  19.353  0.00  0.00    +0.000 A 
ATOM      4  N   UNL     1       1.190  12.875  19.041  0.00  0.00    +0.000 NA
ATOM      5  C   UNL     1       0.706  14.081  19.369  0.00  0.00    +0.000 A 
ATOM      6  C   UNL     1      -0.535  14.210  19.968  0.00  0.00    +0.000 A 
ATOM      7  O   UNL     1      -1.099  15.402  20.332  0.00  0.00    +0.000 OA
ATOM      8  C   UNL     1      -0.456  16.557  19.798  0.00  0.00    +0.000 C 
ATOM      9  C   UNL     1       1.070  16.449  19.785  0.00  0.00    +0.000 C 
ATOM     10  C   UNL     1       1.648  17.649  19.035  0.00  0.00    +0.000 C 
ATOM     11  O   UNL     1       3.064  17.536  18.949  0.00  0.00    +0.000 OA
ATOM     12  C   UNL     1       3.472  16.411  18.166  0.00  0.00    +0.000 C 
ATOM     13  C   UNL     1       2.600  15.140  18.227  0.00  0.00    +0.000 C 
ATOM     14  N   UNL     1       1.488  15.200  19.155  0.00  0.00    +0.000 N 
ENDROOT
BRANCH   3  15
ATOM     15  C   UNL     1       1.074  10.463  19.129  0.00  0.00    +0.000 A 
ATOM     16  C   UNL     1       1.591  10.072  17.866  0.00  0.00    +0.000 A 
ATOM     17  C   UNL     1       2.138   8.808  17.652  0.00  0.00    +0.000 A 
ATOM     18  C   UNL     1       2.182   7.879  18.685  0.00  0.00    +0.000 A 
ATOM     19  F   UNL     1       2.701   6.664  18.480  0.00  0.00    +0.000 F 
ATOM     20  C   UNL     1       1.669   8.244  19.934  0.00  0.00    +0.000 A 
ATOM     21  N   UNL     1       1.589   7.503  21.092  0.00  0.00    +0.000 N 
ATOM     22  C   UNL     1       1.017   8.247  22.079  0.00  0.00    +0.000 A 
ATOM     23  C   UNL     1       0.716   9.479  21.551  0.00  0.00    +0.000 A 
ATOM     24  C   UNL     1       1.129   9.502  20.181  0.00  0.00    +0.000 A 
ATOM     25  H   UNL     1       1.923   6.551  21.187  0.00  0.00    +0.000 HD
ENDBRANCH   3  15
BRANCH   1  26
ATOM     26  C   UNL     1      -2.465  13.118  21.108  0.00  0.00    +0.000 C 
ATOM     27  C   UNL     1      -3.786  12.548  20.574  0.00  0.00    +0.000 C 
ATOM     28  C   UNL     1      -3.607  14.029  20.701  0.00  0.00    +0.000 C 
BRANCH  26  30
ATOM     29  C   UNL     1      -2.443  14.370  23.702  0.00  0.00    +0.000 C 
ATOM     30  S   UNL     1      -2.255  12.805  22.896  0.00  0.00    +0.000 S 
ATOM     31  O   UNL     1      -0.881  12.379  23.100  0.00  0.00    +0.000 OA
ATOM     32  O   UNL     1      -3.360  11.973  23.332  0.00  0.00    +0.000 OA
ENDBRANCH  26  30
ENDBRANCH   1  26
TORSDOF 3
ENDMDL
MODEL 9
REMARK VINA RESULT:      -7.3      8.022     11.781
REMARK  Name = 
REMARK  4 active torsions:
REMARK  status: ('A' for Active; 'I' for Inactive)
REMARK    1  A    between atoms: C_1  and  S_2
REMARK    2  A    between atoms: S_2  and  C_5
REMARK    3  A    between atoms: C_5  and  C_6
REMARK    4  A    between atoms: C_8  and  C_9
REMARK                            x       y       z     vdW  Elec       q    Type
REMARK                         _______ _______ _______ _____ _____    ______ ____
ROOT
ATOM      1  C   UNL     1      -2.195  14.586  23.850  0.00  0.00    +0.000 A 
ATOM      2  N   UNL     1      -1.434  13.492  23.591  0.00  0.00    +0.000 NA
ATOM      3  C   UNL     1      -1.986  12.536  22.820  0.00  0.00    +0.000 A 
ATOM      4  N   UNL     1      -3.247  12.575  22.355  0.00  0.00    +0.000 NA
ATOM      5  C   UNL     1      -3.999  13.650  22.627  0.00  0.00    +0.000 A 
ATOM      6  C   UNL     1      -3.510  14.678  23.415  0.00  0.00    +0.000 A 
ATOM      7  O   UNL     1      -4.212  15.807  23.739  0.00  0.00    +0.000 OA
ATOM      8  C   UNL     1      -5.608  15.747  23.452  0.00  0.00    +0.000 C 
ATOM      9  C   UNL     1      -5.925  15.049  22.128  0.00  0.00    +0.000 C 
ATOM     10  C   UNL     1      -7.438  14.879  22.005  0.00  0.00    +0.000 C 
ATOM     11  O   UNL     1      -7.756  14.169  20.813  0.00  0.00    +0.000 OA
ATOM     12  C   UNL     1      -7.258  12.828  20.832  0.00  0.00    +0.000 C 
ATOM     13  C   UNL     1      -5.918  12.570  21.549  0.00  0.00    +0.000 C 
ATOM     14  N   UNL     1      -5.255  13.753  22.062  0.00  0.00    +0.000 N 
ENDROOT
BRANCH   3  15
ATOM     15  C   UNL     1      -1.121  11.426  22.389  0.00  0.00    +0.000 A 
ATOM     16  C   UNL     1      -0.844  10.314  23.226  0.00  0.00    +0.000 A 
ATOM     17  C   UNL     1      -0.001   9.280  22.823  0.00  0.00    +0.000 A 
ATOM     18  C   UNL     1       0.609   9.318  21.574  0.00  0.00    +0.000 A 
ATOM     19  F   UNL     1       1.423   8.330  21.189  0.00  0.00    +0.000 F 
ATOM     20  C   UNL     1       0.354  10.411  20.740  0.00  0.00    +0.000 A 
ATOM     21  N   UNL     1       0.845  10.677  19.481  0.00  0.00    +0.000 N 
ATOM     22  C   UNL     1       0.337  11.856  19.026  0.00  0.00    +0.000 A 
ATOM     23  C   UNL     1      -0.484  12.362  20.005  0.00  0.00    +0.000 A 
ATOM     24  C   UNL     1      -0.492  11.452  21.109  0.00  0.00    +0.000 A 
ATOM     25  H   UNL     1       1.479  10.072  18.974  0.00  0.00    +0.000 HD
ENDBRANCH   3  15
BRANCH   1  26
ATOM     26  C   UNL     1      -1.554  15.756  24.525  0.00  0.00    +0.000 C 
ATOM     27  C   UNL     1      -1.134  15.664  25.998  0.00  0.00    +0.000 C 
ATOM     28  C   UNL     1      -2.297  16.520  25.603  0.00  0.00    +0.000 C 
BRANCH  26  30
ATOM     29  C   UNL     1      -1.070  16.879  21.917  0.00  0.00    +0.000 C 
ATOM     30  S   UNL     1      -0.349  16.697  23.524  0.00  0.00    +0.000 S 
ATOM     31  O   UNL     1       0.831  15.863  23.375  0.00  0.00    +0.000 OA
ATOM     32  O   UNL     1      -0.248  18.028  24.092  0.00  0.00    +0.000 OA
ENDBRANCH  26  30
ENDBRANCH   1  26
TORSDOF 3
ENDMDL
