MODEL 1
REMARK VINA RESULT:      -9.3      0.000      0.000
REMARK  Name = 
REMARK  8 active torsions:
REMARK  status: ('A' for Active; 'I' for Inactive)
REMARK    1  A    between atoms: C_1  and  C_2
REMARK    2  A    between atoms: C_4  and  C_5
REMARK    3  A    between atoms: N_7  and  S_8
REMARK    4  A    between atoms: S_8  and  N_11
REMARK    5  A    between atoms: C_15  and  C_16
REMARK    6  A    between atoms: N_18  and  C_19
REMARK    7  A    between atoms: C_19  and  C_20
REMARK    8  A    between atoms: C_20  and  C_21
REMARK                            x       y       z     vdW  Elec       q    Type
REMARK                         _______ _______ _______ _____ _____    ______ ____
ROOT
ATOM      1  N   UNL     1       2.027   3.406  18.608  0.00  0.00    +0.000 NA
ATOM      2  C   UNL     1       1.233   3.283  19.890  0.00  0.00    +0.000 C 
ATOM      3  C   UNL     1       1.637   4.331  20.946  0.00  0.00    +0.000 C 
ATOM      4  C   UNL     1       1.656   5.774  20.408  0.00  0.00    +0.000 C 
ATOM      5  C   UNL     1       2.452   5.791  19.102  0.00  0.00    +0.000 C 
ATOM      6  C   UNL     1       1.861   4.808  18.084  0.00  0.00    +0.000 C 
ENDROOT
BRANCH   5   7
ATOM      7  C   UNL     1       2.793   7.154  18.513  0.00  0.00    +0.000 C 
ATOM      8  O   UNL     1       3.688   7.352  17.708  0.00  0.00    +0.000 OA
ATOM      9  N   UNL     1       1.876   8.113  18.932  0.00  0.00    +0.000 N 
ATOM     10  H   UNL     1       1.094   7.777  19.491  0.00  0.00    +0.000 HD
BRANCH   9  11
ATOM     11  C   UNL     1       1.642   9.308  18.134  0.00  0.00    +0.000 C 
BRANCH  11  12
ATOM     12  C   UNL     1       0.994  10.450  18.936  0.00  0.00    +0.000 C 
BRANCH  12  13
ATOM     13  C   UNL     1      -0.466  10.618  18.577  0.00  0.00    +0.000 A 
ATOM     14  C   UNL     1      -1.047   9.884  17.530  0.00  0.00    +0.000 A 
ATOM     15  C   UNL     1      -2.370  10.128  17.144  0.00  0.00    +0.000 A 
ATOM     16  C   UNL     1      -3.118  11.099  17.804  0.00  0.00    +0.000 A 
ATOM     17 CL   UNL     1      -4.726  11.440  17.293  0.00  0.00    +0.000 Cl
ATOM     18  C   UNL     1      -2.566  11.810  18.867  0.00  0.00    +0.000 A 
ATOM     19  C   UNL     1      -1.247  11.566  19.253  0.00  0.00    +0.000 A 
ENDBRANCH  12  13
ENDBRANCH  11  12
ENDBRANCH   9  11
ENDBRANCH   5   7
BRANCH   1  20
ATOM     20  S   UNL     1       3.634   2.820  18.639  0.00  0.00    +0.000 S 
ATOM     21  O   UNL     1       3.686   1.609  17.836  0.00  0.00    +0.000 OA
ATOM     22  O   UNL     1       4.107   2.825  20.007  0.00  0.00    +0.000 OA
BRANCH  20  29
ATOM     23  C   UNL     1       5.451   5.728  15.245  0.00  0.00    +0.000 C 
ATOM     24  C   UNL     1       6.139   4.513  15.872  0.00  0.00    +0.000 C 
ATOM     25  C   UNL     1       7.234   4.927  16.851  0.00  0.00    +0.000 C 
ATOM     26  C   UNL     1       6.655   5.475  18.152  0.00  0.00    +0.000 C 
ATOM     27  C   UNL     1       7.809   5.806  19.109  0.00  0.00    +0.000 C 
ATOM     28  C   UNL     1       5.694   4.455  18.769  0.00  0.00    +0.000 C 
ATOM     29  N   UNL     1       4.600   3.992  17.817  0.00  0.00    +0.000 NA
ATOM     30  C   UNL     1       5.145   3.522  16.514  0.00  0.00    +0.000 C 
ENDBRANCH  20  29
ENDBRANCH   1  20
TORSDOF 6
ENDMDL
MODEL 2
REMARK VINA RESULT:      -9.1      0.591      1.042
REMARK  Name = 
REMARK  8 active torsions:
REMARK  status: ('A' for Active; 'I' for Inactive)
REMARK    1  A    between atoms: C_1  and  C_2
REMARK    2  A    between atoms: C_4  and  C_5
REMARK    3  A    between atoms: N_7  and  S_8
REMARK    4  A    between atoms: S_8  and  N_11
REMARK    5  A    between atoms: C_15  and  C_16
REMARK    6  A    between atoms: N_18  and  C_19
REMARK    7  A    between atoms: C_19  and  C_20
REMARK    8  A    between atoms: C_20  and  C_21
REMARK                            x       y       z     vdW  Elec       q    Type
REMARK                         _______ _______ _______ _____ _____    ______ ____
ROOT
ATOM      1  N   UNL     1       1.997   3.360  18.462  0.00  0.00    +0.000 NA
ATOM      2  C   UNL     1       1.109   3.048  19.646  0.00  0.00    +0.000 C 
ATOM      3  C   UNL     1       1.381   3.965  20.855  0.00  0.00    +0.000 C 
ATOM      4  C   UNL     1       1.379   5.464  20.505  0.00  0.00    +0.000 C 
ATOM      5  C   UNL     1       2.276   5.676  19.285  0.00  0.00    +0.000 C 
ATOM      6  C   UNL     1       1.812   4.811  18.105  0.00  0.00    +0.000 C 
ENDROOT
BRANCH   5   7
ATOM      7  C   UNL     1       2.603   7.113  18.901  0.00  0.00    +0.000 C 
ATOM      8  O   UNL     1       3.349   7.430  17.990  0.00  0.00    +0.000 OA
ATOM      9  N   UNL     1       1.849   8.006  19.657  0.00  0.00    +0.000 N 
ATOM     10  H   UNL     1       1.159   7.597  20.283  0.00  0.00    +0.000 HD
BRANCH   9  11
ATOM     11  C   UNL     1       1.562   9.341  19.151  0.00  0.00    +0.000 C 
BRANCH  11  12
ATOM     12  C   UNL     1       0.706   9.327  17.873  0.00  0.00    +0.000 C 
BRANCH  12  13
ATOM     13  C   UNL     1      -0.578  10.105  18.060  0.00  0.00    +0.000 A 
ATOM     14  C   UNL     1      -0.713  11.049  19.091  0.00  0.00    +0.000 A 
ATOM     15  C   UNL     1      -1.941  11.683  19.313  0.00  0.00    +0.000 A 
ATOM     16  C   UNL     1      -3.034  11.382  18.505  0.00  0.00    +0.000 A 
ATOM     17 CL   UNL     1      -4.560  12.119  18.813  0.00  0.00    +0.000 Cl
ATOM     18  C   UNL     1      -2.905  10.475  17.457  0.00  0.00    +0.000 A 
ATOM     19  C   UNL     1      -1.681   9.843  17.233  0.00  0.00    +0.000 A 
ENDBRANCH  12  13
ENDBRANCH  11  12
ENDBRANCH   9  11
ENDBRANCH   5   7
BRANCH   1  20
ATOM     20  S   UNL     1       3.620   2.829  18.556  0.00  0.00    +0.000 S 
ATOM     21  O   UNL     1       3.750   1.634  17.739  0.00  0.00    +0.000 OA
ATOM     22  O   UNL     1       4.032   2.829  19.944  0.00  0.00    +0.000 OA
BRANCH  20  29
ATOM     23  C   UNL     1       5.419   5.919  15.315  0.00  0.00    +0.000 C 
ATOM     24  C   UNL     1       6.113   4.675  15.876  0.00  0.00    +0.000 C 
ATOM     25  C   UNL     1       7.208   5.041  16.873  0.00  0.00    +0.000 C 
ATOM     26  C   UNL     1       6.631   5.517  18.202  0.00  0.00    +0.000 C 
ATOM     27  C   UNL     1       7.786   5.801  19.173  0.00  0.00    +0.000 C 
ATOM     28  C   UNL     1       5.675   4.463  18.767  0.00  0.00    +0.000 C 
ATOM     29  N   UNL     1       4.580   4.047  17.794  0.00  0.00    +0.000 NA
ATOM     30  C   UNL     1       5.123   3.648  16.468  0.00  0.00    +0.000 C 
ENDBRANCH  20  29
ENDBRANCH   1  20
TORSDOF 6
ENDMDL
MODEL 3
REMARK VINA RESULT:      -9.1      2.002      2.455
REMARK  Name = 
REMARK  8 active torsions:
REMARK  status: ('A' for Active; 'I' for Inactive)
REMARK    1  A    between atoms: C_1  and  C_2
REMARK    2  A    between atoms: C_4  and  C_5
REMARK    3  A    between atoms: N_7  and  S_8
REMARK    4  A    between atoms: S_8  and  N_11
REMARK    5  A    between atoms: C_15  and  C_16
REMARK    6  A    between atoms: N_18  and  C_19
REMARK    7  A    between atoms: C_19  and  C_20
REMARK    8  A    between atoms: C_20  and  C_21
REMARK                            x       y       z     vdW  Elec       q    Type
REMARK                         _______ _______ _______ _____ _____    ______ ____
ROOT
ATOM      1  N   UNL     1       2.102   3.008  18.380  0.00  0.00    +0.000 NA
ATOM      2  C   UNL     1       1.206   2.345  19.403  0.00  0.00    +0.000 C 
ATOM      3  C   UNL     1       1.329   2.977  20.804  0.00  0.00    +0.000 C 
ATOM      4  C   UNL     1       1.181   4.509  20.805  0.00  0.00    +0.000 C 
ATOM      5  C   UNL     1       2.098   5.084  19.724  0.00  0.00    +0.000 C 
ATOM      6  C   UNL     1       1.776   4.478  18.351  0.00  0.00    +0.000 C 
ENDROOT
BRANCH   5   7
ATOM      7  C   UNL     1       2.284   6.595  19.700  0.00  0.00    +0.000 C 
ATOM      8  O   UNL     1       2.805   7.210  18.784  0.00  0.00    +0.000 OA
ATOM      9  N   UNL     1       1.681   7.182  20.808  0.00  0.00    +0.000 N 
ATOM     10  H   UNL     1       1.157   6.559  21.420  0.00  0.00    +0.000 HD
BRANCH   9  11
ATOM     11  C   UNL     1       1.245   8.570  20.762  0.00  0.00    +0.000 C 
BRANCH  11  12
ATOM     12  C   UNL     1       1.011   9.173  22.158  0.00  0.00    +0.000 C 
BRANCH  12  13
ATOM     13  C   UNL     1       0.009  10.306  22.109  0.00  0.00    +0.000 A 
ATOM     14  C   UNL     1      -0.875  10.541  23.174  0.00  0.00    +0.000 A 
ATOM     15  C   UNL     1      -1.863  11.527  23.068  0.00  0.00    +0.000 A 
ATOM     16  C   UNL     1      -1.968  12.283  21.904  0.00  0.00    +0.000 A 
ATOM     17 CL   UNL     1      -3.218  13.457  21.750  0.00  0.00    +0.000 Cl
ATOM     18  C   UNL     1      -1.075  12.085  20.854  0.00  0.00    +0.000 A 
ATOM     19  C   UNL     1      -0.088  11.103  20.959  0.00  0.00    +0.000 A 
ENDBRANCH  12  13
ENDBRANCH  11  12
ENDBRANCH   9  11
ENDBRANCH   5   7
BRANCH   1  20
ATOM     20  S   UNL     1       3.767   2.626  18.453  0.00  0.00    +0.000 S 
ATOM     21  O   UNL     1       4.020   1.538  17.523  0.00  0.00    +0.000 OA
ATOM     22  O   UNL     1       4.162   2.524  19.842  0.00  0.00    +0.000 OA
BRANCH  20  29
ATOM     23  C   UNL     1       5.212   6.258  15.623  0.00  0.00    +0.000 C 
ATOM     24  C   UNL     1       6.006   4.994  15.967  0.00  0.00    +0.000 C 
ATOM     25  C   UNL     1       7.128   5.285  16.958  0.00  0.00    +0.000 C 
ATOM     26  C   UNL     1       6.593   5.528  18.366  0.00  0.00    +0.000 C 
ATOM     27  C   UNL     1       7.778   5.746  19.318  0.00  0.00    +0.000 C 
ATOM     28  C   UNL     1       5.731   4.344  18.812  0.00  0.00    +0.000 C 
ATOM     29  N   UNL     1       4.613   4.000  17.836  0.00  0.00    +0.000 NA
ATOM     30  C   UNL     1       5.110   3.831  16.444  0.00  0.00    +0.000 C 
ENDBRANCH  20  29
ENDBRANCH   1  20
TORSDOF 6
ENDMDL
MODEL 4
REMARK VINA RESULT:      -8.8      1.562      1.953
REMARK  Name = 
REMARK  8 active torsions:
REMARK  status: ('A' for Active; 'I' for Inactive)
REMARK    1  A    between atoms: C_1  and  C_2
REMARK    2  A    between atoms: C_4  and  C_5
REMARK    3  A    between atoms: N_7  and  S_8
REMARK    4  A    between atoms: S_8  and  N_11
REMARK    5  A    between atoms: C_15  and  C_16
REMARK    6  A    between atoms: N_18  and  C_19
REMARK    7  A    between atoms: C_19  and  C_20
REMARK    8  A    between atoms: C_20  and  C_21
REMARK                            x       y       z     vdW  Elec       q    Type
REMARK                         _______ _______ _______ _____ _____    ______ ____
ROOT
ATOM      1  N   UNL     1       2.027   3.393  18.614  0.00  0.00    +0.000 NA
ATOM      2  C   UNL     1       1.234   3.295  19.897  0.00  0.00    +0.000 C 
ATOM      3  C   UNL     1       1.652   4.350  20.941  0.00  0.00    +0.000 C 
ATOM      4  C   UNL     1       1.687   5.786  20.386  0.00  0.00    +0.000 C 
ATOM      5  C   UNL     1       2.482   5.779  19.079  0.00  0.00    +0.000 C 
ATOM      6  C   UNL     1       1.877   4.791  18.073  0.00  0.00    +0.000 C 
ENDROOT
BRANCH   5   7
ATOM      7  C   UNL     1       2.839   7.130  18.474  0.00  0.00    +0.000 C 
ATOM      8  O   UNL     1       3.677   7.295  17.603  0.00  0.00    +0.000 OA
ATOM      9  N   UNL     1       2.003   8.127  18.969  0.00  0.00    +0.000 N 
ATOM     10  H   UNL     1       1.252   7.821  19.585  0.00  0.00    +0.000 HD
BRANCH   9  11
ATOM     11  C   UNL     1       1.763   9.338  18.199  0.00  0.00    +0.000 C 
BRANCH  11  12
ATOM     12  C   UNL     1       0.280   9.748  18.170  0.00  0.00    +0.000 C 
BRANCH  12  13
ATOM     13  C   UNL     1      -0.128  10.434  19.455  0.00  0.00    +0.000 A 
ATOM     14  C   UNL     1       0.013   9.794  20.698  0.00  0.00    +0.000 A 
ATOM     15  C   UNL     1      -0.465  10.402  21.864  0.00  0.00    +0.000 A 
ATOM     16  C   UNL     1      -1.080  11.649  21.796  0.00  0.00    +0.000 A 
ATOM     17 CL   UNL     1      -1.719  12.372  23.222  0.00  0.00    +0.000 Cl
ATOM     18  C   UNL     1      -1.195  12.310  20.576  0.00  0.00    +0.000 A 
ATOM     19  C   UNL     1      -0.717  11.706  19.412  0.00  0.00    +0.000 A 
ENDBRANCH  12  13
ENDBRANCH  11  12
ENDBRANCH   9  11
ENDBRANCH   5   7
BRANCH   1  20
ATOM     20  S   UNL     1       3.626   2.788  18.649  0.00  0.00    +0.000 S 
ATOM     21  O   UNL     1       3.662   1.567  17.861  0.00  0.00    +0.000 OA
ATOM     22  O   UNL     1       4.102   2.804  20.016  0.00  0.00    +0.000 OA
BRANCH  20  29
ATOM     23  C   UNL     1       5.489   5.615  15.210  0.00  0.00    +0.000 C 
ATOM     24  C   UNL     1       6.166   4.410  15.870  0.00  0.00    +0.000 C 
ATOM     25  C   UNL     1       7.253   4.840  16.851  0.00  0.00    +0.000 C 
ATOM     26  C   UNL     1       6.665   5.418  18.133  0.00  0.00    +0.000 C 
ATOM     27  C   UNL     1       7.811   5.764  19.094  0.00  0.00    +0.000 C 
ATOM     28  C   UNL     1       5.693   4.416  18.763  0.00  0.00    +0.000 C 
ATOM     29  N   UNL     1       4.606   3.938  17.811  0.00  0.00    +0.000 NA
ATOM     30  C   UNL     1       5.160   3.438  16.524  0.00  0.00    +0.000 C 
ENDBRANCH  20  29
ENDBRANCH   1  20
TORSDOF 6
ENDMDL
MODEL 5
REMARK VINA RESULT:      -8.7      2.034      2.418
REMARK  Name = 
REMARK  8 active torsions:
REMARK  status: ('A' for Active; 'I' for Inactive)
REMARK    1  A    between atoms: C_1  and  C_2
REMARK    2  A    between atoms: C_4  and  C_5
REMARK    3  A    between atoms: N_7  and  S_8
REMARK    4  A    between atoms: S_8  and  N_11
REMARK    5  A    between atoms: C_15  and  C_16
REMARK    6  A    between atoms: N_18  and  C_19
REMARK    7  A    between atoms: C_19  and  C_20
REMARK    8  A    between atoms: C_20  and  C_21
REMARK                            x       y       z     vdW  Elec       q    Type
REMARK                         _______ _______ _______ _____ _____    ______ ____
ROOT
ATOM      1  N   UNL     1       2.073   3.268  18.274  0.00  0.00    +0.000 NA
ATOM      2  C   UNL     1       1.134   2.547  19.215  0.00  0.00    +0.000 C 
ATOM      3  C   UNL     1       1.207   3.081  20.659  0.00  0.00    +0.000 C 
ATOM      4  C   UNL     1       1.072   4.611  20.760  0.00  0.00    +0.000 C 
ATOM      5  C   UNL     1       2.034   5.248  19.756  0.00  0.00    +0.000 C 
ATOM      6  C   UNL     1       1.761   4.740  18.334  0.00  0.00    +0.000 C 
ENDROOT
BRANCH   5   7
ATOM      7  C   UNL     1       2.233   6.755  19.842  0.00  0.00    +0.000 C 
ATOM      8  O   UNL     1       2.624   7.452  18.920  0.00  0.00    +0.000 OA
ATOM      9  N   UNL     1       1.802   7.238  21.074  0.00  0.00    +0.000 N 
ATOM     10  H   UNL     1       1.363   6.561  21.696  0.00  0.00    +0.000 HD
BRANCH   9  11
ATOM     11  C   UNL     1       1.380   8.624  21.217  0.00  0.00    +0.000 C 
BRANCH  11  12
ATOM     12  C   UNL     1      -0.036   8.880  20.674  0.00  0.00    +0.000 C 
BRANCH  12  13
ATOM     13  C   UNL     1      -0.573  10.215  21.140  0.00  0.00    +0.000 A 
ATOM     14  C   UNL     1      -0.894  11.231  20.225  0.00  0.00    +0.000 A 
ATOM     15  C   UNL     1      -1.291  12.493  20.679  0.00  0.00    +0.000 A 
ATOM     16  C   UNL     1      -1.373  12.745  22.046  0.00  0.00    +0.000 A 
ATOM     17 CL   UNL     1      -1.806  14.315  22.607  0.00  0.00    +0.000 Cl
ATOM     18  C   UNL     1      -1.092  11.738  22.965  0.00  0.00    +0.000 A 
ATOM     19  C   UNL     1      -0.698  10.477  22.512  0.00  0.00    +0.000 A 
ENDBRANCH  12  13
ENDBRANCH  11  12
ENDBRANCH   9  11
ENDBRANCH   5   7
BRANCH   1  20
ATOM     20  S   UNL     1       3.731   2.865  18.385  0.00  0.00    +0.000 S 
ATOM     21  O   UNL     1       3.982   1.746  17.491  0.00  0.00    +0.000 OA
ATOM     22  O   UNL     1       4.104   2.797  19.782  0.00  0.00    +0.000 OA
BRANCH  20  29
ATOM     23  C   UNL     1       5.232   6.432  15.502  0.00  0.00    +0.000 C 
ATOM     24  C   UNL     1       5.992   5.147  15.839  0.00  0.00    +0.000 C 
ATOM     25  C   UNL     1       7.143   5.409  16.807  0.00  0.00    +0.000 C 
ATOM     26  C   UNL     1       6.643   5.678  18.223  0.00  0.00    +0.000 C 
ATOM     27  C   UNL     1       7.853   5.865  19.150  0.00  0.00    +0.000 C 
ATOM     28  C   UNL     1       5.754   4.523  18.693  0.00  0.00    +0.000 C 
ATOM     29  N   UNL     1       4.607   4.208  17.742  0.00  0.00    +0.000 NA
ATOM     30  C   UNL     1       5.071   4.015  16.342  0.00  0.00    +0.000 C 
ENDBRANCH  20  29
ENDBRANCH   1  20
TORSDOF 6
ENDMDL
MODEL 6
REMARK VINA RESULT:      -8.6      2.276      2.878
REMARK  Name = 
REMARK  8 active torsions:
REMARK  status: ('A' for Active; 'I' for Inactive)
REMARK    1  A    between atoms: C_1  and  C_2
REMARK    2  A    between atoms: C_4  and  C_5
REMARK    3  A    between atoms: N_7  and  S_8
REMARK    4  A    between atoms: S_8  and  N_11
REMARK    5  A    between atoms: C_15  and  C_16
REMARK    6  A    between atoms: N_18  and  C_19
REMARK    7  A    between atoms: C_19  and  C_20
REMARK    8  A    between atoms: C_20  and  C_21
REMARK                            x       y       z     vdW  Elec       q    Type
REMARK                         _______ _______ _______ _____ _____    ______ ____
ROOT
ATOM      1  N   UNL     1       2.037   3.440  18.669  0.00  0.00    +0.000 NA
ATOM      2  C   UNL     1       1.276   3.387  19.975  0.00  0.00    +0.000 C 
ATOM      3  C   UNL     1       1.733   4.465  20.978  0.00  0.00    +0.000 C 
ATOM      4  C   UNL     1       1.772   5.884  20.384  0.00  0.00    +0.000 C 
ATOM      5  C   UNL     1       2.533   5.832  19.058  0.00  0.00    +0.000 C 
ATOM      6  C   UNL     1       1.890   4.825  18.095  0.00  0.00    +0.000 C 
ENDROOT
BRANCH   5   7
ATOM      7  C   UNL     1       2.890   7.161  18.407  0.00  0.00    +0.000 C 
ATOM      8  O   UNL     1       3.761   7.303  17.564  0.00  0.00    +0.000 OA
ATOM      9  N   UNL     1       2.016   8.162  18.821  0.00  0.00    +0.000 N 
ATOM     10  H   UNL     1       1.245   7.869  19.418  0.00  0.00    +0.000 HD
BRANCH   9  11
ATOM     11  C   UNL     1       1.787   9.333  17.987  0.00  0.00    +0.000 C 
BRANCH  11  12
ATOM     12  C   UNL     1       0.786  10.324  18.606  0.00  0.00    +0.000 C 
BRANCH  12  13
ATOM     13  C   UNL     1       1.455  11.634  18.962  0.00  0.00    +0.000 A 
ATOM     14  C   UNL     1       2.321  12.276  18.062  0.00  0.00    +0.000 A 
ATOM     15  C   UNL     1       3.011  13.431  18.447  0.00  0.00    +0.000 A 
ATOM     16  C   UNL     1       2.836  13.951  19.727  0.00  0.00    +0.000 A 
ATOM     17 CL   UNL     1       3.727  15.339  20.221  0.00  0.00    +0.000 Cl
ATOM     18  C   UNL     1       1.954  13.345  20.617  0.00  0.00    +0.000 A 
ATOM     19  C   UNL     1       1.263  12.193  20.234  0.00  0.00    +0.000 A 
ENDBRANCH  12  13
ENDBRANCH  11  12
ENDBRANCH   9  11
ENDBRANCH   5   7
BRANCH   1  20
ATOM     20  S   UNL     1       3.629   2.816  18.680  0.00  0.00    +0.000 S 
ATOM     21  O   UNL     1       3.638   1.594  17.892  0.00  0.00    +0.000 OA
ATOM     22  O   UNL     1       4.126   2.826  20.040  0.00  0.00    +0.000 OA
BRANCH  20  29
ATOM     23  C   UNL     1       5.502   5.585  15.201  0.00  0.00    +0.000 C 
ATOM     24  C   UNL     1       6.178   4.396  15.886  0.00  0.00    +0.000 C 
ATOM     25  C   UNL     1       7.259   4.847  16.865  0.00  0.00    +0.000 C 
ATOM     26  C   UNL     1       6.661   5.447  18.133  0.00  0.00    +0.000 C 
ATOM     27  C   UNL     1       7.801   5.814  19.094  0.00  0.00    +0.000 C 
ATOM     28  C   UNL     1       5.689   4.453  18.776  0.00  0.00    +0.000 C 
ATOM     29  N   UNL     1       4.609   3.953  17.827  0.00  0.00    +0.000 NA
ATOM     30  C   UNL     1       5.173   3.432  16.552  0.00  0.00    +0.000 C 
ENDBRANCH  20  29
ENDBRANCH   1  20
TORSDOF 6
ENDMDL
MODEL 7
REMARK VINA RESULT:      -8.6      1.839      2.306
REMARK  Name = 
REMARK  8 active torsions:
REMARK  status: ('A' for Active; 'I' for Inactive)
REMARK    1  A    between atoms: C_1  and  C_2
REMARK    2  A    between atoms: C_4  and  C_5
REMARK    3  A    between atoms: N_7  and  S_8
REMARK    4  A    between atoms: S_8  and  N_11
REMARK    5  A    between atoms: C_15  and  C_16
REMARK    6  A    between atoms: N_18  and  C_19
REMARK    7  A    between atoms: C_19  and  C_20
REMARK    8  A    between atoms: C_20  and  C_21
REMARK                            x       y       z     vdW  Elec       q    Type
REMARK                         _______ _______ _______ _____ _____    ______ ____
ROOT
ATOM      1  N   UNL     1       2.066   3.327  18.665  0.00  0.00    +0.000 NA
ATOM      2  C   UNL     1       1.304   3.187  19.964  0.00  0.00    +0.000 C 
ATOM      3  C   UNL     1       1.710   4.243  21.011  0.00  0.00    +0.000 C 
ATOM      4  C   UNL     1       1.686   5.686  20.474  0.00  0.00    +0.000 C 
ATOM      5  C   UNL     1       2.453   5.720  19.151  0.00  0.00    +0.000 C 
ATOM      6  C   UNL     1       1.859   4.725  18.145  0.00  0.00    +0.000 C 
ENDROOT
BRANCH   5   7
ATOM      7  C   UNL     1       2.752   7.090  18.556  0.00  0.00    +0.000 C 
ATOM      8  O   UNL     1       3.574   7.294  17.677  0.00  0.00    +0.000 OA
ATOM      9  N   UNL     1       1.885   8.049  19.070  0.00  0.00    +0.000 N 
ATOM     10  H   UNL     1       1.153   7.709  19.690  0.00  0.00    +0.000 HD
BRANCH   9  11
ATOM     11  C   UNL     1       1.591   9.258  18.314  0.00  0.00    +0.000 C 
BRANCH  11  12
ATOM     12  C   UNL     1       0.436  10.078  18.916  0.00  0.00    +0.000 C 
BRANCH  12  13
ATOM     13  C   UNL     1       0.684  11.564  18.780  0.00  0.00    +0.000 A 
ATOM     14  C   UNL     1       1.979  12.098  18.882  0.00  0.00    +0.000 A 
ATOM     15  C   UNL     1       2.176  13.483  18.857  0.00  0.00    +0.000 A 
ATOM     16  C   UNL     1       1.085  14.338  18.726  0.00  0.00    +0.000 A 
ATOM     17 CL   UNL     1       1.321  16.043  18.753  0.00  0.00    +0.000 Cl
ATOM     18  C   UNL     1      -0.200  13.821  18.589  0.00  0.00    +0.000 A 
ATOM     19  C   UNL     1      -0.398  12.440  18.612  0.00  0.00    +0.000 A 
ENDBRANCH  12  13
ENDBRANCH  11  12
ENDBRANCH   9  11
ENDBRANCH   5   7
BRANCH   1  20
ATOM     20  S   UNL     1       3.684   2.774  18.659  0.00  0.00    +0.000 S 
ATOM     21  O   UNL     1       3.744   1.566  17.853  0.00  0.00    +0.000 OA
ATOM     22  O   UNL     1       4.187   2.787  20.016  0.00  0.00    +0.000 OA
BRANCH  20  29
ATOM     23  C   UNL     1       5.373   5.717  15.228  0.00  0.00    +0.000 C 
ATOM     24  C   UNL     1       6.101   4.520  15.846  0.00  0.00    +0.000 C 
ATOM     25  C   UNL     1       7.202   4.962  16.805  0.00  0.00    +0.000 C 
ATOM     26  C   UNL     1       6.633   5.499  18.114  0.00  0.00    +0.000 C 
ATOM     27  C   UNL     1       7.795   5.860  19.051  0.00  0.00    +0.000 C 
ATOM     28  C   UNL     1       5.707   4.458  18.750  0.00  0.00    +0.000 C 
ATOM     29  N   UNL     1       4.608   3.967  17.818  0.00  0.00    +0.000 NA
ATOM     30  C   UNL     1       5.141   3.507  16.507  0.00  0.00    +0.000 C 
ENDBRANCH  20  29
ENDBRANCH   1  20
TORSDOF 6
ENDMDL
MODEL 8
REMARK VINA RESULT:      -8.4      2.084      2.331
REMARK  Name = 
REMARK  8 active torsions:
REMARK  status: ('A' for Active; 'I' for Inactive)
REMARK    1  A    between atoms: C_1  and  C_2
REMARK    2  A    between atoms: C_4  and  C_5
REMARK    3  A    between atoms: N_7  and  S_8
REMARK    4  A    between atoms: S_8  and  N_11
REMARK    5  A    between atoms: C_15  and  C_16
REMARK    6  A    between atoms: N_18  and  C_19
REMARK    7  A    between atoms: C_19  and  C_20
REMARK    8  A    between atoms: C_20  and  C_21
REMARK                            x       y       z     vdW  Elec       q    Type
REMARK                         _______ _______ _______ _____ _____    ______ ____
ROOT
ATOM      1  N   UNL     1       2.151   2.986  18.118  0.00  0.00    +0.000 NA
ATOM      2  C   UNL     1       1.248   2.222  19.061  0.00  0.00    +0.000 C 
ATOM      3  C   UNL     1       1.257   2.795  20.492  0.00  0.00    +0.000 C 
ATOM      4  C   UNL     1       1.010   4.314  20.550  0.00  0.00    +0.000 C 
ATOM      5  C   UNL     1       1.943   4.994  19.547  0.00  0.00    +0.000 C 
ATOM      6  C   UNL     1       1.733   4.433  18.134  0.00  0.00    +0.000 C 
ENDROOT
BRANCH   5   7
ATOM      7  C   UNL     1       2.032   6.513  19.597  0.00  0.00    +0.000 C 
ATOM      8  O   UNL     1       2.152   7.162  20.622  0.00  0.00    +0.000 OA
ATOM      9  N   UNL     1       2.070   7.045  18.311  0.00  0.00    +0.000 N 
ATOM     10  H   UNL     1       2.106   6.375  17.546  0.00  0.00    +0.000 HD
BRANCH   9  11
ATOM     11  C   UNL     1       2.678   8.346  18.069  0.00  0.00    +0.000 C 
BRANCH  11  12
ATOM     12  C   UNL     1       1.660   9.413  17.630  0.00  0.00    +0.000 C 
BRANCH  12  13
ATOM     13  C   UNL     1       1.292  10.329  18.776  0.00  0.00    +0.000 A 
ATOM     14  C   UNL     1       0.394   9.919  19.775  0.00  0.00    +0.000 A 
ATOM     15  C   UNL     1      -0.015  10.815  20.770  0.00  0.00    +0.000 A 
ATOM     16  C   UNL     1       0.474  12.118  20.774  0.00  0.00    +0.000 A 
ATOM     17 CL   UNL     1      -0.071  13.238  21.963  0.00  0.00    +0.000 Cl
ATOM     18  C   UNL     1       1.392  12.528  19.810  0.00  0.00    +0.000 A 
ATOM     19  C   UNL     1       1.802  11.635  18.819  0.00  0.00    +0.000 A 
ENDBRANCH  12  13
ENDBRANCH  11  12
ENDBRANCH   9  11
ENDBRANCH   5   7
BRANCH   1  20
ATOM     20  S   UNL     1       3.831   2.706  18.266  0.00  0.00    +0.000 S 
ATOM     21  O   UNL     1       4.196   1.651  17.335  0.00  0.00    +0.000 OA
ATOM     22  O   UNL     1       4.166   2.604  19.671  0.00  0.00    +0.000 OA
BRANCH  20  29
ATOM     23  C   UNL     1       5.064   6.563  15.641  0.00  0.00    +0.000 C 
ATOM     24  C   UNL     1       5.898   5.297  15.855  0.00  0.00    +0.000 C 
ATOM     25  C   UNL     1       7.062   5.542  16.811  0.00  0.00    +0.000 C 
ATOM     26  C   UNL     1       6.591   5.672  18.256  0.00  0.00    +0.000 C 
ATOM     27  C   UNL     1       7.817   5.849  19.164  0.00  0.00    +0.000 C 
ATOM     28  C   UNL     1       5.776   4.439  18.655  0.00  0.00    +0.000 C 
ATOM     29  N   UNL     1       4.619   4.140  17.711  0.00  0.00    +0.000 NA
ATOM     30  C   UNL     1       5.050   4.082  16.288  0.00  0.00    +0.000 C 
ENDBRANCH  20  29
ENDBRANCH   1  20
TORSDOF 6
ENDMDL
MODEL 9
REMARK VINA RESULT:      -8.3      1.741      2.066
REMARK  Name = 
REMARK  8 active torsions:
REMARK  status: ('A' for Active; 'I' for Inactive)
REMARK    1  A    between atoms: C_1  and  C_2
REMARK    2  A    between atoms: C_4  and  C_5
REMARK    3  A    between atoms: N_7  and  S_8
REMARK    4  A    between atoms: S_8  and  N_11
REMARK    5  A    between atoms: C_15  and  C_16
REMARK    6  A    between atoms: N_18  and  C_19
REMARK    7  A    between atoms: C_19  and  C_20
REMARK    8  A    between atoms: C_20  and  C_21
REMARK                            x       y       z     vdW  Elec       q    Type
REMARK                         _______ _______ _______ _____ _____    ______ ____
ROOT
ATOM      1  N   UNL     1       2.049   3.215  18.220  0.00  0.00    +0.000 NA
ATOM      2  C   UNL     1       1.038   2.603  19.164  0.00  0.00    +0.000 C 
ATOM      3  C   UNL     1       1.111   3.196  20.585  0.00  0.00    +0.000 C 
ATOM      4  C   UNL     1       1.077   4.736  20.613  0.00  0.00    +0.000 C 
ATOM      5  C   UNL     1       2.107   5.259  19.611  0.00  0.00    +0.000 C 
ATOM      6  C   UNL     1       1.837   4.706  18.205  0.00  0.00    +0.000 C 
ENDROOT
BRANCH   5   7
ATOM      7  C   UNL     1       2.406   6.752  19.635  0.00  0.00    +0.000 C 
ATOM      8  O   UNL     1       2.996   7.351  18.751  0.00  0.00    +0.000 OA
ATOM      9  N   UNL     1       1.818   7.353  20.745  0.00  0.00    +0.000 N 
ATOM     10  H   UNL     1       1.232   6.754  21.324  0.00  0.00    +0.000 HD
BRANCH   9  11
ATOM     11  C   UNL     1       1.488   8.770  20.728  0.00  0.00    +0.000 C 
BRANCH  11  12
ATOM     12  C   UNL     1       0.740   9.198  19.453  0.00  0.00    +0.000 C 
BRANCH  12  13
ATOM     13  C   UNL     1       0.523  10.695  19.416  0.00  0.00    +0.000 A 
ATOM     14  C   UNL     1      -0.600  11.283  20.020  0.00  0.00    +0.000 A 
ATOM     15  C   UNL     1      -0.838  12.655  19.887  0.00  0.00    +0.000 A 
ATOM     16  C   UNL     1       0.045  13.445  19.156  0.00  0.00    +0.000 A 
ATOM     17 CL   UNL     1      -0.276  15.124  18.944  0.00  0.00    +0.000 Cl
ATOM     18  C   UNL     1       1.182  12.883  18.581  0.00  0.00    +0.000 A 
ATOM     19  C   UNL     1       1.421  11.514  18.715  0.00  0.00    +0.000 A 
ENDBRANCH  12  13
ENDBRANCH  11  12
ENDBRANCH   9  11
ENDBRANCH   5   7
BRANCH   1  20
ATOM     20  S   UNL     1       3.673   2.707  18.396  0.00  0.00    +0.000 S 
ATOM     21  O   UNL     1       3.853   1.498  17.610  0.00  0.00    +0.000 OA
ATOM     22  O   UNL     1       4.022   2.738  19.801  0.00  0.00    +0.000 OA
BRANCH  20  29
ATOM     23  C   UNL     1       5.606   5.728  15.169  0.00  0.00    +0.000 C 
ATOM     24  C   UNL     1       6.292   4.524  15.820  0.00  0.00    +0.000 C 
ATOM     25  C   UNL     1       7.309   4.954  16.872  0.00  0.00    +0.000 C 
ATOM     26  C   UNL     1       6.633   5.461  18.142  0.00  0.00    +0.000 C 
ATOM     27  C   UNL     1       7.713   5.811  19.175  0.00  0.00    +0.000 C 
ATOM     28  C   UNL     1       5.668   4.402  18.681  0.00  0.00    +0.000 C 
ATOM     29  N   UNL     1       4.651   3.922  17.655  0.00  0.00    +0.000 NA
ATOM     30  C   UNL     1       5.291   3.491  16.383  0.00  0.00    +0.000 C 
ENDBRANCH  20  29
ENDBRANCH   1  20
TORSDOF 6
ENDMDL
