MODEL 1
REMARK VINA RESULT:      -7.8      0.000      0.000
REMARK  Name = 
REMARK  1 active torsions:
REMARK  status: ('A' for Active; 'I' for Inactive)
REMARK    1  A    between atoms: C_2  and  C_3
REMARK                            x       y       z     vdW  Elec       q    Type
REMARK                         _______ _______ _______ _____ _____    ______ ____
ROOT
ATOM      1  O   UNL     1       4.856   4.117  15.739  0.00  0.00    +0.000 OA
ATOM      2  C   UNL     1       4.684   4.423  16.924  0.00  0.00    +0.000 C 
ATOM      3  N   UNL     1       3.606   3.931  17.643  0.00  0.00    +0.000 N 
ATOM      4  C   UNL     1       2.660   3.015  17.049  0.00  0.00    +0.000 C 
ATOM      5  C   UNL     1       2.209   2.141  18.213  0.00  0.00    +0.000 C 
ATOM      6  C   UNL     1       2.462   2.967  19.485  0.00  0.00    +0.000 C 
ATOM      7  C   UNL     1       1.217   3.298  20.301  0.00  0.00    +0.000 C 
ATOM      8  C   UNL     1       1.668   3.225  21.751  0.00  0.00    +0.000 C 
ATOM      9  O   UNL     1       3.059   2.894  21.753  0.00  0.00    +0.000 OA
ATOM     10  C   UNL     1       3.340   2.251  20.504  0.00  0.00    +0.000 C 
ATOM     11  C   UNL     1       3.189   4.226  19.007  0.00  0.00    +0.000 C 
ENDROOT
BRANCH   2  12
ATOM     12  C   UNL     1       5.732   5.253  17.587  0.00  0.00    +0.000 A 
ATOM     13  C   UNL     1       6.547   4.778  18.620  0.00  0.00    +0.000 A 
ATOM     14  C   UNL     1       7.625   5.521  19.113  0.00  0.00    +0.000 A 
ATOM     15  C   UNL     1       7.773   6.814  18.613  0.00  0.00    +0.000 A 
ATOM     16  N   UNL     1       8.686   7.799  18.900  0.00  0.00    +0.000 N 
ATOM     17  N   UNL     1       8.474   8.950  18.239  0.00  0.00    +0.000 NA
ATOM     18  C   UNL     1       7.401   8.682  17.487  0.00  0.00    +0.000 A 
ATOM     19  C   UNL     1       6.927   7.362  17.659  0.00  0.00    +0.000 A 
ATOM     20  C   UNL     1       5.893   6.574  17.123  0.00  0.00    +0.000 A 
ATOM     21  H   UNL     1       9.461   7.752  19.548  0.00  0.00    +0.000 HD
ENDBRANCH   2  12
TORSDOF 1
ENDMDL
MODEL 2
REMARK VINA RESULT:      -7.4      4.069      5.169
REMARK  Name = 
REMARK  1 active torsions:
REMARK  status: ('A' for Active; 'I' for Inactive)
REMARK    1  A    between atoms: C_2  and  C_3
REMARK                            x       y       z     vdW  Elec       q    Type
REMARK                         _______ _______ _______ _____ _____    ______ ____
ROOT
ATOM      1  O   UNL     1       4.643   7.359  17.362  0.00  0.00    +0.000 OA
ATOM      2  C   UNL     1       3.570   6.909  17.778  0.00  0.00    +0.000 C 
ATOM      3  N   UNL     1       3.313   5.546  17.775  0.00  0.00    +0.000 N 
ATOM      4  C   UNL     1       4.300   4.596  17.319  0.00  0.00    +0.000 C 
ATOM      5  C   UNL     1       4.040   3.356  18.165  0.00  0.00    +0.000 C 
ATOM      6  C   UNL     1       2.577   3.457  18.625  0.00  0.00    +0.000 C 
ATOM      7  C   UNL     1       1.666   2.334  18.143  0.00  0.00    +0.000 C 
ATOM      8  C   UNL     1       0.716   2.074  19.301  0.00  0.00    +0.000 C 
ATOM      9  O   UNL     1       1.053   2.989  20.346  0.00  0.00    +0.000 OA
ATOM     10  C   UNL     1       2.415   3.382  20.138  0.00  0.00    +0.000 C 
ATOM     11  C   UNL     1       2.100   4.830  18.147  0.00  0.00    +0.000 C 
ENDROOT
BRANCH   2  12
ATOM     12  C   UNL     1       2.601   7.869  18.384  0.00  0.00    +0.000 A 
ATOM     13  C   UNL     1       2.023   8.926  17.673  0.00  0.00    +0.000 A 
ATOM     14  C   UNL     1       1.000   9.711  18.216  0.00  0.00    +0.000 A 
ATOM     15  C   UNL     1       0.670   9.471  19.550  0.00  0.00    +0.000 A 
ATOM     16  N   UNL     1      -0.245  10.070  20.380  0.00  0.00    +0.000 N 
ATOM     17  N   UNL     1      -0.240   9.591  21.635  0.00  0.00    +0.000 NA
ATOM     18  C   UNL     1       0.696   8.637  21.598  0.00  0.00    +0.000 A 
ATOM     19  C   UNL     1       1.288   8.499  20.323  0.00  0.00    +0.000 A 
ATOM     20  C   UNL     1       2.263   7.672  19.737  0.00  0.00    +0.000 A 
ATOM     21  H   UNL     1      -0.885  10.821  20.153  0.00  0.00    +0.000 HD
ENDBRANCH   2  12
TORSDOF 1
ENDMDL
MODEL 3
REMARK VINA RESULT:      -7.2      4.348      5.186
REMARK  Name = 
REMARK  1 active torsions:
REMARK  status: ('A' for Active; 'I' for Inactive)
REMARK    1  A    between atoms: C_2  and  C_3
REMARK                            x       y       z     vdW  Elec       q    Type
REMARK                         _______ _______ _______ _____ _____    ______ ____
ROOT
ATOM      1  O   UNL     1       4.288   7.720  17.331  0.00  0.00    +0.000 OA
ATOM      2  C   UNL     1       3.350   7.088  17.827  0.00  0.00    +0.000 C 
ATOM      3  N   UNL     1       3.276   5.708  17.718  0.00  0.00    +0.000 N 
ATOM      4  C   UNL     1       4.309   4.950  17.051  0.00  0.00    +0.000 C 
ATOM      5  C   UNL     1       4.330   3.619  17.794  0.00  0.00    +0.000 C 
ATOM      6  C   UNL     1       2.942   3.471  18.438  0.00  0.00    +0.000 C 
ATOM      7  C   UNL     1       2.130   2.273  17.960  0.00  0.00    +0.000 C 
ATOM      8  C   UNL     1       1.387   1.785  19.193  0.00  0.00    +0.000 C 
ATOM      9  O   UNL     1       1.739   2.649  20.276  0.00  0.00    +0.000 OA
ATOM     10  C   UNL     1       2.997   3.249  19.944  0.00  0.00    +0.000 C 
ATOM     11  C   UNL     1       2.229   4.797  18.162  0.00  0.00    +0.000 C 
ENDROOT
BRANCH   2  12
ATOM     12  C   UNL     1       2.354   7.846  18.641  0.00  0.00    +0.000 A 
ATOM     13  C   UNL     1       2.099   7.574  19.989  0.00  0.00    +0.000 A 
ATOM     14  C   UNL     1       1.281   8.400  20.769  0.00  0.00    +0.000 A 
ATOM     15  C   UNL     1       0.629   9.439  20.105  0.00  0.00    +0.000 A 
ATOM     16  N   UNL     1      -0.249  10.393  20.555  0.00  0.00    +0.000 N 
ATOM     17  N   UNL     1      -0.712  11.208  19.592  0.00  0.00    +0.000 NA
ATOM     18  C   UNL     1      -0.088  10.773  18.492  0.00  0.00    +0.000 A 
ATOM     19  C   UNL     1       0.776   9.685  18.747  0.00  0.00    +0.000 A 
ATOM     20  C   UNL     1       1.659   8.888  17.996  0.00  0.00    +0.000 A 
ATOM     21  H   UNL     1      -0.585  10.526  21.501  0.00  0.00    +0.000 HD
ENDBRANCH   2  12
TORSDOF 1
ENDMDL
MODEL 4
REMARK VINA RESULT:      -7.2      0.995      1.054
REMARK  Name = 
REMARK  1 active torsions:
REMARK  status: ('A' for Active; 'I' for Inactive)
REMARK    1  A    between atoms: C_2  and  C_3
REMARK                            x       y       z     vdW  Elec       q    Type
REMARK                         _______ _______ _______ _____ _____    ______ ____
ROOT
ATOM      1  O   UNL     1       6.153   4.076  15.766  0.00  0.00    +0.000 OA
ATOM      2  C   UNL     1       5.661   4.631  16.755  0.00  0.00    +0.000 C 
ATOM      3  N   UNL     1       4.392   4.302  17.206  0.00  0.00    +0.000 N 
ATOM      4  C   UNL     1       3.608   3.274  16.562  0.00  0.00    +0.000 C 
ATOM      5  C   UNL     1       2.784   2.673  17.693  0.00  0.00    +0.000 C 
ATOM      6  C   UNL     1       2.703   3.756  18.781  0.00  0.00    +0.000 C 
ATOM      7  C   UNL     1       1.297   4.251  19.100  0.00  0.00    +0.000 C 
ATOM      8  C   UNL     1       1.298   4.497  20.600  0.00  0.00    +0.000 C 
ATOM      9  O   UNL     1       2.605   4.181  21.086  0.00  0.00    +0.000 OA
ATOM     10  C   UNL     1       3.200   3.283  20.141  0.00  0.00    +0.000 C 
ATOM     11  C   UNL     1       3.613   4.885  18.290  0.00  0.00    +0.000 C 
ENDROOT
BRANCH   2  12
ATOM     12  C   UNL     1       6.518   5.590  17.512  0.00  0.00    +0.000 A 
ATOM     13  C   UNL     1       7.290   5.220  18.618  0.00  0.00    +0.000 A 
ATOM     14  C   UNL     1       8.204   6.099  19.209  0.00  0.00    +0.000 A 
ATOM     15  C   UNL     1       8.219   7.406  18.722  0.00  0.00    +0.000 A 
ATOM     16  N   UNL     1       8.956   8.503  19.092  0.00  0.00    +0.000 N 
ATOM     17  N   UNL     1       8.650   9.621  18.411  0.00  0.00    +0.000 NA
ATOM     18  C   UNL     1       7.701   9.216  17.562  0.00  0.00    +0.000 A 
ATOM     19  C   UNL     1       7.399   7.843  17.692  0.00  0.00    +0.000 A 
ATOM     20  C   UNL     1       6.538   6.925  17.063  0.00  0.00    +0.000 A 
ATOM     21  H   UNL     1       9.667   8.556  19.811  0.00  0.00    +0.000 HD
ENDBRANCH   2  12
TORSDOF 1
ENDMDL
MODEL 5
REMARK VINA RESULT:      -7.2      2.575      3.493
REMARK  Name = 
REMARK  1 active torsions:
REMARK  status: ('A' for Active; 'I' for Inactive)
REMARK    1  A    between atoms: C_2  and  C_3
REMARK                            x       y       z     vdW  Elec       q    Type
REMARK                         _______ _______ _______ _____ _____    ______ ____
ROOT
ATOM      1  O   UNL     1       3.118   8.291  17.951  0.00  0.00    +0.000 OA
ATOM      2  C   UNL     1       3.599   7.196  18.261  0.00  0.00    +0.000 C 
ATOM      3  N   UNL     1       3.050   6.432  19.279  0.00  0.00    +0.000 N 
ATOM      4  C   UNL     1       1.873   6.868  19.995  0.00  0.00    +0.000 C 
ATOM      5  C   UNL     1       1.160   5.572  20.360  0.00  0.00    +0.000 C 
ATOM      6  C   UNL     1       2.241   4.478  20.355  0.00  0.00    +0.000 C 
ATOM      7  C   UNL     1       2.470   3.787  21.694  0.00  0.00    +0.000 C 
ATOM      8  C   UNL     1       2.756   2.336  21.343  0.00  0.00    +0.000 C 
ATOM      9  O   UNL     1       2.708   2.221  19.919  0.00  0.00    +0.000 OA
ATOM     10  C   UNL     1       1.910   3.309  19.436  0.00  0.00    +0.000 C 
ATOM     11  C   UNL     1       3.506   5.168  19.839  0.00  0.00    +0.000 C 
ENDROOT
BRANCH   2  12
ATOM     12  C   UNL     1       4.725   6.672  17.433  0.00  0.00    +0.000 A 
ATOM     13  C   UNL     1       6.067   6.976  17.683  0.00  0.00    +0.000 A 
ATOM     14  C   UNL     1       7.110   6.347  16.994  0.00  0.00    +0.000 A 
ATOM     15  C   UNL     1       6.744   5.491  15.955  0.00  0.00    +0.000 A 
ATOM     16  N   UNL     1       7.501   4.755  15.078  0.00  0.00    +0.000 N 
ATOM     17  N   UNL     1       6.780   4.079  14.167  0.00  0.00    +0.000 NA
ATOM     18  C   UNL     1       5.517   4.376  14.491  0.00  0.00    +0.000 A 
ATOM     19  C   UNL     1       5.426   5.238  15.607  0.00  0.00    +0.000 A 
ATOM     20  C   UNL     1       4.391   5.824  16.359  0.00  0.00    +0.000 A 
ATOM     21  H   UNL     1       8.510   4.689  15.038  0.00  0.00    +0.000 HD
ENDBRANCH   2  12
TORSDOF 1
ENDMDL
MODEL 6
REMARK VINA RESULT:      -7.1      4.066      5.975
REMARK  Name = 
REMARK  1 active torsions:
REMARK  status: ('A' for Active; 'I' for Inactive)
REMARK    1  A    between atoms: C_2  and  C_3
REMARK                            x       y       z     vdW  Elec       q    Type
REMARK                         _______ _______ _______ _____ _____    ______ ____
ROOT
ATOM      1  O   UNL     1       1.594   4.996  17.744  0.00  0.00    +0.000 OA
ATOM      2  C   UNL     1       2.484   5.706  18.224  0.00  0.00    +0.000 C 
ATOM      3  N   UNL     1       3.814   5.314  18.189  0.00  0.00    +0.000 N 
ATOM      4  C   UNL     1       4.217   4.078  17.560  0.00  0.00    +0.000 C 
ATOM      5  C   UNL     1       5.609   4.375  17.018  0.00  0.00    +0.000 C 
ATOM      6  C   UNL     1       6.153   5.540  17.862  0.00  0.00    +0.000 C 
ATOM      7  C   UNL     1       7.410   5.227  18.665  0.00  0.00    +0.000 C 
ATOM      8  C   UNL     1       8.232   6.505  18.621  0.00  0.00    +0.000 C 
ATOM      9  O   UNL     1       7.491   7.467  17.867  0.00  0.00    +0.000 OA
ATOM     10  C   UNL     1       6.588   6.737  17.026  0.00  0.00    +0.000 C 
ATOM     11  C   UNL     1       4.987   5.963  18.758  0.00  0.00    +0.000 C 
ENDROOT
BRANCH   2  12
ATOM     12  C   UNL     1       2.095   7.049  18.747  0.00  0.00    +0.000 A 
ATOM     13  C   UNL     1       1.919   8.169  17.929  0.00  0.00    +0.000 A 
ATOM     14  C   UNL     1       1.400   9.372  18.422  0.00  0.00    +0.000 A 
ATOM     15  C   UNL     1       1.185   9.441  19.798  0.00  0.00    +0.000 A 
ATOM     16  N   UNL     1       0.725  10.460  20.594  0.00  0.00    +0.000 N 
ATOM     17  N   UNL     1       0.700  10.162  21.904  0.00  0.00    +0.000 NA
ATOM     18  C   UNL     1       1.138   8.900  21.943  0.00  0.00    +0.000 A 
ATOM     19  C   UNL     1       1.441   8.386  20.662  0.00  0.00    +0.000 A 
ATOM     20  C   UNL     1       1.893   7.162  20.137  0.00  0.00    +0.000 A 
ATOM     21  H   UNL     1       0.431  11.385  20.304  0.00  0.00    +0.000 HD
ENDBRANCH   2  12
TORSDOF 1
ENDMDL
MODEL 7
REMARK VINA RESULT:      -7.1      3.939      5.947
REMARK  Name = 
REMARK  1 active torsions:
REMARK  status: ('A' for Active; 'I' for Inactive)
REMARK    1  A    between atoms: C_2  and  C_3
REMARK                            x       y       z     vdW  Elec       q    Type
REMARK                         _______ _______ _______ _____ _____    ______ ____
ROOT
ATOM      1  O   UNL     1       1.347   4.402  19.399  0.00  0.00    +0.000 OA
ATOM      2  C   UNL     1       2.266   5.205  19.207  0.00  0.00    +0.000 C 
ATOM      3  N   UNL     1       3.477   4.796  18.671  0.00  0.00    +0.000 N 
ATOM      4  C   UNL     1       3.702   3.424  18.280  0.00  0.00    +0.000 C 
ATOM      5  C   UNL     1       4.661   3.526  17.101  0.00  0.00    +0.000 C 
ATOM      6  C   UNL     1       5.382   4.876  17.257  0.00  0.00    +0.000 C 
ATOM      7  C   UNL     1       6.892   4.788  17.442  0.00  0.00    +0.000 C 
ATOM      8  C   UNL     1       7.451   5.983  16.687  0.00  0.00    +0.000 C 
ATOM      9  O   UNL     1       6.343   6.697  16.133  0.00  0.00    +0.000 OA
ATOM     10  C   UNL     1       5.254   5.771  16.031  0.00  0.00    +0.000 C 
ATOM     11  C   UNL     1       4.695   5.562  18.440  0.00  0.00    +0.000 C 
ENDROOT
BRANCH   2  12
ATOM     12  C   UNL     1       1.995   6.649  19.473  0.00  0.00    +0.000 A 
ATOM     13  C   UNL     1       2.030   7.631  18.478  0.00  0.00    +0.000 A 
ATOM     14  C   UNL     1       1.616   8.946  18.721  0.00  0.00    +0.000 A 
ATOM     15  C   UNL     1       1.285   9.263  20.038  0.00  0.00    +0.000 A 
ATOM     16  N   UNL     1       0.879  10.441  20.613  0.00  0.00    +0.000 N 
ATOM     17  N   UNL     1       0.698  10.367  21.943  0.00  0.00    +0.000 NA
ATOM     18  C   UNL     1       0.977   9.090  22.222  0.00  0.00    +0.000 A 
ATOM     19  C   UNL     1       1.332   8.344  21.077  0.00  0.00    +0.000 A 
ATOM     20  C   UNL     1       1.680   7.010  20.798  0.00  0.00    +0.000 A 
ATOM     21  H   UNL     1       0.726  11.331  20.155  0.00  0.00    +0.000 HD
ENDBRANCH   2  12
TORSDOF 1
ENDMDL
MODEL 8
REMARK VINA RESULT:      -7.0      4.201      5.922
REMARK  Name = 
REMARK  1 active torsions:
REMARK  status: ('A' for Active; 'I' for Inactive)
REMARK    1  A    between atoms: C_2  and  C_3
REMARK                            x       y       z     vdW  Elec       q    Type
REMARK                         _______ _______ _______ _____ _____    ______ ____
ROOT
ATOM      1  O   UNL     1       1.568   5.241  20.648  0.00  0.00    +0.000 OA
ATOM      2  C   UNL     1       2.388   5.848  19.951  0.00  0.00    +0.000 C 
ATOM      3  N   UNL     1       3.526   5.219  19.470  0.00  0.00    +0.000 N 
ATOM      4  C   UNL     1       3.782   3.822  19.733  0.00  0.00    +0.000 C 
ATOM      5  C   UNL     1       4.536   3.344  18.498  0.00  0.00    +0.000 C 
ATOM      6  C   UNL     1       5.177   4.598  17.881  0.00  0.00    +0.000 C 
ATOM      7  C   UNL     1       6.700   4.588  17.827  0.00  0.00    +0.000 C 
ATOM      8  C   UNL     1       7.050   5.280  16.519  0.00  0.00    +0.000 C 
ATOM      9  O   UNL     1       5.823   5.663  15.894  0.00  0.00    +0.000 OA
ATOM     10  C   UNL     1       4.798   4.812  16.422  0.00  0.00    +0.000 C 
ATOM     11  C   UNL     1       4.637   5.770  18.706  0.00  0.00    +0.000 C 
ENDROOT
BRANCH   2  12
ATOM     12  C   UNL     1       2.062   7.249  19.555  0.00  0.00    +0.000 A 
ATOM     13  C   UNL     1       2.257   7.745  18.262  0.00  0.00    +0.000 A 
ATOM     14  C   UNL     1       1.796   9.009  17.877  0.00  0.00    +0.000 A 
ATOM     15  C   UNL     1       1.243   9.805  18.880  0.00  0.00    +0.000 A 
ATOM     16  N   UNL     1       0.735  11.079  18.850  0.00  0.00    +0.000 N 
ATOM     17  N   UNL     1       0.332  11.535  20.049  0.00  0.00    +0.000 NA
ATOM     18  C   UNL     1       0.571  10.506  20.868  0.00  0.00    +0.000 A 
ATOM     19  C   UNL     1       1.122   9.390  20.199  0.00  0.00    +0.000 A 
ATOM     20  C   UNL     1       1.525   8.089  20.550  0.00  0.00    +0.000 A 
ATOM     21  H   UNL     1       0.653  11.693  18.050  0.00  0.00    +0.000 HD
ENDBRANCH   2  12
TORSDOF 1
ENDMDL
MODEL 9
REMARK VINA RESULT:      -6.9      3.845      5.691
REMARK  Name = 
REMARK  1 active torsions:
REMARK  status: ('A' for Active; 'I' for Inactive)
REMARK    1  A    between atoms: C_2  and  C_3
REMARK                            x       y       z     vdW  Elec       q    Type
REMARK                         _______ _______ _______ _____ _____    ______ ____
ROOT
ATOM      1  O   UNL     1       1.814   4.498  17.837  0.00  0.00    +0.000 OA
ATOM      2  C   UNL     1       2.631   5.280  18.337  0.00  0.00    +0.000 C 
ATOM      3  N   UNL     1       3.996   5.059  18.229  0.00  0.00    +0.000 N 
ATOM      4  C   UNL     1       4.519   3.928  17.498  0.00  0.00    +0.000 C 
ATOM      5  C   UNL     1       5.841   4.433  16.932  0.00  0.00    +0.000 C 
ATOM      6  C   UNL     1       6.274   5.596  17.840  0.00  0.00    +0.000 C 
ATOM      7  C   UNL     1       7.593   5.388  18.575  0.00  0.00    +0.000 C 
ATOM      8  C   UNL     1       8.251   6.758  18.596  0.00  0.00    +0.000 C 
ATOM      9  O   UNL     1       7.367   7.669  17.939  0.00  0.00    +0.000 OA
ATOM     10  C   UNL     1       6.525   6.892  17.079  0.00  0.00    +0.000 C 
ATOM     11  C   UNL     1       5.104   5.809  18.803  0.00  0.00    +0.000 C 
ENDROOT
BRANCH   2  12
ATOM     12  C   UNL     1       2.104   6.525  18.969  0.00  0.00    +0.000 A 
ATOM     13  C   UNL     1       1.694   6.593  20.304  0.00  0.00    +0.000 A 
ATOM     14  C   UNL     1       1.356   7.806  20.914  0.00  0.00    +0.000 A 
ATOM     15  C   UNL     1       1.327   8.932  20.091  0.00  0.00    +0.000 A 
ATOM     16  N   UNL     1       1.013  10.241  20.357  0.00  0.00    +0.000 N 
ATOM     17  N   UNL     1       1.051  11.042  19.278  0.00  0.00    +0.000 NA
ATOM     18  C   UNL     1       1.425  10.218  18.294  0.00  0.00    +0.000 A 
ATOM     19  C   UNL     1       1.630   8.892  18.738  0.00  0.00    +0.000 A 
ATOM     20  C   UNL     1       2.037   7.676  18.160  0.00  0.00    +0.000 A 
ATOM     21  H   UNL     1       0.749  10.644  21.247  0.00  0.00    +0.000 HD
ENDBRANCH   2  12
TORSDOF 1
ENDMDL
