MODEL 1
REMARK VINA RESULT:      -7.4      0.000      0.000
REMARK  Name = 
REMARK  5 active torsions:
REMARK  status: ('A' for Active; 'I' for Inactive)
REMARK    1  A    between atoms: C_1  and  C_2
REMARK    2  A    between atoms: N_4  and  C_5
REMARK    3  A    between atoms: C_9  and  C_10
REMARK    4  A    between atoms: N_14  and  C_15
REMARK    5  A    between atoms: C_15  and  C_16
REMARK                            x       y       z     vdW  Elec       q    Type
REMARK                         _______ _______ _______ _____ _____    ______ ____
ROOT
ATOM      1  C   UNL     1       4.945   5.159  18.274  0.00  0.00    +0.000 A 
ATOM      2  S   UNL     1       3.986   4.969  19.667  0.00  0.00    +0.000 S 
ATOM      3  C   UNL     1       2.976   6.258  19.277  0.00  0.00    +0.000 A 
ATOM      4  C   UNL     1       3.377   6.770  18.051  0.00  0.00    +0.000 A 
ATOM      5  C   UNL     1       4.430   6.141  17.468  0.00  0.00    +0.000 A 
ATOM      6  C   UNL     1       2.768   7.964  17.453  0.00  0.00    +0.000 C 
ATOM      7  C   UNL     1       1.628   8.507  18.283  0.00  0.00    +0.000 C 
ATOM      8  N   UNL     1       1.900   8.398  19.744  0.00  0.00    +0.000 NA
ATOM      9  C   UNL     1       1.954   6.962  20.136  0.00  0.00    +0.000 C 
ENDROOT
BRANCH   1  13
ATOM     10  C   UNL     1       7.796   6.200  18.719  0.00  0.00    +0.000 C 
ATOM     11  C   UNL     1       7.385   4.850  18.122  0.00  0.00    +0.000 C 
ATOM     12  O   UNL     1       8.290   4.103  17.770  0.00  0.00    +0.000 OA
ATOM     13  N   UNL     1       6.088   4.398  17.935  0.00  0.00    +0.000 N 
ATOM     14  H   UNL     1       5.809   3.518  17.529  0.00  0.00    +0.000 HD
ENDBRANCH   1  13
BRANCH   5  15
ATOM     15  C   UNL     1       4.959   6.455  16.165  0.00  0.00    +0.000 C 
ATOM     16  N   UNL     1       5.411   6.656  15.113  0.00  0.00    +0.000 NA
ENDBRANCH   5  15
BRANCH   8  17
ATOM     17  C   UNL     1       0.856   9.092  20.531  0.00  0.00    +0.000 C 
BRANCH  17  18
ATOM     18  C   UNL     1       0.308  10.325  19.832  0.00  0.00    +0.000 A 
ATOM     19  C   UNL     1       1.066  11.513  19.782  0.00  0.00    +0.000 A 
ATOM     20  C   UNL     1       0.556  12.644  19.130  0.00  0.00    +0.000 A 
ATOM     21  C   UNL     1      -0.678  12.580  18.476  0.00  0.00    +0.000 A 
ATOM     22  C   UNL     1      -1.430  11.403  18.520  0.00  0.00    +0.000 A 
ATOM     23  C   UNL     1      -0.964  10.314  19.227  0.00  0.00    +0.000 A 
ENDBRANCH  17  18
ENDBRANCH   8  17
TORSDOF 4
ENDMDL
MODEL 2
REMARK VINA RESULT:      -7.4      0.083      1.035
REMARK  Name = 
REMARK  5 active torsions:
REMARK  status: ('A' for Active; 'I' for Inactive)
REMARK    1  A    between atoms: C_1  and  C_2
REMARK    2  A    between atoms: N_4  and  C_5
REMARK    3  A    between atoms: C_9  and  C_10
REMARK    4  A    between atoms: N_14  and  C_15
REMARK    5  A    between atoms: C_15  and  C_16
REMARK                            x       y       z     vdW  Elec       q    Type
REMARK                         _______ _______ _______ _____ _____    ______ ____
ROOT
ATOM      1  C   UNL     1       4.955   5.131  18.295  0.00  0.00    +0.000 A 
ATOM      2  S   UNL     1       4.002   4.936  19.692  0.00  0.00    +0.000 S 
ATOM      3  C   UNL     1       2.979   6.216  19.302  0.00  0.00    +0.000 A 
ATOM      4  C   UNL     1       3.373   6.729  18.074  0.00  0.00    +0.000 A 
ATOM      5  C   UNL     1       4.429   6.106  17.489  0.00  0.00    +0.000 A 
ATOM      6  C   UNL     1       2.752   7.916  17.475  0.00  0.00    +0.000 C 
ATOM      7  C   UNL     1       1.611   8.451  18.307  0.00  0.00    +0.000 C 
ATOM      8  N   UNL     1       1.888   8.348  19.768  0.00  0.00    +0.000 NA
ATOM      9  C   UNL     1       1.955   6.914  20.162  0.00  0.00    +0.000 C 
ENDROOT
BRANCH   1  13
ATOM     10  C   UNL     1       7.797   6.215  18.683  0.00  0.00    +0.000 C 
ATOM     11  C   UNL     1       7.396   4.850  18.115  0.00  0.00    +0.000 C 
ATOM     12  O   UNL     1       8.306   4.108  17.764  0.00  0.00    +0.000 OA
ATOM     13  N   UNL     1       6.103   4.378  17.954  0.00  0.00    +0.000 N 
ATOM     14  H   UNL     1       5.830   3.488  17.567  0.00  0.00    +0.000 HD
ENDBRANCH   1  13
BRANCH   5  15
ATOM     15  C   UNL     1       4.951   6.422  16.183  0.00  0.00    +0.000 C 
ATOM     16  N   UNL     1       5.422   6.651  15.145  0.00  0.00    +0.000 NA
ENDBRANCH   5  15
BRANCH   8  17
ATOM     17  C   UNL     1       0.841   9.036  20.556  0.00  0.00    +0.000 C 
BRANCH  17  18
ATOM     18  C   UNL     1       0.314  10.289  19.877  0.00  0.00    +0.000 A 
ATOM     19  C   UNL     1      -0.928  10.270  19.210  0.00  0.00    +0.000 A 
ATOM     20  C   UNL     1      -1.410  11.432  18.591  0.00  0.00    +0.000 A 
ATOM     21  C   UNL     1      -0.690  12.627  18.685  0.00  0.00    +0.000 A 
ATOM     22  C   UNL     1       0.539  12.649  19.349  0.00  0.00    +0.000 A 
ATOM     23  C   UNL     1       1.051  11.489  19.891  0.00  0.00    +0.000 A 
ENDBRANCH  17  18
ENDBRANCH   8  17
TORSDOF 4
ENDMDL
MODEL 3
REMARK VINA RESULT:      -7.0      3.917      8.005
REMARK  Name = 
REMARK  5 active torsions:
REMARK  status: ('A' for Active; 'I' for Inactive)
REMARK    1  A    between atoms: C_1  and  C_2
REMARK    2  A    between atoms: N_4  and  C_5
REMARK    3  A    between atoms: C_9  and  C_10
REMARK    4  A    between atoms: N_14  and  C_15
REMARK    5  A    between atoms: C_15  and  C_16
REMARK                            x       y       z     vdW  Elec       q    Type
REMARK                         _______ _______ _______ _____ _____    ______ ____
ROOT
ATOM      1  C   UNL     1       3.596   4.211  19.421  0.00  0.00    +0.000 A 
ATOM      2  S   UNL     1       4.849   3.223  18.829  0.00  0.00    +0.000 S 
ATOM      3  C   UNL     1       5.334   4.348  17.673  0.00  0.00    +0.000 A 
ATOM      4  C   UNL     1       4.544   5.481  17.810  0.00  0.00    +0.000 A 
ATOM      5  C   UNL     1       3.617   5.433  18.802  0.00  0.00    +0.000 A 
ATOM      6  C   UNL     1       4.635   6.627  16.898  0.00  0.00    +0.000 C 
ATOM      7  C   UNL     1       5.722   6.453  15.863  0.00  0.00    +0.000 C 
ATOM      8  N   UNL     1       5.820   5.046  15.386  0.00  0.00    +0.000 NA
ATOM      9  C   UNL     1       6.270   4.170  16.503  0.00  0.00    +0.000 C 
ENDROOT
BRANCH   1  13
ATOM     10  C   UNL     1       1.107   2.502  18.882  0.00  0.00    +0.000 C 
ATOM     11  C   UNL     1       1.543   3.107  20.220  0.00  0.00    +0.000 C 
ATOM     12  O   UNL     1       0.815   2.900  21.184  0.00  0.00    +0.000 OA
ATOM     13  N   UNL     1       2.677   3.873  20.442  0.00  0.00    +0.000 N 
ATOM     14  H   UNL     1       2.963   4.288  21.315  0.00  0.00    +0.000 HD
ENDBRANCH   1  13
BRANCH   5  15
ATOM     15  C   UNL     1       2.748   6.523  19.171  0.00  0.00    +0.000 C 
ATOM     16  N   UNL     1       2.093   7.427  19.494  0.00  0.00    +0.000 NA
ENDBRANCH   5  15
BRANCH   8  17
ATOM     17  C   UNL     1       6.764   4.935  14.251  0.00  0.00    +0.000 C 
BRANCH  17  18
ATOM     18  C   UNL     1       6.261   4.019  13.148  0.00  0.00    +0.000 A 
ATOM     19  C   UNL     1       7.160   3.191  12.444  0.00  0.00    +0.000 A 
ATOM     20  C   UNL     1       6.687   2.344  11.432  0.00  0.00    +0.000 A 
ATOM     21  C   UNL     1       5.317   2.274  11.158  0.00  0.00    +0.000 A 
ATOM     22  C   UNL     1       4.425   3.091  11.857  0.00  0.00    +0.000 A 
ATOM     23  C   UNL     1       4.897   3.980  12.799  0.00  0.00    +0.000 A 
ENDBRANCH  17  18
ENDBRANCH   8  17
TORSDOF 4
ENDMDL
MODEL 4
REMARK VINA RESULT:      -7.0      2.421      3.771
REMARK  Name = 
REMARK  5 active torsions:
REMARK  status: ('A' for Active; 'I' for Inactive)
REMARK    1  A    between atoms: C_1  and  C_2
REMARK    2  A    between atoms: N_4  and  C_5
REMARK    3  A    between atoms: C_9  and  C_10
REMARK    4  A    between atoms: N_14  and  C_15
REMARK    5  A    between atoms: C_15  and  C_16
REMARK                            x       y       z     vdW  Elec       q    Type
REMARK                         _______ _______ _______ _____ _____    ______ ____
ROOT
ATOM      1  C   UNL     1       3.381   5.513  18.562  0.00  0.00    +0.000 A 
ATOM      2  S   UNL     1       3.573   6.866  17.547  0.00  0.00    +0.000 S 
ATOM      3  C   UNL     1       2.637   7.867  18.526  0.00  0.00    +0.000 A 
ATOM      4  C   UNL     1       2.242   7.140  19.640  0.00  0.00    +0.000 A 
ATOM      5  C   UNL     1       2.688   5.857  19.693  0.00  0.00    +0.000 A 
ATOM      6  C   UNL     1       1.335   7.680  20.659  0.00  0.00    +0.000 C 
ATOM      7  C   UNL     1       0.955   9.117  20.388  0.00  0.00    +0.000 C 
ATOM      8  N   UNL     1       0.767   9.380  18.933  0.00  0.00    +0.000 NA
ATOM      9  C   UNL     1       2.070   9.233  18.227  0.00  0.00    +0.000 C 
ENDROOT
BRANCH   1  13
ATOM     10  C   UNL     1       1.579   3.157  17.781  0.00  0.00    +0.000 C 
ATOM     11  C   UNL     1       3.098   3.135  17.983  0.00  0.00    +0.000 C 
ATOM     12  O   UNL     1       3.660   2.057  17.829  0.00  0.00    +0.000 OA
ATOM     13  N   UNL     1       3.894   4.215  18.331  0.00  0.00    +0.000 N 
ATOM     14  H   UNL     1       4.891   4.205  18.482  0.00  0.00    +0.000 HD
ENDBRANCH   1  13
BRANCH   5  15
ATOM     15  C   UNL     1       2.465   4.952  20.792  0.00  0.00    +0.000 C 
ATOM     16  N   UNL     1       2.285   4.178  21.641  0.00  0.00    +0.000 NA
ENDBRANCH   5  15
BRANCH   8  17
ATOM     17  C   UNL     1       0.226  10.738  18.706  0.00  0.00    +0.000 C 
BRANCH  17  18
ATOM     18  C   UNL     1      -1.224  10.731  18.249  0.00  0.00    +0.000 A 
ATOM     19  C   UNL     1      -2.163  11.599  18.843  0.00  0.00    +0.000 A 
ATOM     20  C   UNL     1      -3.497  11.591  18.412  0.00  0.00    +0.000 A 
ATOM     21  C   UNL     1      -3.887  10.765  17.353  0.00  0.00    +0.000 A 
ATOM     22  C   UNL     1      -2.957   9.906  16.761  0.00  0.00    +0.000 A 
ATOM     23  C   UNL     1      -1.663   9.858  17.235  0.00  0.00    +0.000 A 
ENDBRANCH  17  18
ENDBRANCH   8  17
TORSDOF 4
ENDMDL
MODEL 5
REMARK VINA RESULT:      -7.0      2.457      3.836
REMARK  Name = 
REMARK  5 active torsions:
REMARK  status: ('A' for Active; 'I' for Inactive)
REMARK    1  A    between atoms: C_1  and  C_2
REMARK    2  A    between atoms: N_4  and  C_5
REMARK    3  A    between atoms: C_9  and  C_10
REMARK    4  A    between atoms: N_14  and  C_15
REMARK    5  A    between atoms: C_15  and  C_16
REMARK                            x       y       z     vdW  Elec       q    Type
REMARK                         _______ _______ _______ _____ _____    ______ ____
ROOT
ATOM      1  C   UNL     1       3.350   5.354  18.633  0.00  0.00    +0.000 A 
ATOM      2  S   UNL     1       3.589   6.700  17.619  0.00  0.00    +0.000 S 
ATOM      3  C   UNL     1       2.679   7.730  18.593  0.00  0.00    +0.000 A 
ATOM      4  C   UNL     1       2.255   7.016  19.705  0.00  0.00    +0.000 A 
ATOM      5  C   UNL     1       2.661   5.720  19.760  0.00  0.00    +0.000 A 
ATOM      6  C   UNL     1       1.360   7.584  20.718  0.00  0.00    +0.000 C 
ATOM      7  C   UNL     1       1.026   9.032  20.445  0.00  0.00    +0.000 C 
ATOM      8  N   UNL     1       0.855   9.301  18.989  0.00  0.00    +0.000 NA
ATOM      9  C   UNL     1       2.156   9.113  18.291  0.00  0.00    +0.000 C 
ENDROOT
BRANCH   1  13
ATOM     10  C   UNL     1       1.473   3.043  17.898  0.00  0.00    +0.000 C 
ATOM     11  C   UNL     1       2.993   2.980  18.077  0.00  0.00    +0.000 C 
ATOM     12  O   UNL     1       3.523   1.887  17.923  0.00  0.00    +0.000 OA
ATOM     13  N   UNL     1       3.823   4.041  18.405  0.00  0.00    +0.000 N 
ATOM     14  H   UNL     1       4.822   4.005  18.540  0.00  0.00    +0.000 HD
ENDBRANCH   1  13
BRANCH   5  15
ATOM     15  C   UNL     1       2.404   4.822  20.858  0.00  0.00    +0.000 C 
ATOM     16  N   UNL     1       2.246   4.071  21.731  0.00  0.00    +0.000 NA
ENDBRANCH   5  15
BRANCH   8  17
ATOM     17  C   UNL     1       0.357  10.675  18.759  0.00  0.00    +0.000 C 
BRANCH  17  18
ATOM     18  C   UNL     1      -1.093  10.713  18.306  0.00  0.00    +0.000 A 
ATOM     19  C   UNL     1      -1.549   9.836  17.300  0.00  0.00    +0.000 A 
ATOM     20  C   UNL     1      -2.890   9.873  16.892  0.00  0.00    +0.000 A 
ATOM     21  C   UNL     1      -3.792  10.737  17.523  0.00  0.00    +0.000 A 
ATOM     22  C   UNL     1      -3.343  11.604  18.522  0.00  0.00    +0.000 A 
ATOM     23  C   UNL     1      -2.008  11.623  18.870  0.00  0.00    +0.000 A 
ENDBRANCH  17  18
ENDBRANCH   8  17
TORSDOF 4
ENDMDL
MODEL 6
REMARK VINA RESULT:      -7.0      3.797      8.124
REMARK  Name = 
REMARK  5 active torsions:
REMARK  status: ('A' for Active; 'I' for Inactive)
REMARK    1  A    between atoms: C_1  and  C_2
REMARK    2  A    between atoms: N_4  and  C_5
REMARK    3  A    between atoms: C_9  and  C_10
REMARK    4  A    between atoms: N_14  and  C_15
REMARK    5  A    between atoms: C_15  and  C_16
REMARK                            x       y       z     vdW  Elec       q    Type
REMARK                         _______ _______ _______ _____ _____    ______ ____
ROOT
ATOM      1  C   UNL     1       0.639  11.129  20.404  0.00  0.00    +0.000 A 
ATOM      2  S   UNL     1       0.964  10.875  18.752  0.00  0.00    +0.000 S 
ATOM      3  C   UNL     1       1.358   9.252  18.970  0.00  0.00    +0.000 A 
ATOM      4  C   UNL     1       1.177   8.936  20.309  0.00  0.00    +0.000 A 
ATOM      5  C   UNL     1       0.735   9.951  21.097  0.00  0.00    +0.000 A 
ATOM      6  C   UNL     1       1.518   7.623  20.867  0.00  0.00    +0.000 C 
ATOM      7  C   UNL     1       2.007   6.658  19.812  0.00  0.00    +0.000 C 
ATOM      8  N   UNL     1       2.852   7.332  18.787  0.00  0.00    +0.000 NA
ATOM      9  C   UNL     1       2.023   8.296  18.011  0.00  0.00    +0.000 C 
ENDROOT
BRANCH   1  13
ATOM     10  C   UNL     1      -2.188  12.289  20.143  0.00  0.00    +0.000 C 
ATOM     11  C   UNL     1      -1.002  12.901  20.895  0.00  0.00    +0.000 C 
ATOM     12  O   UNL     1      -1.192  13.978  21.445  0.00  0.00    +0.000 OA
ATOM     13  N   UNL     1       0.268  12.355  21.004  0.00  0.00    +0.000 N 
ATOM     14  H   UNL     1       1.059  12.758  21.483  0.00  0.00    +0.000 HD
ENDBRANCH   1  13
BRANCH   5  15
ATOM     15  C   UNL     1       0.406   9.825  22.495  0.00  0.00    +0.000 C 
ATOM     16  N   UNL     1       0.160   9.670  23.620  0.00  0.00    +0.000 NA
ENDBRANCH   5  15
BRANCH   8  17
ATOM     17  C   UNL     1       3.462   6.345  17.869  0.00  0.00    +0.000 C 
BRANCH  17  18
ATOM     18  C   UNL     1       4.966   6.216  18.049  0.00  0.00    +0.000 A 
ATOM     19  C   UNL     1       5.848   6.867  17.162  0.00  0.00    +0.000 A 
ATOM     20  C   UNL     1       7.234   6.749  17.338  0.00  0.00    +0.000 A 
ATOM     21  C   UNL     1       7.744   6.036  18.427  0.00  0.00    +0.000 A 
ATOM     22  C   UNL     1       6.872   5.394  19.310  0.00  0.00    +0.000 A 
ATOM     23  C   UNL     1       5.511   5.445  19.093  0.00  0.00    +0.000 A 
ENDBRANCH  17  18
ENDBRANCH   8  17
TORSDOF 4
ENDMDL
MODEL 7
REMARK VINA RESULT:      -7.0      3.896      7.997
REMARK  Name = 
REMARK  5 active torsions:
REMARK  status: ('A' for Active; 'I' for Inactive)
REMARK    1  A    between atoms: C_1  and  C_2
REMARK    2  A    between atoms: N_4  and  C_5
REMARK    3  A    between atoms: C_9  and  C_10
REMARK    4  A    between atoms: N_14  and  C_15
REMARK    5  A    between atoms: C_15  and  C_16
REMARK                            x       y       z     vdW  Elec       q    Type
REMARK                         _______ _______ _______ _____ _____    ______ ____
ROOT
ATOM      1  C   UNL     1       3.609   4.253  19.528  0.00  0.00    +0.000 A 
ATOM      2  S   UNL     1       4.863   3.269  18.929  0.00  0.00    +0.000 S 
ATOM      3  C   UNL     1       5.340   4.397  17.773  0.00  0.00    +0.000 A 
ATOM      4  C   UNL     1       4.548   5.528  17.916  0.00  0.00    +0.000 A 
ATOM      5  C   UNL     1       3.625   5.476  18.911  0.00  0.00    +0.000 A 
ATOM      6  C   UNL     1       4.634   6.675  17.005  0.00  0.00    +0.000 C 
ATOM      7  C   UNL     1       5.717   6.506  15.966  0.00  0.00    +0.000 C 
ATOM      8  N   UNL     1       5.817   5.099  15.486  0.00  0.00    +0.000 NA
ATOM      9  C   UNL     1       6.273   4.223  16.600  0.00  0.00    +0.000 C 
ENDROOT
BRANCH   1  13
ATOM     10  C   UNL     1       1.145   2.503  19.003  0.00  0.00    +0.000 C 
ATOM     11  C   UNL     1       1.572   3.127  20.336  0.00  0.00    +0.000 C 
ATOM     12  O   UNL     1       0.847   2.918  21.301  0.00  0.00    +0.000 OA
ATOM     13  N   UNL     1       2.695   3.911  20.551  0.00  0.00    +0.000 N 
ATOM     14  H   UNL     1       2.974   4.338  21.421  0.00  0.00    +0.000 HD
ENDBRANCH   1  13
BRANCH   5  15
ATOM     15  C   UNL     1       2.755   6.563  19.285  0.00  0.00    +0.000 C 
ATOM     16  N   UNL     1       2.028   7.404  19.625  0.00  0.00    +0.000 NA
ENDBRANCH   5  15
BRANCH   8  17
ATOM     17  C   UNL     1       6.757   4.993  14.348  0.00  0.00    +0.000 C 
BRANCH  17  18
ATOM     18  C   UNL     1       6.260   4.065  13.252  0.00  0.00    +0.000 A 
ATOM     19  C   UNL     1       4.885   3.993  12.948  0.00  0.00    +0.000 A 
ATOM     20  C   UNL     1       4.435   3.139  11.932  0.00  0.00    +0.000 A 
ATOM     21  C   UNL     1       5.353   2.402  11.176  0.00  0.00    +0.000 A 
ATOM     22  C   UNL     1       6.716   2.475  11.473  0.00  0.00    +0.000 A 
ATOM     23  C   UNL     1       7.153   3.256  12.524  0.00  0.00    +0.000 A 
ENDBRANCH  17  18
ENDBRANCH   8  17
TORSDOF 4
ENDMDL
MODEL 8
REMARK VINA RESULT:      -7.0      3.714      7.860
REMARK  Name = 
REMARK  5 active torsions:
REMARK  status: ('A' for Active; 'I' for Inactive)
REMARK    1  A    between atoms: C_1  and  C_2
REMARK    2  A    between atoms: N_4  and  C_5
REMARK    3  A    between atoms: C_9  and  C_10
REMARK    4  A    between atoms: N_14  and  C_15
REMARK    5  A    between atoms: C_15  and  C_16
REMARK                            x       y       z     vdW  Elec       q    Type
REMARK                         _______ _______ _______ _____ _____    ______ ____
ROOT
ATOM      1  C   UNL     1       0.532  11.104  20.371  0.00  0.00    +0.000 A 
ATOM      2  S   UNL     1       0.828  10.844  18.715  0.00  0.00    +0.000 S 
ATOM      3  C   UNL     1       1.291   9.240  18.940  0.00  0.00    +0.000 A 
ATOM      4  C   UNL     1       1.154   8.933  20.287  0.00  0.00    +0.000 A 
ATOM      5  C   UNL     1       0.691   9.938  21.074  0.00  0.00    +0.000 A 
ATOM      6  C   UNL     1       1.560   7.640  20.850  0.00  0.00    +0.000 C 
ATOM      7  C   UNL     1       2.061   6.684  19.793  0.00  0.00    +0.000 C 
ATOM      8  N   UNL     1       2.855   7.379  18.742  0.00  0.00    +0.000 NA
ATOM      9  C   UNL     1       1.970   8.300  17.976  0.00  0.00    +0.000 C 
ENDROOT
BRANCH   1  13
ATOM     10  C   UNL     1       2.453  13.468  20.727  0.00  0.00    +0.000 C 
ATOM     11  C   UNL     1       0.980  13.400  21.144  0.00  0.00    +0.000 C 
ATOM     12  O   UNL     1       0.514  14.392  21.691  0.00  0.00    +0.000 OA
ATOM     13  N   UNL     1       0.128  12.321  20.967  0.00  0.00    +0.000 N 
ATOM     14  H   UNL     1      -0.837  12.262  21.253  0.00  0.00    +0.000 HD
ENDBRANCH   1  13
BRANCH   5  15
ATOM     15  C   UNL     1       0.400   9.816  22.481  0.00  0.00    +0.000 C 
ATOM     16  N   UNL     1       0.197   9.669  23.616  0.00  0.00    +0.000 NA
ENDBRANCH   5  15
BRANCH   8  17
ATOM     17  C   UNL     1       3.482   6.405  17.820  0.00  0.00    +0.000 C 
BRANCH  17  18
ATOM     18  C   UNL     1       4.980   6.264  18.033  0.00  0.00    +0.000 A 
ATOM     19  C   UNL     1       5.886   6.944  17.194  0.00  0.00    +0.000 A 
ATOM     20  C   UNL     1       7.267   6.814  17.401  0.00  0.00    +0.000 A 
ATOM     21  C   UNL     1       7.747   6.060  18.476  0.00  0.00    +0.000 A 
ATOM     22  C   UNL     1       6.850   5.389  19.312  0.00  0.00    +0.000 A 
ATOM     23  C   UNL     1       5.495   5.453  19.062  0.00  0.00    +0.000 A 
ENDBRANCH  17  18
ENDBRANCH   8  17
TORSDOF 4
ENDMDL
MODEL 9
REMARK VINA RESULT:      -7.0      2.430      3.612
REMARK  Name = 
REMARK  5 active torsions:
REMARK  status: ('A' for Active; 'I' for Inactive)
REMARK    1  A    between atoms: C_1  and  C_2
REMARK    2  A    between atoms: N_4  and  C_5
REMARK    3  A    between atoms: C_9  and  C_10
REMARK    4  A    between atoms: N_14  and  C_15
REMARK    5  A    between atoms: C_15  and  C_16
REMARK                            x       y       z     vdW  Elec       q    Type
REMARK                         _______ _______ _______ _____ _____    ______ ____
ROOT
ATOM      1  C   UNL     1       3.906   4.339  18.900  0.00  0.00    +0.000 A 
ATOM      2  S   UNL     1       4.416   5.530  17.795  0.00  0.00    +0.000 S 
ATOM      3  C   UNL     1       3.464   6.733  18.489  0.00  0.00    +0.000 A 
ATOM      4  C   UNL     1       2.814   6.193  19.590  0.00  0.00    +0.000 A 
ATOM      5  C   UNL     1       3.089   4.889  19.853  0.00  0.00    +0.000 A 
ATOM      6  C   UNL     1       1.829   6.944  20.377  0.00  0.00    +0.000 C 
ATOM      7  C   UNL     1       1.671   8.367  19.894  0.00  0.00    +0.000 C 
ATOM      8  N   UNL     1       1.747   8.466  18.410  0.00  0.00    +0.000 NA
ATOM      9  C   UNL     1       3.118   8.102  17.956  0.00  0.00    +0.000 C 
ENDROOT
BRANCH   1  13
ATOM     10  C   UNL     1       2.126   2.140  17.717  0.00  0.00    +0.000 C 
ATOM     11  C   UNL     1       3.499   1.967  18.374  0.00  0.00    +0.000 C 
ATOM     12  O   UNL     1       3.936   0.825  18.450  0.00  0.00    +0.000 OA
ATOM     13  N   UNL     1       4.289   2.978  18.898  0.00  0.00    +0.000 N 
ATOM     14  H   UNL     1       5.186   2.871  19.346  0.00  0.00    +0.000 HD
ENDBRANCH   1  13
BRANCH   5  15
ATOM     15  C   UNL     1       2.589   4.154  20.988  0.00  0.00    +0.000 C 
ATOM     16  N   UNL     1       2.145   3.600  21.908  0.00  0.00    +0.000 NA
ENDBRANCH   5  15
BRANCH   8  17
ATOM     17  C   UNL     1       1.415   9.833  17.951  0.00  0.00    +0.000 C 
BRANCH  17  18
ATOM     18  C   UNL     1      -0.051  10.184  18.144  0.00  0.00    +0.000 A 
ATOM     19  C   UNL     1      -0.434  11.141  19.107  0.00  0.00    +0.000 A 
ATOM     20  C   UNL     1      -1.788  11.464  19.275  0.00  0.00    +0.000 A 
ATOM     21  C   UNL     1      -2.756  10.883  18.448  0.00  0.00    +0.000 A 
ATOM     22  C   UNL     1      -2.378   9.937  17.492  0.00  0.00    +0.000 A 
ATOM     23  C   UNL     1      -1.055   9.562  17.378  0.00  0.00    +0.000 A 
ENDBRANCH  17  18
ENDBRANCH   8  17
TORSDOF 4
ENDMDL
