MODEL 1
REMARK VINA RESULT:      -6.8      0.000      0.000
REMARK  Name = 
REMARK  4 active torsions:
REMARK  status: ('A' for Active; 'I' for Inactive)
REMARK    1  A    between atoms: C_1  and  C_2
REMARK    2  A    between atoms: C_2  and  C_3
REMARK    3  A    between atoms: C_2  and  C_6
REMARK    4  A    between atoms: C_3  and  O_5
REMARK                            x       y       z     vdW  Elec       q    Type
REMARK                         _______ _______ _______ _____ _____    ______ ____
ROOT
ATOM      1  C   UNL     1       5.974   4.173  15.481  0.00  0.00    +0.000 A 
ATOM      2  C   UNL     1       6.807   4.014  16.597  0.00  0.00    +0.000 A 
ATOM      3  C   UNL     1       6.355   4.354  17.872  0.00  0.00    +0.000 A 
ATOM      4  C   UNL     1       5.070   4.872  18.055  0.00  0.00    +0.000 A 
ATOM      5  C   UNL     1       4.222   5.039  16.955  0.00  0.00    +0.000 A 
ATOM      6  C   UNL     1       4.676   4.678  15.676  0.00  0.00    +0.000 A 
ATOM      7  C   UNL     1       2.837   5.597  17.148  0.00  0.00    +0.000 C 
ATOM      8  C   UNL     1       1.885   4.595  17.758  0.00  0.00    +0.000 C 
ATOM      9  O   UNL     1       0.915   4.206  17.103  0.00  0.00    +0.000 OA
ATOM     10  C   UNL     1       2.082   4.067  19.153  0.00  0.00    +0.000 A 
ATOM     11  C   UNL     1       1.049   3.228  19.627  0.00  0.00    +0.000 A 
ATOM     12  C   UNL     1       1.098   2.650  20.896  0.00  0.00    +0.000 A 
ATOM     13  C   UNL     1       2.188   2.893  21.719  0.00  0.00    +0.000 A 
ATOM     14  C   UNL     1       3.213   3.726  21.273  0.00  0.00    +0.000 A 
ATOM     15  C   UNL     1       3.178   4.327  19.997  0.00  0.00    +0.000 A 
ATOM     16  S   UNL     1       4.574   5.394  19.677  0.00  0.00    +0.000 S 
ENDROOT
BRANCH   1  18
ATOM     17  C   UNL     1       5.271   3.793  13.124  0.00  0.00    +0.000 C 
ATOM     18  C   UNL     1       6.472   3.908  14.066  0.00  0.00    +0.000 C 
BRANCH  18  19
ATOM     19  C   UNL     1       7.477   4.934  13.544  0.00  0.00    +0.000 C 
ATOM     20  O   UNL     1       8.125   5.698  14.245  0.00  0.00    +0.000 OA
BRANCH  19  21
ATOM     21  O   UNL     1       7.568   4.967  12.192  0.00  0.00    +0.000 OA
ATOM     22  H   UNL     1       8.241   4.358  11.832  0.00  0.00    +0.000 HD
ENDBRANCH  19  21
ENDBRANCH  18  19
ENDBRANCH   1  18
TORSDOF 3
ENDMDL
MODEL 2
REMARK VINA RESULT:      -6.7      4.122      6.803
REMARK  Name = 
REMARK  4 active torsions:
REMARK  status: ('A' for Active; 'I' for Inactive)
REMARK    1  A    between atoms: C_1  and  C_2
REMARK    2  A    between atoms: C_2  and  C_3
REMARK    3  A    between atoms: C_2  and  C_6
REMARK    4  A    between atoms: C_3  and  O_5
REMARK                            x       y       z     vdW  Elec       q    Type
REMARK                         _______ _______ _______ _____ _____    ______ ____
ROOT
ATOM      1  C   UNL     1       0.993   9.449  18.943  0.00  0.00    +0.000 A 
ATOM      2  C   UNL     1       1.791   9.461  17.791  0.00  0.00    +0.000 A 
ATOM      3  C   UNL     1       2.743   8.463  17.580  0.00  0.00    +0.000 A 
ATOM      4  C   UNL     1       2.926   7.446  18.519  0.00  0.00    +0.000 A 
ATOM      5  C   UNL     1       2.140   7.414  19.676  0.00  0.00    +0.000 A 
ATOM      6  C   UNL     1       1.170   8.411  19.875  0.00  0.00    +0.000 A 
ATOM      7  C   UNL     1       2.334   6.319  20.691  0.00  0.00    +0.000 C 
ATOM      8  C   UNL     1       1.759   4.996  20.238  0.00  0.00    +0.000 C 
ATOM      9  O   UNL     1       0.822   4.498  20.865  0.00  0.00    +0.000 OA
ATOM     10  C   UNL     1       2.312   4.263  19.047  0.00  0.00    +0.000 A 
ATOM     11  C   UNL     1       1.751   2.988  18.816  0.00  0.00    +0.000 A 
ATOM     12  C   UNL     1       2.150   2.194  17.740  0.00  0.00    +0.000 A 
ATOM     13  C   UNL     1       3.117   2.663  16.864  0.00  0.00    +0.000 A 
ATOM     14  C   UNL     1       3.691   3.915  17.081  0.00  0.00    +0.000 A 
ATOM     15  C   UNL     1       3.307   4.729  18.167  0.00  0.00    +0.000 A 
ATOM     16  S   UNL     1       4.222   6.260  18.265  0.00  0.00    +0.000 S 
ENDROOT
BRANCH   1  18
ATOM     17  C   UNL     1       0.795  11.888  19.397  0.00  0.00    +0.000 C 
ATOM     18  C   UNL     1       0.017  10.577  19.253  0.00  0.00    +0.000 C 
BRANCH  18  19
ATOM     19  C   UNL     1      -1.121  10.727  18.245  0.00  0.00    +0.000 C 
ATOM     20  O   UNL     1      -1.962   9.872  18.007  0.00  0.00    +0.000 OA
BRANCH  19  21
ATOM     21  O   UNL     1      -1.102  11.906  17.575  0.00  0.00    +0.000 OA
ATOM     22  H   UNL     1      -1.960  12.135  17.168  0.00  0.00    +0.000 HD
ENDBRANCH  19  21
ENDBRANCH  18  19
ENDBRANCH   1  18
TORSDOF 3
ENDMDL
MODEL 3
REMARK VINA RESULT:      -6.6      4.245      6.885
REMARK  Name = 
REMARK  4 active torsions:
REMARK  status: ('A' for Active; 'I' for Inactive)
REMARK    1  A    between atoms: C_1  and  C_2
REMARK    2  A    between atoms: C_2  and  C_3
REMARK    3  A    between atoms: C_2  and  C_6
REMARK    4  A    between atoms: C_3  and  O_5
REMARK                            x       y       z     vdW  Elec       q    Type
REMARK                         _______ _______ _______ _____ _____    ______ ____
ROOT
ATOM      1  C   UNL     1       1.161   9.386  18.970  0.00  0.00    +0.000 A 
ATOM      2  C   UNL     1       1.957   9.372  17.817  0.00  0.00    +0.000 A 
ATOM      3  C   UNL     1       2.873   8.341  17.601  0.00  0.00    +0.000 A 
ATOM      4  C   UNL     1       3.022   7.317  18.539  0.00  0.00    +0.000 A 
ATOM      5  C   UNL     1       2.238   7.311  19.698  0.00  0.00    +0.000 A 
ATOM      6  C   UNL     1       1.304   8.341  19.900  0.00  0.00    +0.000 A 
ATOM      7  C   UNL     1       2.395   6.208  20.711  0.00  0.00    +0.000 C 
ATOM      8  C   UNL     1       1.773   4.907  20.257  0.00  0.00    +0.000 C 
ATOM      9  O   UNL     1       0.820   4.442  20.885  0.00  0.00    +0.000 OA
ATOM     10  C   UNL     1       2.297   4.157  19.064  0.00  0.00    +0.000 A 
ATOM     11  C   UNL     1       1.691   2.902  18.832  0.00  0.00    +0.000 A 
ATOM     12  C   UNL     1       2.060   2.097  17.754  0.00  0.00    +0.000 A 
ATOM     13  C   UNL     1       3.041   2.533  16.877  0.00  0.00    +0.000 A 
ATOM     14  C   UNL     1       3.658   3.764  17.093  0.00  0.00    +0.000 A 
ATOM     15  C   UNL     1       3.306   4.589  18.182  0.00  0.00    +0.000 A 
ATOM     16  S   UNL     1       4.274   6.086  18.281  0.00  0.00    +0.000 S 
ENDROOT
BRANCH   1  18
ATOM     17  C   UNL     1      -1.180  10.210  18.781  0.00  0.00    +0.000 C 
ATOM     18  C   UNL     1       0.227  10.547  19.283  0.00  0.00    +0.000 C 
BRANCH  18  19
ATOM     19  C   UNL     1       0.196  10.958  20.754  0.00  0.00    +0.000 C 
ATOM     20  O   UNL     1      -0.728  10.736  21.524  0.00  0.00    +0.000 OA
BRANCH  19  21
ATOM     21  O   UNL     1       1.290  11.654  21.148  0.00  0.00    +0.000 OA
ATOM     22  H   UNL     1       2.120  11.141  21.090  0.00  0.00    +0.000 HD
ENDBRANCH  19  21
ENDBRANCH  18  19
ENDBRANCH   1  18
TORSDOF 3
ENDMDL
MODEL 4
REMARK VINA RESULT:      -6.6      2.013      2.543
REMARK  Name = 
REMARK  4 active torsions:
REMARK  status: ('A' for Active; 'I' for Inactive)
REMARK    1  A    between atoms: C_1  and  C_2
REMARK    2  A    between atoms: C_2  and  C_3
REMARK    3  A    between atoms: C_2  and  C_6
REMARK    4  A    between atoms: C_3  and  O_5
REMARK                            x       y       z     vdW  Elec       q    Type
REMARK                         _______ _______ _______ _____ _____    ______ ____
ROOT
ATOM      1  C   UNL     1       5.783   4.573  14.428  0.00  0.00    +0.000 A 
ATOM      2  C   UNL     1       5.970   3.393  15.161  0.00  0.00    +0.000 A 
ATOM      3  C   UNL     1       5.888   3.405  16.554  0.00  0.00    +0.000 A 
ATOM      4  C   UNL     1       5.634   4.595  17.240  0.00  0.00    +0.000 A 
ATOM      5  C   UNL     1       5.445   5.784  16.528  0.00  0.00    +0.000 A 
ATOM      6  C   UNL     1       5.510   5.763  15.125  0.00  0.00    +0.000 A 
ATOM      7  C   UNL     1       5.171   7.070  17.264  0.00  0.00    +0.000 C 
ATOM      8  C   UNL     1       3.762   7.142  17.805  0.00  0.00    +0.000 C 
ATOM      9  O   UNL     1       2.993   8.004  17.373  0.00  0.00    +0.000 OA
ATOM     10  C   UNL     1       3.274   6.197  18.868  0.00  0.00    +0.000 A 
ATOM     11  C   UNL     1       1.975   6.461  19.355  0.00  0.00    +0.000 A 
ATOM     12  C   UNL     1       1.381   5.662  20.332  0.00  0.00    +0.000 A 
ATOM     13  C   UNL     1       2.072   4.572  20.840  0.00  0.00    +0.000 A 
ATOM     14  C   UNL     1       3.360   4.300  20.380  0.00  0.00    +0.000 A 
ATOM     15  C   UNL     1       3.981   5.101  19.399  0.00  0.00    +0.000 A 
ATOM     16  S   UNL     1       5.648   4.587  19.014  0.00  0.00    +0.000 S 
ENDROOT
BRANCH   1  18
ATOM     17  C   UNL     1       7.438   4.891  12.596  0.00  0.00    +0.000 C 
ATOM     18  C   UNL     1       5.966   4.613  12.917  0.00  0.00    +0.000 C 
BRANCH  18  19
ATOM     19  C   UNL     1       5.475   3.367  12.184  0.00  0.00    +0.000 C 
ATOM     20  O   UNL     1       4.324   3.179  11.815  0.00  0.00    +0.000 OA
BRANCH  19  21
ATOM     21  O   UNL     1       6.435   2.427  12.004  0.00  0.00    +0.000 OA
ATOM     22  H   UNL     1       6.243   1.808  11.273  0.00  0.00    +0.000 HD
ENDBRANCH  19  21
ENDBRANCH  18  19
ENDBRANCH   1  18
TORSDOF 3
ENDMDL
MODEL 5
REMARK VINA RESULT:      -6.6      4.253      6.601
REMARK  Name = 
REMARK  4 active torsions:
REMARK  status: ('A' for Active; 'I' for Inactive)
REMARK    1  A    between atoms: C_1  and  C_2
REMARK    2  A    between atoms: C_2  and  C_3
REMARK    3  A    between atoms: C_2  and  C_6
REMARK    4  A    between atoms: C_3  and  O_5
REMARK                            x       y       z     vdW  Elec       q    Type
REMARK                         _______ _______ _______ _____ _____    ______ ____
ROOT
ATOM      1  C   UNL     1       1.145   9.253  18.915  0.00  0.00    +0.000 A 
ATOM      2  C   UNL     1       2.025   9.239  17.825  0.00  0.00    +0.000 A 
ATOM      3  C   UNL     1       2.964   8.217  17.686  0.00  0.00    +0.000 A 
ATOM      4  C   UNL     1       3.052   7.200  18.641  0.00  0.00    +0.000 A 
ATOM      5  C   UNL     1       2.184   7.194  19.737  0.00  0.00    +0.000 A 
ATOM      6  C   UNL     1       1.228   8.216  19.861  0.00  0.00    +0.000 A 
ATOM      7  C   UNL     1       2.275   6.099  20.767  0.00  0.00    +0.000 C 
ATOM      8  C   UNL     1       1.702   4.789  20.278  0.00  0.00    +0.000 C 
ATOM      9  O   UNL     1       0.709   4.318  20.836  0.00  0.00    +0.000 OA
ATOM     10  C   UNL     1       2.321   4.036  19.132  0.00  0.00    +0.000 A 
ATOM     11  C   UNL     1       1.746   2.774  18.865  0.00  0.00    +0.000 A 
ATOM     12  C   UNL     1       2.203   1.965  17.824  0.00  0.00    +0.000 A 
ATOM     13  C   UNL     1       3.243   2.406  17.019  0.00  0.00    +0.000 A 
ATOM     14  C   UNL     1       3.830   3.644  17.273  0.00  0.00    +0.000 A 
ATOM     15  C   UNL     1       3.389   4.473  18.325  0.00  0.00    +0.000 A 
ATOM     16  S   UNL     1       4.333   5.981  18.486  0.00  0.00    +0.000 S 
ENDROOT
BRANCH   1  18
ATOM     17  C   UNL     1      -0.433  10.275  20.547  0.00  0.00    +0.000 C 
ATOM     18  C   UNL     1       0.178  10.407  19.149  0.00  0.00    +0.000 C 
BRANCH  18  19
ATOM     19  C   UNL     1       0.785  11.794  18.949  0.00  0.00    +0.000 C 
ATOM     20  O   UNL     1       1.712  12.253  19.602  0.00  0.00    +0.000 OA
BRANCH  19  21
ATOM     21  O   UNL     1       0.169  12.525  17.988  0.00  0.00    +0.000 OA
ATOM     22  H   UNL     1       0.095  12.059  17.132  0.00  0.00    +0.000 HD
ENDBRANCH  19  21
ENDBRANCH  18  19
ENDBRANCH   1  18
TORSDOF 3
ENDMDL
MODEL 6
REMARK VINA RESULT:      -6.5      9.348     11.778
REMARK  Name = 
REMARK  4 active torsions:
REMARK  status: ('A' for Active; 'I' for Inactive)
REMARK    1  A    between atoms: C_1  and  C_2
REMARK    2  A    between atoms: C_2  and  C_3
REMARK    3  A    between atoms: C_2  and  C_6
REMARK    4  A    between atoms: C_3  and  O_5
REMARK                            x       y       z     vdW  Elec       q    Type
REMARK                         _______ _______ _______ _____ _____    ______ ____
ROOT
ATOM      1  C   UNL     1      -4.855  11.551  18.222  0.00  0.00    +0.000 A 
ATOM      2  C   UNL     1      -3.893  10.933  17.412  0.00  0.00    +0.000 A 
ATOM      3  C   UNL     1      -2.542  10.976  17.760  0.00  0.00    +0.000 A 
ATOM      4  C   UNL     1      -2.127  11.649  18.912  0.00  0.00    +0.000 A 
ATOM      5  C   UNL     1      -3.070  12.273  19.734  0.00  0.00    +0.000 A 
ATOM      6  C   UNL     1      -4.431  12.210  19.390  0.00  0.00    +0.000 A 
ATOM      7  C   UNL     1      -2.627  12.998  20.977  0.00  0.00    +0.000 C 
ATOM      8  C   UNL     1      -2.241  12.057  22.095  0.00  0.00    +0.000 C 
ATOM      9  O   UNL     1      -2.900  12.054  23.137  0.00  0.00    +0.000 OA
ATOM     10  C   UNL     1      -1.062  11.130  21.975  0.00  0.00    +0.000 A 
ATOM     11  C   UNL     1      -0.757  10.396  23.142  0.00  0.00    +0.000 A 
ATOM     12  C   UNL     1       0.299   9.485  23.180  0.00  0.00    +0.000 A 
ATOM     13  C   UNL     1       1.070   9.281  22.046  0.00  0.00    +0.000 A 
ATOM     14  C   UNL     1       0.790  10.003  20.887  0.00  0.00    +0.000 A 
ATOM     15  C   UNL     1      -0.266  10.935  20.830  0.00  0.00    +0.000 A 
ATOM     16  S   UNL     1      -0.391  11.774  19.258  0.00  0.00    +0.000 S 
ENDROOT
BRANCH   1  18
ATOM     17  C   UNL     1      -7.150  10.785  18.809  0.00  0.00    +0.000 C 
ATOM     18  C   UNL     1      -6.323  11.610  17.819  0.00  0.00    +0.000 C 
BRANCH  18  19
ATOM     19  C   UNL     1      -6.888  13.022  17.681  0.00  0.00    +0.000 C 
ATOM     20  O   UNL     1      -7.904  13.426  18.229  0.00  0.00    +0.000 OA
BRANCH  19  21
ATOM     21  O   UNL     1      -6.178  13.813  16.839  0.00  0.00    +0.000 OA
ATOM     22  H   UNL     1      -5.348  14.151  17.229  0.00  0.00    +0.000 HD
ENDBRANCH  19  21
ENDBRANCH  18  19
ENDBRANCH   1  18
TORSDOF 3
ENDMDL
MODEL 7
REMARK VINA RESULT:      -6.5      3.935      5.938
REMARK  Name = 
REMARK  4 active torsions:
REMARK  status: ('A' for Active; 'I' for Inactive)
REMARK    1  A    between atoms: C_1  and  C_2
REMARK    2  A    between atoms: C_2  and  C_3
REMARK    3  A    between atoms: C_2  and  C_6
REMARK    4  A    between atoms: C_3  and  O_5
REMARK                            x       y       z     vdW  Elec       q    Type
REMARK                         _______ _______ _______ _____ _____    ______ ____
ROOT
ATOM      1  C   UNL     1       2.200   3.830  19.089  0.00  0.00    +0.000 A 
ATOM      2  C   UNL     1       1.392   3.924  20.231  0.00  0.00    +0.000 A 
ATOM      3  C   UNL     1       1.213   5.149  20.872  0.00  0.00    +0.000 A 
ATOM      4  C   UNL     1       1.849   6.299  20.397  0.00  0.00    +0.000 A 
ATOM      5  C   UNL     1       2.661   6.228  19.260  0.00  0.00    +0.000 A 
ATOM      6  C   UNL     1       2.822   4.995  18.607  0.00  0.00    +0.000 A 
ATOM      7  C   UNL     1       3.347   7.465  18.744  0.00  0.00    +0.000 C 
ATOM      8  C   UNL     1       2.400   8.406  18.037  0.00  0.00    +0.000 C 
ATOM      9  O   UNL     1       2.554   8.628  16.834  0.00  0.00    +0.000 OA
ATOM     10  C   UNL     1       1.278   9.092  18.768  0.00  0.00    +0.000 A 
ATOM     11  C   UNL     1       0.550  10.029  18.002  0.00  0.00    +0.000 A 
ATOM     12  C   UNL     1      -0.530  10.734  18.537  0.00  0.00    +0.000 A 
ATOM     13  C   UNL     1      -0.910  10.510  19.852  0.00  0.00    +0.000 A 
ATOM     14  C   UNL     1      -0.198   9.597  20.627  0.00  0.00    +0.000 A 
ATOM     15  C   UNL     1       0.901   8.881  20.108  0.00  0.00    +0.000 A 
ATOM     16  S   UNL     1       1.684   7.814  21.307  0.00  0.00    +0.000 S 
ENDROOT
BRANCH   1  18
ATOM     17  C   UNL     1       2.673   2.705  16.920  0.00  0.00    +0.000 C 
ATOM     18  C   UNL     1       2.497   2.491  18.426  0.00  0.00    +0.000 C 
BRANCH  18  19
ATOM     19  C   UNL     1       3.692   1.743  19.013  0.00  0.00    +0.000 C 
ATOM     20  O   UNL     1       4.331   2.103  19.992  0.00  0.00    +0.000 OA
BRANCH  19  21
ATOM     21  O   UNL     1       4.034   0.631  18.317  0.00  0.00    +0.000 OA
ATOM     22  H   UNL     1       4.713   0.088  18.760  0.00  0.00    +0.000 HD
ENDBRANCH  19  21
ENDBRANCH  18  19
ENDBRANCH   1  18
TORSDOF 3
ENDMDL
MODEL 8
REMARK VINA RESULT:      -6.5      9.185     11.895
REMARK  Name = 
REMARK  4 active torsions:
REMARK  status: ('A' for Active; 'I' for Inactive)
REMARK    1  A    between atoms: C_1  and  C_2
REMARK    2  A    between atoms: C_2  and  C_3
REMARK    3  A    between atoms: C_2  and  C_6
REMARK    4  A    between atoms: C_3  and  O_5
REMARK                            x       y       z     vdW  Elec       q    Type
REMARK                         _______ _______ _______ _____ _____    ______ ____
ROOT
ATOM      1  C   UNL     1      -5.007  12.158  18.959  0.00  0.00    +0.000 A 
ATOM      2  C   UNL     1      -4.358  11.553  17.874  0.00  0.00    +0.000 A 
ATOM      3  C   UNL     1      -2.972  11.399  17.875  0.00  0.00    +0.000 A 
ATOM      4  C   UNL     1      -2.207  11.862  18.949  0.00  0.00    +0.000 A 
ATOM      5  C   UNL     1      -2.834  12.469  20.042  0.00  0.00    +0.000 A 
ATOM      6  C   UNL     1      -4.233  12.604  20.044  0.00  0.00    +0.000 A 
ATOM      7  C   UNL     1      -2.014  12.968  21.202  0.00  0.00    +0.000 C 
ATOM      8  C   UNL     1      -1.512  11.849  22.085  0.00  0.00    +0.000 C 
ATOM      9  O   UNL     1      -1.901  11.779  23.253  0.00  0.00    +0.000 OA
ATOM     10  C   UNL     1      -0.536  10.822  21.579  0.00  0.00    +0.000 A 
ATOM     11  C   UNL     1      -0.070   9.909  22.550  0.00  0.00    +0.000 A 
ATOM     12  C   UNL     1       0.827   8.890  22.228  0.00  0.00    +0.000 A 
ATOM     13  C   UNL     1       1.274   8.757  20.922  0.00  0.00    +0.000 A 
ATOM     14  C   UNL     1       0.833   9.654  19.951  0.00  0.00    +0.000 A 
ATOM     15  C   UNL     1      -0.067  10.696  20.257  0.00  0.00    +0.000 A 
ATOM     16  S   UNL     1      -0.439  11.747  18.862  0.00  0.00    +0.000 S 
ENDROOT
BRANCH   1  18
ATOM     17  C   UNL     1      -6.993  12.480  17.493  0.00  0.00    +0.000 C 
ATOM     18  C   UNL     1      -6.506  12.432  18.943  0.00  0.00    +0.000 C 
BRANCH  18  19
ATOM     19  C   UNL     1      -7.339  11.450  19.765  0.00  0.00    +0.000 C 
ATOM     20  O   UNL     1      -7.844  11.698  20.851  0.00  0.00    +0.000 OA
BRANCH  19  21
ATOM     21  O   UNL     1      -7.444  10.221  19.202  0.00  0.00    +0.000 OA
ATOM     22  H   UNL     1      -7.189   9.495  19.803  0.00  0.00    +0.000 HD
ENDBRANCH  19  21
ENDBRANCH  18  19
ENDBRANCH   1  18
TORSDOF 3
ENDMDL
MODEL 9
REMARK VINA RESULT:      -6.4      1.312      1.649
REMARK  Name = 
REMARK  4 active torsions:
REMARK  status: ('A' for Active; 'I' for Inactive)
REMARK    1  A    between atoms: C_1  and  C_2
REMARK    2  A    between atoms: C_2  and  C_3
REMARK    3  A    between atoms: C_2  and  C_6
REMARK    4  A    between atoms: C_3  and  O_5
REMARK                            x       y       z     vdW  Elec       q    Type
REMARK                         _______ _______ _______ _____ _____    ______ ____
ROOT
ATOM      1  C   UNL     1       6.016   4.771  14.868  0.00  0.00    +0.000 A 
ATOM      2  C   UNL     1       6.839   4.017  15.715  0.00  0.00    +0.000 A 
ATOM      3  C   UNL     1       6.641   4.035  17.096  0.00  0.00    +0.000 A 
ATOM      4  C   UNL     1       5.629   4.818  17.657  0.00  0.00    +0.000 A 
ATOM      5  C   UNL     1       4.796   5.580  16.830  0.00  0.00    +0.000 A 
ATOM      6  C   UNL     1       4.988   5.542  15.440  0.00  0.00    +0.000 A 
ATOM      7  C   UNL     1       3.703   6.424  17.431  0.00  0.00    +0.000 C 
ATOM      8  C   UNL     1       2.524   5.604  17.902  0.00  0.00    +0.000 C 
ATOM      9  O   UNL     1       1.428   5.756  17.359  0.00  0.00    +0.000 OA
ATOM     10  C   UNL     1       2.651   4.614  19.027  0.00  0.00    +0.000 A 
ATOM     11  C   UNL     1       1.441   4.009  19.431  0.00  0.00    +0.000 A 
ATOM     12  C   UNL     1       1.400   3.058  20.451  0.00  0.00    +0.000 A 
ATOM     13  C   UNL     1       2.574   2.685  21.088  0.00  0.00    +0.000 A 
ATOM     14  C   UNL     1       3.778   3.278  20.710  0.00  0.00    +0.000 A 
ATOM     15  C   UNL     1       3.839   4.247  19.687  0.00  0.00    +0.000 A 
ATOM     16  S   UNL     1       5.481   4.900  19.423  0.00  0.00    +0.000 S 
ENDROOT
BRANCH   1  18
ATOM     17  C   UNL     1       7.764   5.087  13.125  0.00  0.00    +0.000 C 
ATOM     18  C   UNL     1       6.271   4.853  13.369  0.00  0.00    +0.000 C 
BRANCH  18  19
ATOM     19  C   UNL     1       5.772   3.648  12.574  0.00  0.00    +0.000 C 
ATOM     20  O   UNL     1       4.625   3.496  12.178  0.00  0.00    +0.000 OA
BRANCH  19  21
ATOM     21  O   UNL     1       6.720   2.700  12.369  0.00  0.00    +0.000 OA
ATOM     22  H   UNL     1       7.369   2.636  13.096  0.00  0.00    +0.000 HD
ENDBRANCH  19  21
ENDBRANCH  18  19
ENDBRANCH   1  18
TORSDOF 3
ENDMDL
