MODEL 1
REMARK VINA RESULT:      -8.2      0.000      0.000
REMARK  Name = 
REMARK  7 active torsions:
REMARK  status: ('A' for Active; 'I' for Inactive)
REMARK    1  A    between atoms: C_2  and  C_4
REMARK    2  A    between atoms: N_12  and  C_13
REMARK    3  A    between atoms: C_13  and  C_14
REMARK    4  A    between atoms: C_14  and  C_15
REMARK    5  A    between atoms: C_15  and  N_16
REMARK    6  A    between atoms: C_19  and  C_20
REMARK    7  A    between atoms: C_20  and  C_21
REMARK                            x       y       z     vdW  Elec       q    Type
REMARK                         _______ _______ _______ _____ _____    ______ ____
ROOT
ATOM      1  C   UNL     1       7.539   9.394  17.751  0.00  0.00    +0.000 C 
ENDROOT
BRANCH   1  10
ATOM      2  C   UNL     1      10.198  13.607  18.474  0.00  0.00    +0.000 A 
ATOM      3  C   UNL     1      11.328  13.878  19.271  0.00  0.00    +0.000 A 
ATOM      4  C   UNL     1      11.900  12.893  20.096  0.00  0.00    +0.000 A 
ATOM      5  C   UNL     1      11.367  11.605  20.134  0.00  0.00    +0.000 A 
ATOM      6  C   UNL     1      10.267  11.328  19.337  0.00  0.00    +0.000 A 
ATOM      7  C   UNL     1       9.688  12.318  18.525  0.00  0.00    +0.000 A 
ATOM      8  C   UNL     1       8.564  11.679  17.817  0.00  0.00    +0.000 C 
ATOM      9  O   UNL     1       7.774  12.240  17.082  0.00  0.00    +0.000 OA
ATOM     10  N   UNL     1       8.558  10.343  18.174  0.00  0.00    +0.000 N 
ATOM     11  C   UNL     1       9.546  10.029  19.183  0.00  0.00    +0.000 C 
BRANCH   2  13
ATOM     12  N   UNL     1       8.360  15.031  17.677  0.00  0.00    +0.000 N 
ATOM     13  C   UNL     1       9.688  14.730  17.644  0.00  0.00    +0.000 C 
ATOM     14  O   UNL     1      10.457  15.404  16.968  0.00  0.00    +0.000 OA
ATOM     15  H   UNL     1       8.039  15.708  16.999  0.00  0.00    +0.000 HD
ATOM     16  H   UNL     1       7.668  14.344  17.971  0.00  0.00    +0.000 HD
ENDBRANCH   2  13
ENDBRANCH   1  10
BRANCH   1  17
ATOM     17  C   UNL     1       8.144   8.034  17.411  0.00  0.00    +0.000 C 
BRANCH  17  18
ATOM     18  C   UNL     1       7.389   6.859  18.046  0.00  0.00    +0.000 C 
BRANCH  18  19
ATOM     19  N   UNL     1       6.236   6.343  17.279  0.00  0.00    +0.000 NA
ATOM     20  C   UNL     1       6.523   5.036  16.669  0.00  0.00    +0.000 C 
ATOM     21  C   UNL     1       5.309   4.471  15.932  0.00  0.00    +0.000 C 
ATOM     22  C   UNL     1       4.099   4.311  16.857  0.00  0.00    +0.000 C 
ATOM     23  C   UNL     1       3.816   5.688  17.484  0.00  0.00    +0.000 C 
ATOM     24  C   UNL     1       5.054   6.288  18.163  0.00  0.00    +0.000 C 
BRANCH  22  25
ATOM     25  C   UNL     1       4.288   3.234  17.951  0.00  0.00    +0.000 C 
BRANCH  25  26
ATOM     26  C   UNL     1       3.175   3.135  18.970  0.00  0.00    +0.000 A 
ATOM     27  C   UNL     1       1.843   3.013  18.547  0.00  0.00    +0.000 A 
ATOM     28  C   UNL     1       0.810   2.880  19.475  0.00  0.00    +0.000 A 
ATOM     29  C   UNL     1       1.096   2.862  20.838  0.00  0.00    +0.000 A 
ATOM     30  C   UNL     1       2.415   2.983  21.271  0.00  0.00    +0.000 A 
ATOM     31  C   UNL     1       3.450   3.117  20.343  0.00  0.00    +0.000 A 
ENDBRANCH  25  26
ENDBRANCH  22  25
ENDBRANCH  18  19
ENDBRANCH  17  18
ENDBRANCH   1  17
TORSDOF 7
ENDMDL
MODEL 2
REMARK VINA RESULT:      -8.0      6.347      8.271
REMARK  Name = 
REMARK  7 active torsions:
REMARK  status: ('A' for Active; 'I' for Inactive)
REMARK    1  A    between atoms: C_2  and  C_4
REMARK    2  A    between atoms: N_12  and  C_13
REMARK    3  A    between atoms: C_13  and  C_14
REMARK    4  A    between atoms: C_14  and  C_15
REMARK    5  A    between atoms: C_15  and  N_16
REMARK    6  A    between atoms: C_19  and  C_20
REMARK    7  A    between atoms: C_20  and  C_21
REMARK                            x       y       z     vdW  Elec       q    Type
REMARK                         _______ _______ _______ _____ _____    ______ ____
ROOT
ATOM      1  C   UNL     1       2.042   7.394  19.991  0.00  0.00    +0.000 C 
ENDROOT
BRANCH   1  10
ATOM      2  C   UNL     1      -0.803  11.525  20.411  0.00  0.00    +0.000 A 
ATOM      3  C   UNL     1      -1.440  12.117  21.520  0.00  0.00    +0.000 A 
ATOM      4  C   UNL     1      -1.385  11.533  22.798  0.00  0.00    +0.000 A 
ATOM      5  C   UNL     1      -0.678  10.348  23.005  0.00  0.00    +0.000 A 
ATOM      6  C   UNL     1      -0.033   9.773  21.921  0.00  0.00    +0.000 A 
ATOM      7  C   UNL     1      -0.103  10.350  20.642  0.00  0.00    +0.000 A 
ATOM      8  C   UNL     1       0.696   9.493  19.748  0.00  0.00    +0.000 C 
ATOM      9  O   UNL     1       0.809   9.627  18.544  0.00  0.00    +0.000 OA
ATOM     10  N   UNL     1       1.256   8.495  20.525  0.00  0.00    +0.000 N 
ATOM     11  C   UNL     1       0.803   8.536  21.899  0.00  0.00    +0.000 C 
BRANCH   2  13
ATOM     12  N   UNL     1      -2.133  12.241  18.473  0.00  0.00    +0.000 N 
ATOM     13  C   UNL     1      -0.932  12.240  19.114  0.00  0.00    +0.000 C 
ATOM     14  O   UNL     1       0.019  12.855  18.644  0.00  0.00    +0.000 OA
ATOM     15  H   UNL     1      -2.139  12.620  17.536  0.00  0.00    +0.000 HD
ATOM     16  H   UNL     1      -2.835  11.526  18.659  0.00  0.00    +0.000 HD
ENDBRANCH   2  13
ENDBRANCH   1  10
BRANCH   1  17
ATOM     17  C   UNL     1       1.896   6.134  20.841  0.00  0.00    +0.000 C 
BRANCH  17  18
ATOM     18  C   UNL     1       0.892   5.128  20.266  0.00  0.00    +0.000 C 
BRANCH  18  19
ATOM     19  N   UNL     1       1.472   3.973  19.551  0.00  0.00    +0.000 NA
ATOM     20  C   UNL     1       1.862   4.319  18.175  0.00  0.00    +0.000 C 
ATOM     21  C   UNL     1       2.523   3.143  17.456  0.00  0.00    +0.000 C 
ATOM     22  C   UNL     1       3.769   2.645  18.195  0.00  0.00    +0.000 C 
ATOM     23  C   UNL     1       3.340   2.290  19.630  0.00  0.00    +0.000 C 
ATOM     24  C   UNL     1       2.613   3.446  20.328  0.00  0.00    +0.000 C 
BRANCH  22  25
ATOM     25  C   UNL     1       4.936   3.661  18.203  0.00  0.00    +0.000 C 
BRANCH  25  26
ATOM     26  C   UNL     1       5.295   4.254  16.859  0.00  0.00    +0.000 A 
ATOM     27  C   UNL     1       5.834   3.439  15.852  0.00  0.00    +0.000 A 
ATOM     28  C   UNL     1       6.133   3.965  14.594  0.00  0.00    +0.000 A 
ATOM     29  C   UNL     1       5.894   5.310  14.326  0.00  0.00    +0.000 A 
ATOM     30  C   UNL     1       5.360   6.130  15.318  0.00  0.00    +0.000 A 
ATOM     31  C   UNL     1       5.060   5.605  16.578  0.00  0.00    +0.000 A 
ENDBRANCH  25  26
ENDBRANCH  22  25
ENDBRANCH  18  19
ENDBRANCH  17  18
ENDBRANCH   1  17
TORSDOF 7
ENDMDL
MODEL 3
REMARK VINA RESULT:      -7.9      5.823      7.472
REMARK  Name = 
REMARK  7 active torsions:
REMARK  status: ('A' for Active; 'I' for Inactive)
REMARK    1  A    between atoms: C_2  and  C_4
REMARK    2  A    between atoms: N_12  and  C_13
REMARK    3  A    between atoms: C_13  and  C_14
REMARK    4  A    between atoms: C_14  and  C_15
REMARK    5  A    between atoms: C_15  and  N_16
REMARK    6  A    between atoms: C_19  and  C_20
REMARK    7  A    between atoms: C_20  and  C_21
REMARK                            x       y       z     vdW  Elec       q    Type
REMARK                         _______ _______ _______ _____ _____    ______ ____
ROOT
ATOM      1  C   UNL     1       1.916   9.267  17.899  0.00  0.00    +0.000 C 
ENDROOT
BRANCH   1  10
ATOM      2  C   UNL     1      -0.882  11.664  21.329  0.00  0.00    +0.000 A 
ATOM      3  C   UNL     1      -1.195  11.354  22.667  0.00  0.00    +0.000 A 
ATOM      4  C   UNL     1      -0.740  10.171  23.274  0.00  0.00    +0.000 A 
ATOM      5  C   UNL     1       0.054   9.271  22.563  0.00  0.00    +0.000 A 
ATOM      6  C   UNL     1       0.381   9.581  21.252  0.00  0.00    +0.000 A 
ATOM      7  C   UNL     1      -0.088  10.758  20.643  0.00  0.00    +0.000 A 
ATOM      8  C   UNL     1       0.456  10.769  19.273  0.00  0.00    +0.000 C 
ATOM      9  O   UNL     1       0.205  11.592  18.413  0.00  0.00    +0.000 OA
ATOM     10  N   UNL     1       1.267   9.657  19.142  0.00  0.00    +0.000 N 
ATOM     11  C   UNL     1       1.235   8.800  20.307  0.00  0.00    +0.000 C 
BRANCH   2  13
ATOM     12  N   UNL     1      -0.553  13.916  20.399  0.00  0.00    +0.000 N 
ATOM     13  C   UNL     1      -1.421  12.946  20.802  0.00  0.00    +0.000 C 
ATOM     14  O   UNL     1      -2.630  13.116  20.693  0.00  0.00    +0.000 OA
ATOM     15  H   UNL     1      -0.960  14.814  20.178  0.00  0.00    +0.000 HD
ATOM     16  H   UNL     1       0.407  13.942  20.737  0.00  0.00    +0.000 HD
ENDBRANCH   2  13
ENDBRANCH   1  10
BRANCH   1  17
ATOM     17  C   UNL     1       2.543   7.879  18.005  0.00  0.00    +0.000 C 
BRANCH  17  18
ATOM     18  C   UNL     1       3.833   7.732  17.187  0.00  0.00    +0.000 C 
BRANCH  18  19
ATOM     19  N   UNL     1       4.742   6.646  17.605  0.00  0.00    +0.000 NA
ATOM     20  C   UNL     1       4.314   6.027  18.869  0.00  0.00    +0.000 C 
ATOM     21  C   UNL     1       5.216   4.860  19.268  0.00  0.00    +0.000 C 
ATOM     22  C   UNL     1       5.256   3.770  18.192  0.00  0.00    +0.000 C 
ATOM     23  C   UNL     1       5.706   4.438  16.880  0.00  0.00    +0.000 C 
ATOM     24  C   UNL     1       4.844   5.654  16.515  0.00  0.00    +0.000 C 
BRANCH  22  25
ATOM     25  C   UNL     1       3.910   3.032  18.002  0.00  0.00    +0.000 C 
BRANCH  25  26
ATOM     26  C   UNL     1       2.996   3.021  19.206  0.00  0.00    +0.000 A 
ATOM     27  C   UNL     1       1.667   3.457  19.085  0.00  0.00    +0.000 A 
ATOM     28  C   UNL     1       0.800   3.415  20.177  0.00  0.00    +0.000 A 
ATOM     29  C   UNL     1       1.249   2.933  21.404  0.00  0.00    +0.000 A 
ATOM     30  C   UNL     1       2.566   2.498  21.539  0.00  0.00    +0.000 A 
ATOM     31  C   UNL     1       3.435   2.540  20.446  0.00  0.00    +0.000 A 
ENDBRANCH  25  26
ENDBRANCH  22  25
ENDBRANCH  18  19
ENDBRANCH  17  18
ENDBRANCH   1  17
TORSDOF 7
ENDMDL
MODEL 4
REMARK VINA RESULT:      -7.9      5.684      8.360
REMARK  Name = 
REMARK  7 active torsions:
REMARK  status: ('A' for Active; 'I' for Inactive)
REMARK    1  A    between atoms: C_2  and  C_4
REMARK    2  A    between atoms: N_12  and  C_13
REMARK    3  A    between atoms: C_13  and  C_14
REMARK    4  A    between atoms: C_14  and  C_15
REMARK    5  A    between atoms: C_15  and  N_16
REMARK    6  A    between atoms: C_19  and  C_20
REMARK    7  A    between atoms: C_20  and  C_21
REMARK                            x       y       z     vdW  Elec       q    Type
REMARK                         _______ _______ _______ _____ _____    ______ ____
ROOT
ATOM      1  C   UNL     1       1.898   7.759  19.824  0.00  0.00    +0.000 C 
ENDROOT
BRANCH   1  10
ATOM      2  C   UNL     1      -1.201  11.669  20.493  0.00  0.00    +0.000 A 
ATOM      3  C   UNL     1      -1.793  12.210  21.651  0.00  0.00    +0.000 A 
ATOM      4  C   UNL     1      -1.598  11.628  22.917  0.00  0.00    +0.000 A 
ATOM      5  C   UNL     1      -0.793  10.498  23.060  0.00  0.00    +0.000 A 
ATOM      6  C   UNL     1      -0.192   9.975  21.926  0.00  0.00    +0.000 A 
ATOM      7  C   UNL     1      -0.401  10.548  20.660  0.00  0.00    +0.000 A 
ATOM      8  C   UNL     1       0.387   9.754  19.701  0.00  0.00    +0.000 C 
ATOM      9  O   UNL     1       0.398   9.899  18.494  0.00  0.00    +0.000 OA
ATOM     10  N   UNL     1       1.076   8.799  20.425  0.00  0.00    +0.000 N 
ATOM     11  C   UNL     1       0.728   8.802  21.830  0.00  0.00    +0.000 C 
BRANCH   2  13
ATOM     12  N   UNL     1      -2.656  12.139  18.568  0.00  0.00    +0.000 N 
ATOM     13  C   UNL     1      -1.481  12.375  19.215  0.00  0.00    +0.000 C 
ATOM     14  O   UNL     1      -0.683  13.191  18.766  0.00  0.00    +0.000 OA
ATOM     15  H   UNL     1      -2.743  12.534  17.642  0.00  0.00    +0.000 HD
ATOM     16  H   UNL     1      -3.190  11.287  18.732  0.00  0.00    +0.000 HD
ENDBRANCH   2  13
ENDBRANCH   1  10
BRANCH   1  17
ATOM     17  C   UNL     1       2.040   6.551  20.746  0.00  0.00    +0.000 C 
BRANCH  17  18
ATOM     18  C   UNL     1       1.190   5.351  20.308  0.00  0.00    +0.000 C 
BRANCH  18  19
ATOM     19  N   UNL     1       1.938   4.176  19.815  0.00  0.00    +0.000 NA
ATOM     20  C   UNL     1       1.440   3.715  18.510  0.00  0.00    +0.000 C 
ATOM     21  C   UNL     1       2.256   2.541  17.970  0.00  0.00    +0.000 C 
ATOM     22  C   UNL     1       3.739   2.893  17.818  0.00  0.00    +0.000 C 
ATOM     23  C   UNL     1       4.239   3.372  19.192  0.00  0.00    +0.000 C 
ATOM     24  C   UNL     1       3.378   4.503  19.769  0.00  0.00    +0.000 C 
BRANCH  22  25
ATOM     25  C   UNL     1       4.019   3.954  16.728  0.00  0.00    +0.000 C 
BRANCH  25  26
ATOM     26  C   UNL     1       5.216   4.845  16.975  0.00  0.00    +0.000 A 
ATOM     27  C   UNL     1       5.062   6.240  17.003  0.00  0.00    +0.000 A 
ATOM     28  C   UNL     1       6.150   7.072  17.270  0.00  0.00    +0.000 A 
ATOM     29  C   UNL     1       7.405   6.521  17.515  0.00  0.00    +0.000 A 
ATOM     30  C   UNL     1       7.572   5.138  17.489  0.00  0.00    +0.000 A 
ATOM     31  C   UNL     1       6.483   4.303  17.222  0.00  0.00    +0.000 A 
ENDBRANCH  25  26
ENDBRANCH  22  25
ENDBRANCH  18  19
ENDBRANCH  17  18
ENDBRANCH   1  17
TORSDOF 7
ENDMDL
MODEL 5
REMARK VINA RESULT:      -7.9      1.767      2.283
REMARK  Name = 
REMARK  7 active torsions:
REMARK  status: ('A' for Active; 'I' for Inactive)
REMARK    1  A    between atoms: C_2  and  C_4
REMARK    2  A    between atoms: N_12  and  C_13
REMARK    3  A    between atoms: C_13  and  C_14
REMARK    4  A    between atoms: C_14  and  C_15
REMARK    5  A    between atoms: C_15  and  N_16
REMARK    6  A    between atoms: C_19  and  C_20
REMARK    7  A    between atoms: C_20  and  C_21
REMARK                            x       y       z     vdW  Elec       q    Type
REMARK                         _______ _______ _______ _____ _____    ______ ____
ROOT
ATOM      1  C   UNL     1       8.951   9.691  19.018  0.00  0.00    +0.000 C 
ENDROOT
BRANCH   1  10
ATOM      2  C   UNL     1      10.310  14.519  19.450  0.00  0.00    +0.000 A 
ATOM      3  C   UNL     1      11.046  15.366  18.598  0.00  0.00    +0.000 A 
ATOM      4  C   UNL     1      11.594  14.899  17.390  0.00  0.00    +0.000 A 
ATOM      5  C   UNL     1      11.406  13.575  16.992  0.00  0.00    +0.000 A 
ATOM      6  C   UNL     1      10.666  12.743  17.818  0.00  0.00    +0.000 A 
ATOM      7  C   UNL     1      10.133  13.208  19.032  0.00  0.00    +0.000 A 
ATOM      8  C   UNL     1       9.406  12.076  19.635  0.00  0.00    +0.000 C 
ATOM      9  O   UNL     1       8.876  12.071  20.730  0.00  0.00    +0.000 OA
ATOM     10  N   UNL     1       9.474  11.021  18.744  0.00  0.00    +0.000 N 
ATOM     11  C   UNL     1      10.306  11.311  17.596  0.00  0.00    +0.000 C 
BRANCH   2  13
ATOM     12  N   UNL     1      10.245  14.694  21.900  0.00  0.00    +0.000 N 
ATOM     13  C   UNL     1       9.781  15.131  20.697  0.00  0.00    +0.000 C 
ATOM     14  O   UNL     1       8.966  16.046  20.645  0.00  0.00    +0.000 OA
ATOM     15  H   UNL     1       9.761  15.040  22.718  0.00  0.00    +0.000 HD
ATOM     16  H   UNL     1      10.672  13.774  22.002  0.00  0.00    +0.000 HD
ENDBRANCH   2  13
ENDBRANCH   1  10
BRANCH   1  17
ATOM     17  C   UNL     1       8.139   9.153  17.842  0.00  0.00    +0.000 C 
BRANCH  17  18
ATOM     18  C   UNL     1       7.916   7.637  17.904  0.00  0.00    +0.000 C 
BRANCH  18  19
ATOM     19  N   UNL     1       6.832   7.108  17.050  0.00  0.00    +0.000 NA
ATOM     20  C   UNL     1       7.182   5.806  16.462  0.00  0.00    +0.000 C 
ATOM     21  C   UNL     1       6.036   5.228  15.632  0.00  0.00    +0.000 C 
ATOM     22  C   UNL     1       4.759   5.051  16.460  0.00  0.00    +0.000 C 
ATOM     23  C   UNL     1       4.411   6.423  17.065  0.00  0.00    +0.000 C 
ATOM     24  C   UNL     1       5.585   7.037  17.839  0.00  0.00    +0.000 C 
BRANCH  22  25
ATOM     25  C   UNL     1       4.876   3.975  17.565  0.00  0.00    +0.000 C 
BRANCH  25  26
ATOM     26  C   UNL     1       3.578   3.574  18.228  0.00  0.00    +0.000 A 
ATOM     27  C   UNL     1       3.582   3.079  19.542  0.00  0.00    +0.000 A 
ATOM     28  C   UNL     1       2.388   2.744  20.181  0.00  0.00    +0.000 A 
ATOM     29  C   UNL     1       1.174   2.903  19.517  0.00  0.00    +0.000 A 
ATOM     30  C   UNL     1       1.156   3.393  18.213  0.00  0.00    +0.000 A 
ATOM     31  C   UNL     1       2.351   3.729  17.572  0.00  0.00    +0.000 A 
ENDBRANCH  25  26
ENDBRANCH  22  25
ENDBRANCH  18  19
ENDBRANCH  17  18
ENDBRANCH   1  17
TORSDOF 7
ENDMDL
MODEL 6
REMARK VINA RESULT:      -7.9      1.789      2.452
REMARK  Name = 
REMARK  7 active torsions:
REMARK  status: ('A' for Active; 'I' for Inactive)
REMARK    1  A    between atoms: C_2  and  C_4
REMARK    2  A    between atoms: N_12  and  C_13
REMARK    3  A    between atoms: C_13  and  C_14
REMARK    4  A    between atoms: C_14  and  C_15
REMARK    5  A    between atoms: C_15  and  N_16
REMARK    6  A    between atoms: C_19  and  C_20
REMARK    7  A    between atoms: C_20  and  C_21
REMARK                            x       y       z     vdW  Elec       q    Type
REMARK                         _______ _______ _______ _____ _____    ______ ____
ROOT
ATOM      1  C   UNL     1       8.945  10.181  19.508  0.00  0.00    +0.000 C 
ENDROOT
BRANCH   1  10
ATOM      2  C   UNL     1      10.083  15.032  18.795  0.00  0.00    +0.000 A 
ATOM      3  C   UNL     1      10.836  15.682  17.797  0.00  0.00    +0.000 A 
ATOM      4  C   UNL     1      11.476  14.963  16.772  0.00  0.00    +0.000 A 
ATOM      5  C   UNL     1      11.366  13.574  16.707  0.00  0.00    +0.000 A 
ATOM      6  C   UNL     1      10.609  12.932  17.675  0.00  0.00    +0.000 A 
ATOM      7  C   UNL     1       9.984  13.652  18.708  0.00  0.00    +0.000 A 
ATOM      8  C   UNL     1       9.267  12.665  19.535  0.00  0.00    +0.000 C 
ATOM      9  O   UNL     1       8.670  12.901  20.569  0.00  0.00    +0.000 OA
ATOM     10  N   UNL     1       9.431  11.429  18.939  0.00  0.00    +0.000 N 
ATOM     11  C   UNL     1      10.321  11.471  17.799  0.00  0.00    +0.000 C 
BRANCH   2  13
ATOM     12  N   UNL     1       8.095  15.970  19.895  0.00  0.00    +0.000 N 
ATOM     13  C   UNL     1       9.453  15.903  19.822  0.00  0.00    +0.000 C 
ATOM     14  O   UNL     1      10.146  16.523  20.623  0.00  0.00    +0.000 OA
ATOM     15  H   UNL     1       7.716  16.673  20.514  0.00  0.00    +0.000 HD
ATOM     16  H   UNL     1       7.508  15.726  19.099  0.00  0.00    +0.000 HD
ENDBRANCH   2  13
ENDBRANCH   1  10
BRANCH   1  17
ATOM     17  C   UNL     1       8.996   9.042  18.492  0.00  0.00    +0.000 C 
BRANCH  17  18
ATOM     18  C   UNL     1       7.649   8.781  17.807  0.00  0.00    +0.000 C 
BRANCH  18  19
ATOM     19  N   UNL     1       7.407   7.391  17.366  0.00  0.00    +0.000 NA
ATOM     20  C   UNL     1       7.778   6.415  18.402  0.00  0.00    +0.000 C 
ATOM     21  C   UNL     1       7.467   4.981  17.972  0.00  0.00    +0.000 C 
ATOM     22  C   UNL     1       5.983   4.789  17.644  0.00  0.00    +0.000 C 
ATOM     23  C   UNL     1       5.616   5.819  16.560  0.00  0.00    +0.000 C 
ATOM     24  C   UNL     1       5.994   7.251  16.961  0.00  0.00    +0.000 C 
BRANCH  22  25
ATOM     25  C   UNL     1       5.051   4.923  18.871  0.00  0.00    +0.000 C 
BRANCH  25  26
ATOM     26  C   UNL     1       3.743   4.169  18.784  0.00  0.00    +0.000 A 
ATOM     27  C   UNL     1       2.619   4.626  19.489  0.00  0.00    +0.000 A 
ATOM     28  C   UNL     1       1.395   3.963  19.386  0.00  0.00    +0.000 A 
ATOM     29  C   UNL     1       1.278   2.838  18.574  0.00  0.00    +0.000 A 
ATOM     30  C   UNL     1       2.387   2.374  17.869  0.00  0.00    +0.000 A 
ATOM     31  C   UNL     1       3.613   3.036  17.972  0.00  0.00    +0.000 A 
ENDBRANCH  25  26
ENDBRANCH  22  25
ENDBRANCH  18  19
ENDBRANCH  17  18
ENDBRANCH   1  17
TORSDOF 7
ENDMDL
MODEL 7
REMARK VINA RESULT:      -7.8      6.488      8.642
REMARK  Name = 
REMARK  7 active torsions:
REMARK  status: ('A' for Active; 'I' for Inactive)
REMARK    1  A    between atoms: C_2  and  C_4
REMARK    2  A    between atoms: N_12  and  C_13
REMARK    3  A    between atoms: C_13  and  C_14
REMARK    4  A    between atoms: C_14  and  C_15
REMARK    5  A    between atoms: C_15  and  N_16
REMARK    6  A    between atoms: C_19  and  C_20
REMARK    7  A    between atoms: C_20  and  C_21
REMARK                            x       y       z     vdW  Elec       q    Type
REMARK                         _______ _______ _______ _____ _____    ______ ____
ROOT
ATOM      1  C   UNL     1       2.029   7.972  18.896  0.00  0.00    +0.000 C 
ENDROOT
BRANCH   1  10
ATOM      2  C   UNL     1      -1.396  11.498  19.983  0.00  0.00    +0.000 A 
ATOM      3  C   UNL     1      -1.827  12.040  21.210  0.00  0.00    +0.000 A 
ATOM      4  C   UNL     1      -1.320  11.579  22.437  0.00  0.00    +0.000 A 
ATOM      5  C   UNL     1      -0.354  10.573  22.470  0.00  0.00    +0.000 A 
ATOM      6  C   UNL     1       0.088  10.050  21.265  0.00  0.00    +0.000 A 
ATOM      7  C   UNL     1      -0.433  10.502  20.040  0.00  0.00    +0.000 A 
ATOM      8  C   UNL     1       0.263   9.747  18.982  0.00  0.00    +0.000 C 
ATOM      9  O   UNL     1       0.026   9.807  17.791  0.00  0.00    +0.000 OA
ATOM     10  N   UNL     1       1.200   8.940  19.600  0.00  0.00    +0.000 N 
ATOM     11  C   UNL     1       1.126   8.999  21.043  0.00  0.00    +0.000 C 
BRANCH   2  13
ATOM     12  N   UNL     1      -1.209  12.713  17.855  0.00  0.00    +0.000 N 
ATOM     13  C   UNL     1      -2.005  12.072  18.754  0.00  0.00    +0.000 C 
ATOM     14  O   UNL     1      -3.203  11.935  18.531  0.00  0.00    +0.000 OA
ATOM     15  H   UNL     1      -1.684  13.202  17.108  0.00  0.00    +0.000 HD
ATOM     16  H   UNL     1      -0.307  13.100  18.126  0.00  0.00    +0.000 HD
ENDBRANCH   2  13
ENDBRANCH   1  10
BRANCH   1  17
ATOM     17  C   UNL     1       2.670   6.976  19.859  0.00  0.00    +0.000 C 
BRANCH  17  18
ATOM     18  C   UNL     1       2.292   5.519  19.564  0.00  0.00    +0.000 C 
BRANCH  18  19
ATOM     19  N   UNL     1       3.376   4.664  19.039  0.00  0.00    +0.000 NA
ATOM     20  C   UNL     1       2.913   3.804  17.938  0.00  0.00    +0.000 C 
ATOM     21  C   UNL     1       4.050   2.968  17.351  0.00  0.00    +0.000 C 
ATOM     22  C   UNL     1       5.194   3.841  16.826  0.00  0.00    +0.000 C 
ATOM     23  C   UNL     1       5.662   4.731  17.991  0.00  0.00    +0.000 C 
ATOM     24  C   UNL     1       4.510   5.518  18.628  0.00  0.00    +0.000 C 
BRANCH  22  25
ATOM     25  C   UNL     1       4.811   4.697  15.597  0.00  0.00    +0.000 C 
BRANCH  25  26
ATOM     26  C   UNL     1       5.638   4.462  14.352  0.00  0.00    +0.000 A 
ATOM     27  C   UNL     1       6.914   5.035  14.237  0.00  0.00    +0.000 A 
ATOM     28  C   UNL     1       7.705   4.793  13.113  0.00  0.00    +0.000 A 
ATOM     29  C   UNL     1       7.231   3.973  12.091  0.00  0.00    +0.000 A 
ATOM     30  C   UNL     1       5.966   3.398  12.194  0.00  0.00    +0.000 A 
ATOM     31  C   UNL     1       5.174   3.640  13.319  0.00  0.00    +0.000 A 
ENDBRANCH  25  26
ENDBRANCH  22  25
ENDBRANCH  18  19
ENDBRANCH  17  18
ENDBRANCH   1  17
TORSDOF 7
ENDMDL
MODEL 8
REMARK VINA RESULT:      -7.8      7.561     10.531
REMARK  Name = 
REMARK  7 active torsions:
REMARK  status: ('A' for Active; 'I' for Inactive)
REMARK    1  A    between atoms: C_2  and  C_4
REMARK    2  A    between atoms: N_12  and  C_13
REMARK    3  A    between atoms: C_13  and  C_14
REMARK    4  A    between atoms: C_14  and  C_15
REMARK    5  A    between atoms: C_15  and  N_16
REMARK    6  A    between atoms: C_19  and  C_20
REMARK    7  A    between atoms: C_20  and  C_21
REMARK                            x       y       z     vdW  Elec       q    Type
REMARK                         _______ _______ _______ _____ _____    ______ ____
ROOT
ATOM      1  C   UNL     1       1.874   8.199  19.117  0.00  0.00    +0.000 C 
ENDROOT
BRANCH   1  10
ATOM      2  C   UNL     1       4.029   3.929  17.546  0.00  0.00    +0.000 A 
ATOM      3  C   UNL     1       5.034   3.682  16.590  0.00  0.00    +0.000 A 
ATOM      4  C   UNL     1       5.602   4.723  15.834  0.00  0.00    +0.000 A 
ATOM      5  C   UNL     1       5.191   6.042  16.025  0.00  0.00    +0.000 A 
ATOM      6  C   UNL     1       4.217   6.293  16.979  0.00  0.00    +0.000 A 
ATOM      7  C   UNL     1       3.640   5.249  17.722  0.00  0.00    +0.000 A 
ATOM      8  C   UNL     1       2.666   5.871  18.637  0.00  0.00    +0.000 C 
ATOM      9  O   UNL     1       1.911   5.279  19.385  0.00  0.00    +0.000 OA
ATOM     10  N   UNL     1       2.746   7.239  18.457  0.00  0.00    +0.000 N 
ATOM     11  C   UNL     1       3.642   7.611  17.383  0.00  0.00    +0.000 C 
BRANCH   2  13
ATOM     12  N   UNL     1       2.518   1.999  17.723  0.00  0.00    +0.000 N 
ATOM     13  C   UNL     1       3.509   2.747  18.282  0.00  0.00    +0.000 C 
ATOM     14  O   UNL     1       3.993   2.422  19.361  0.00  0.00    +0.000 OA
ATOM     15  H   UNL     1       2.105   1.291  18.315  0.00  0.00    +0.000 HD
ATOM     16  H   UNL     1       1.903   2.383  17.007  0.00  0.00    +0.000 HD
ENDBRANCH   2  13
ENDBRANCH   1  10
BRANCH   1  17
ATOM     17  C   UNL     1       1.355   9.252  18.141  0.00  0.00    +0.000 C 
BRANCH  17  18
ATOM     18  C   UNL     1       1.474  10.685  18.676  0.00  0.00    +0.000 C 
BRANCH  18  19
ATOM     19  N   UNL     1       0.236  11.491  18.644  0.00  0.00    +0.000 NA
ATOM     20  C   UNL     1      -0.940  10.708  19.053  0.00  0.00    +0.000 C 
ATOM     21  C   UNL     1      -2.209  11.558  19.083  0.00  0.00    +0.000 C 
ATOM     22  C   UNL     1      -2.078  12.754  20.032  0.00  0.00    +0.000 C 
ATOM     23  C   UNL     1      -0.843  13.558  19.587  0.00  0.00    +0.000 C 
ATOM     24  C   UNL     1       0.418  12.690  19.487  0.00  0.00    +0.000 C 
BRANCH  22  25
ATOM     25  C   UNL     1      -1.970  12.357  21.523  0.00  0.00    +0.000 C 
BRANCH  25  26
ATOM     26  C   UNL     1      -3.236  12.516  22.335  0.00  0.00    +0.000 A 
ATOM     27  C   UNL     1      -3.201  12.367  23.730  0.00  0.00    +0.000 A 
ATOM     28  C   UNL     1      -4.353  12.550  24.495  0.00  0.00    +0.000 A 
ATOM     29  C   UNL     1      -5.554  12.887  23.877  0.00  0.00    +0.000 A 
ATOM     30  C   UNL     1      -5.603  13.037  22.493  0.00  0.00    +0.000 A 
ATOM     31  C   UNL     1      -4.450  12.854  21.725  0.00  0.00    +0.000 A 
ENDBRANCH  25  26
ENDBRANCH  22  25
ENDBRANCH  18  19
ENDBRANCH  17  18
ENDBRANCH   1  17
TORSDOF 7
ENDMDL
MODEL 9
REMARK VINA RESULT:      -7.7      1.574      1.676
REMARK  Name = 
REMARK  7 active torsions:
REMARK  status: ('A' for Active; 'I' for Inactive)
REMARK    1  A    between atoms: C_2  and  C_4
REMARK    2  A    between atoms: N_12  and  C_13
REMARK    3  A    between atoms: C_13  and  C_14
REMARK    4  A    between atoms: C_14  and  C_15
REMARK    5  A    between atoms: C_15  and  N_16
REMARK    6  A    between atoms: C_19  and  C_20
REMARK    7  A    between atoms: C_20  and  C_21
REMARK                            x       y       z     vdW  Elec       q    Type
REMARK                         _______ _______ _______ _____ _____    ______ ____
ROOT
ATOM      1  C   UNL     1       9.345   9.825  18.151  0.00  0.00    +0.000 C 
ENDROOT
BRANCH   1  10
ATOM      2  C   UNL     1       8.950  14.633  19.589  0.00  0.00    +0.000 A 
ATOM      3  C   UNL     1       8.981  15.237  20.862  0.00  0.00    +0.000 A 
ATOM      4  C   UNL     1       9.102  14.473  22.036  0.00  0.00    +0.000 A 
ATOM      5  C   UNL     1       9.211  13.084  21.969  0.00  0.00    +0.000 A 
ATOM      6  C   UNL     1       9.201  12.487  20.718  0.00  0.00    +0.000 A 
ATOM      7  C   UNL     1       9.064  13.252  19.547  0.00  0.00    +0.000 A 
ATOM      8  C   UNL     1       9.106  12.305  18.418  0.00  0.00    +0.000 C 
ATOM      9  O   UNL     1       8.941  12.585  17.246  0.00  0.00    +0.000 OA
ATOM     10  N   UNL     1       9.330  11.046  18.944  0.00  0.00    +0.000 N 
ATOM     11  C   UNL     1       9.334  11.036  20.390  0.00  0.00    +0.000 C 
BRANCH   2  13
ATOM     12  N   UNL     1       7.787  15.377  17.556  0.00  0.00    +0.000 N 
ATOM     13  C   UNL     1       8.822  15.548  18.425  0.00  0.00    +0.000 C 
ATOM     14  O   UNL     1       9.613  16.472  18.267  0.00  0.00    +0.000 OA
ATOM     15  H   UNL     1       7.817  15.931  16.711  0.00  0.00    +0.000 HD
ATOM     16  H   UNL     1       7.304  14.483  17.476  0.00  0.00    +0.000 HD
ENDBRANCH   2  13
ENDBRANCH   1  10
BRANCH   1  17
ATOM     17  C   UNL     1       7.938   9.271  17.945  0.00  0.00    +0.000 C 
BRANCH  17  18
ATOM     18  C   UNL     1       7.896   7.740  17.854  0.00  0.00    +0.000 C 
BRANCH  18  19
ATOM     19  N   UNL     1       6.851   7.173  16.978  0.00  0.00    +0.000 NA
ATOM     20  C   UNL     1       7.206   5.829  16.497  0.00  0.00    +0.000 C 
ATOM     21  C   UNL     1       6.096   5.215  15.645  0.00  0.00    +0.000 C 
ATOM     22  C   UNL     1       4.773   5.114  16.411  0.00  0.00    +0.000 C 
ATOM     23  C   UNL     1       4.420   6.529  16.904  0.00  0.00    +0.000 C 
ATOM     24  C   UNL     1       5.562   7.175  17.699  0.00  0.00    +0.000 C 
BRANCH  22  25
ATOM     25  C   UNL     1       4.809   4.112  17.588  0.00  0.00    +0.000 C 
BRANCH  25  26
ATOM     26  C   UNL     1       3.512   3.949  18.348  0.00  0.00    +0.000 A 
ATOM     27  C   UNL     1       2.335   3.606  17.664  0.00  0.00    +0.000 A 
ATOM     28  C   UNL     1       1.139   3.413  18.357  0.00  0.00    +0.000 A 
ATOM     29  C   UNL     1       1.106   3.555  19.742  0.00  0.00    +0.000 A 
ATOM     30  C   UNL     1       2.267   3.895  20.432  0.00  0.00    +0.000 A 
ATOM     31  C   UNL     1       3.465   4.090  19.740  0.00  0.00    +0.000 A 
ENDBRANCH  25  26
ENDBRANCH  22  25
ENDBRANCH  18  19
ENDBRANCH  17  18
ENDBRANCH   1  17
TORSDOF 7
ENDMDL
