MODEL 1
REMARK VINA RESULT:      -7.7      0.000      0.000
REMARK  Name = 
REMARK  8 active torsions:
REMARK  status: ('A' for Active; 'I' for Inactive)
REMARK    1  A    between atoms: C_1  and  C_2
REMARK    2  A    between atoms: C_9  and  N_10
REMARK    3  A    between atoms: C_11  and  C_13
REMARK    4  A    between atoms: C_13  and  C_14
REMARK    5  A    between atoms: C_14  and  C_15
REMARK    6  A    between atoms: C_15  and  C_16
REMARK    7  A    between atoms: C_16  and  C_17
REMARK    8  A    between atoms: C_17  and  N_18
REMARK                            x       y       z     vdW  Elec       q    Type
REMARK                         _______ _______ _______ _____ _____    ______ ____
ROOT
ATOM      1  N   UNL     1       3.232   6.689  18.177  0.00  0.00    +0.000 N 
ATOM      2  C   UNL     1       3.725   5.582  18.852  0.00  0.00    +0.000 C 
ATOM      3  O   UNL     1       3.454   5.233  19.995  0.00  0.00    +0.000 OA
ATOM      4  H   UNL     1       3.519   6.811  17.214  0.00  0.00    +0.000 HD
ENDROOT
BRANCH   1  13
ATOM      5  C   UNL     1      -0.947  11.728  19.402  0.00  0.00    +0.000 C 
ATOM      6  C   UNL     1      -0.260  10.716  20.267  0.00  0.00    +0.000 A 
ATOM      7  C   UNL     1      -0.435  10.708  21.598  0.00  0.00    +0.000 A 
ATOM      8  C   UNL     1       0.213   9.748  22.503  0.00  0.00    +0.000 A 
ATOM      9  O   UNL     1       0.008   9.789  23.708  0.00  0.00    +0.000 OA
ATOM     10  O   UNL     1       1.050   8.818  21.919  0.00  0.00    +0.000 OA
ATOM     11  C   UNL     1       1.253   8.796  20.526  0.00  0.00    +0.000 A 
ATOM     12  C   UNL     1       2.110   7.798  20.066  0.00  0.00    +0.000 A 
ATOM     13  C   UNL     1       2.374   7.676  18.708  0.00  0.00    +0.000 A 
ATOM     14  C   UNL     1       1.765   8.580  17.829  0.00  0.00    +0.000 A 
ATOM     15  C   UNL     1       0.905   9.590  18.307  0.00  0.00    +0.000 A 
ATOM     16  C   UNL     1       0.631   9.708  19.674  0.00  0.00    +0.000 A 
ENDBRANCH   1  13
BRANCH   2  17
ATOM     17  C   UNL     1       4.717   4.771  18.043  0.00  0.00    +0.000 C 
BRANCH  17  18
ATOM     18  C   UNL     1       4.086   4.148  16.800  0.00  0.00    +0.000 C 
BRANCH  18  19
ATOM     19  C   UNL     1       2.726   3.475  17.053  0.00  0.00    +0.000 C 
BRANCH  19  20
ATOM     20  C   UNL     1       2.790   2.118  17.766  0.00  0.00    +0.000 C 
BRANCH  20  21
ATOM     21  C   UNL     1       1.647   1.955  18.761  0.00  0.00    +0.000 C 
BRANCH  21  22
ATOM     22  N   UNL     1       2.066   2.204  20.120  0.00  0.00    +0.000 N 
ATOM     23  C   UNL     1       1.564   3.184  20.896  0.00  0.00    +0.000 C 
ATOM     24  N   UNL     1       0.649   4.028  20.582  0.00  0.00    +0.000 NA
ATOM     25  N   UNL     1       2.085   3.218  22.134  0.00  0.00    +0.000 N 
ATOM     26  H   UNL     1       2.877   1.701  20.452  0.00  0.00    +0.000 HD
ATOM     27  H   UNL     1       0.332   3.848  19.630  0.00  0.00    +0.000 HD
ATOM     28  H   UNL     1       3.051   2.957  22.244  0.00  0.00    +0.000 HD
ATOM     29  H   UNL     1       1.844   4.083  22.606  0.00  0.00    +0.000 HD
ENDBRANCH  21  22
ENDBRANCH  20  21
ENDBRANCH  19  20
ENDBRANCH  18  19
ENDBRANCH  17  18
ENDBRANCH   2  17
TORSDOF 7
ENDMDL
MODEL 2
REMARK VINA RESULT:      -7.6      2.171      3.599
REMARK  Name = 
REMARK  8 active torsions:
REMARK  status: ('A' for Active; 'I' for Inactive)
REMARK    1  A    between atoms: C_1  and  C_2
REMARK    2  A    between atoms: C_9  and  N_10
REMARK    3  A    between atoms: C_11  and  C_13
REMARK    4  A    between atoms: C_13  and  C_14
REMARK    5  A    between atoms: C_14  and  C_15
REMARK    6  A    between atoms: C_15  and  C_16
REMARK    7  A    between atoms: C_16  and  C_17
REMARK    8  A    between atoms: C_17  and  N_18
REMARK                            x       y       z     vdW  Elec       q    Type
REMARK                         _______ _______ _______ _____ _____    ______ ____
ROOT
ATOM      1  N   UNL     1       3.143   6.312  18.823  0.00  0.00    +0.000 N 
ATOM      2  C   UNL     1       2.716   5.136  18.224  0.00  0.00    +0.000 C 
ATOM      3  O   UNL     1       1.597   4.894  17.787  0.00  0.00    +0.000 OA
ATOM      4  H   UNL     1       4.119   6.371  19.087  0.00  0.00    +0.000 HD
ENDROOT
BRANCH   1  13
ATOM      5  C   UNL     1      -0.487  11.895  18.898  0.00  0.00    +0.000 C 
ATOM      6  C   UNL     1      -0.098  10.896  19.944  0.00  0.00    +0.000 A 
ATOM      7  C   UNL     1      -0.500  11.033  21.218  0.00  0.00    +0.000 A 
ATOM      8  C   UNL     1      -0.150  10.093  22.292  0.00  0.00    +0.000 A 
ATOM      9  O   UNL     1      -0.553  10.271  23.434  0.00  0.00    +0.000 OA
ATOM     10  O   UNL     1       0.646   9.022  21.940  0.00  0.00    +0.000 OA
ATOM     11  C   UNL     1       1.081   8.846  20.613  0.00  0.00    +0.000 A 
ATOM     12  C   UNL     1       1.867   7.716  20.390  0.00  0.00    +0.000 A 
ATOM     13  C   UNL     1       2.343   7.438  19.116  0.00  0.00    +0.000 A 
ATOM     14  C   UNL     1       2.019   8.320  18.078  0.00  0.00    +0.000 A 
ATOM     15  C   UNL     1       1.230   9.463  18.317  0.00  0.00    +0.000 A 
ATOM     16  C   UNL     1       0.742   9.740  19.598  0.00  0.00    +0.000 A 
ENDBRANCH   1  13
BRANCH   2  17
ATOM     17  C   UNL     1       3.789   4.069  18.150  0.00  0.00    +0.000 C 
BRANCH  17  18
ATOM     18  C   UNL     1       4.176   3.728  16.713  0.00  0.00    +0.000 C 
BRANCH  18  19
ATOM     19  C   UNL     1       5.475   4.398  16.234  0.00  0.00    +0.000 C 
BRANCH  19  20
ATOM     20  C   UNL     1       5.390   5.917  16.031  0.00  0.00    +0.000 C 
BRANCH  20  21
ATOM     21  C   UNL     1       6.421   6.652  16.879  0.00  0.00    +0.000 C 
BRANCH  21  22
ATOM     22  N   UNL     1       6.883   5.854  17.991  0.00  0.00    +0.000 N 
ATOM     23  C   UNL     1       7.820   6.257  18.871  0.00  0.00    +0.000 C 
ATOM     24  N   UNL     1       8.435   7.383  18.885  0.00  0.00    +0.000 NA
ATOM     25  N   UNL     1       8.079   5.361  19.838  0.00  0.00    +0.000 N 
ATOM     26  H   UNL     1       6.582   4.889  18.022  0.00  0.00    +0.000 HD
ATOM     27  H   UNL     1       8.102   7.962  18.114  0.00  0.00    +0.000 HD
ATOM     28  H   UNL     1       8.022   4.384  19.601  0.00  0.00    +0.000 HD
ATOM     29  H   UNL     1       8.924   5.605  20.343  0.00  0.00    +0.000 HD
ENDBRANCH  21  22
ENDBRANCH  20  21
ENDBRANCH  19  20
ENDBRANCH  18  19
ENDBRANCH  17  18
ENDBRANCH   2  17
TORSDOF 7
ENDMDL
MODEL 3
REMARK VINA RESULT:      -7.5      2.105      3.344
REMARK  Name = 
REMARK  8 active torsions:
REMARK  status: ('A' for Active; 'I' for Inactive)
REMARK    1  A    between atoms: C_1  and  C_2
REMARK    2  A    between atoms: C_9  and  N_10
REMARK    3  A    between atoms: C_11  and  C_13
REMARK    4  A    between atoms: C_13  and  C_14
REMARK    5  A    between atoms: C_14  and  C_15
REMARK    6  A    between atoms: C_15  and  C_16
REMARK    7  A    between atoms: C_16  and  C_17
REMARK    8  A    between atoms: C_17  and  N_18
REMARK                            x       y       z     vdW  Elec       q    Type
REMARK                         _______ _______ _______ _____ _____    ______ ____
ROOT
ATOM      1  N   UNL     1       2.920   6.211  19.737  0.00  0.00    +0.000 N 
ATOM      2  C   UNL     1       2.423   4.929  19.925  0.00  0.00    +0.000 C 
ATOM      3  O   UNL     1       1.254   4.611  20.109  0.00  0.00    +0.000 OA
ATOM      4  H   UNL     1       3.910   6.302  19.548  0.00  0.00    +0.000 HD
ENDROOT
BRANCH   1  13
ATOM      5  C   UNL     1      -0.273  11.966  18.717  0.00  0.00    +0.000 C 
ATOM      6  C   UNL     1      -0.075  11.087  19.914  0.00  0.00    +0.000 A 
ATOM      7  C   UNL     1      -0.602  11.409  21.106  0.00  0.00    +0.000 A 
ATOM      8  C   UNL     1      -0.442  10.594  22.319  0.00  0.00    +0.000 A 
ATOM      9  O   UNL     1      -0.953  10.939  23.375  0.00  0.00    +0.000 OA
ATOM     10  O   UNL     1       0.306   9.441  22.193  0.00  0.00    +0.000 OA
ATOM     11  C   UNL     1       0.869   9.071  20.957  0.00  0.00    +0.000 A 
ATOM     12  C   UNL     1       1.588   7.877  20.964  0.00  0.00    +0.000 A 
ATOM     13  C   UNL     1       2.178   7.411  19.797  0.00  0.00    +0.000 A 
ATOM     14  C   UNL     1       2.036   8.171  18.630  0.00  0.00    +0.000 A 
ATOM     15  C   UNL     1       1.313   9.381  18.637  0.00  0.00    +0.000 A 
ATOM     16  C   UNL     1       0.709   9.848  19.810  0.00  0.00    +0.000 A 
ENDBRANCH   1  13
BRANCH   2  17
ATOM     17  C   UNL     1       3.493   3.857  19.912  0.00  0.00    +0.000 C 
BRANCH  17  18
ATOM     18  C   UNL     1       3.050   2.600  19.166  0.00  0.00    +0.000 C 
BRANCH  18  19
ATOM     19  C   UNL     1       3.330   2.633  17.655  0.00  0.00    +0.000 C 
BRANCH  19  20
ATOM     20  C   UNL     1       3.554   4.030  17.061  0.00  0.00    +0.000 C 
BRANCH  20  21
ATOM     21  C   UNL     1       4.834   4.087  16.235  0.00  0.00    +0.000 C 
BRANCH  21  22
ATOM     22  N   UNL     1       6.016   3.912  17.046  0.00  0.00    +0.000 N 
ATOM     23  C   UNL     1       7.174   4.572  16.843  0.00  0.00    +0.000 C 
ATOM     24  N   UNL     1       7.417   5.448  15.938  0.00  0.00    +0.000 NA
ATOM     25  N   UNL     1       8.134   4.269  17.733  0.00  0.00    +0.000 N 
ATOM     26  H   UNL     1       6.010   3.152  17.712  0.00  0.00    +0.000 HD
ATOM     27  H   UNL     1       6.582   5.592  15.371  0.00  0.00    +0.000 HD
ATOM     28  H   UNL     1       8.166   3.327  18.088  0.00  0.00    +0.000 HD
ATOM     29  H   UNL     1       9.037   4.615  17.425  0.00  0.00    +0.000 HD
ENDBRANCH  21  22
ENDBRANCH  20  21
ENDBRANCH  19  20
ENDBRANCH  18  19
ENDBRANCH  17  18
ENDBRANCH   2  17
TORSDOF 7
ENDMDL
MODEL 4
REMARK VINA RESULT:      -7.5      1.059      1.098
REMARK  Name = 
REMARK  8 active torsions:
REMARK  status: ('A' for Active; 'I' for Inactive)
REMARK    1  A    between atoms: C_1  and  C_2
REMARK    2  A    between atoms: C_9  and  N_10
REMARK    3  A    between atoms: C_11  and  C_13
REMARK    4  A    between atoms: C_13  and  C_14
REMARK    5  A    between atoms: C_14  and  C_15
REMARK    6  A    between atoms: C_15  and  C_16
REMARK    7  A    between atoms: C_16  and  C_17
REMARK    8  A    between atoms: C_17  and  N_18
REMARK                            x       y       z     vdW  Elec       q    Type
REMARK                         _______ _______ _______ _____ _____    ______ ____
ROOT
ATOM      1  N   UNL     1       3.003   6.337  18.176  0.00  0.00    +0.000 N 
ATOM      2  C   UNL     1       4.223   6.366  17.515  0.00  0.00    +0.000 C 
ATOM      3  O   UNL     1       4.943   7.341  17.337  0.00  0.00    +0.000 OA
ATOM      4  H   UNL     1       2.554   5.436  18.280  0.00  0.00    +0.000 HD
ENDROOT
BRANCH   1  13
ATOM      5  C   UNL     1      -0.232  12.023  19.422  0.00  0.00    +0.000 C 
ATOM      6  C   UNL     1       0.213  10.874  20.274  0.00  0.00    +0.000 A 
ATOM      7  C   UNL     1      -0.028  10.856  21.594  0.00  0.00    +0.000 A 
ATOM      8  C   UNL     1       0.385   9.763  22.487  0.00  0.00    +0.000 A 
ATOM      9  O   UNL     1       0.131   9.803  23.683  0.00  0.00    +0.000 OA
ATOM     10  O   UNL     1       1.065   8.713  21.903  0.00  0.00    +0.000 OA
ATOM     11  C   UNL     1       1.330   8.698  20.520  0.00  0.00    +0.000 A 
ATOM     12  C   UNL     1       2.011   7.574  20.057  0.00  0.00    +0.000 A 
ATOM     13  C   UNL     1       2.316   7.449  18.709  0.00  0.00    +0.000 A 
ATOM     14  C   UNL     1       1.929   8.478  17.841  0.00  0.00    +0.000 A 
ATOM     15  C   UNL     1       1.248   9.614  18.322  0.00  0.00    +0.000 A 
ATOM     16  C   UNL     1       0.931   9.737  19.679  0.00  0.00    +0.000 A 
ENDBRANCH   1  13
BRANCH   2  17
ATOM     17  C   UNL     1       4.643   5.021  16.959  0.00  0.00    +0.000 C 
BRANCH  17  18
ATOM     18  C   UNL     1       3.561   3.957  17.124  0.00  0.00    +0.000 C 
BRANCH  18  19
ATOM     19  C   UNL     1       4.103   2.546  17.411  0.00  0.00    +0.000 C 
BRANCH  19  20
ATOM     20  C   UNL     1       3.147   1.622  18.176  0.00  0.00    +0.000 C 
BRANCH  20  21
ATOM     21  C   UNL     1       1.891   2.363  18.621  0.00  0.00    +0.000 C 
BRANCH  21  22
ATOM     22  N   UNL     1       1.698   2.300  20.051  0.00  0.00    +0.000 N 
ATOM     23  C   UNL     1       2.179   3.212  20.918  0.00  0.00    +0.000 C 
ATOM     24  N   UNL     1       2.855   4.266  20.636  0.00  0.00    +0.000 NA
ATOM     25  N   UNL     1       1.860   2.965  22.199  0.00  0.00    +0.000 N 
ATOM     26  H   UNL     1       1.299   1.450  20.425  0.00  0.00    +0.000 HD
ATOM     27  H   UNL     1       2.980   4.329  19.626  0.00  0.00    +0.000 HD
ATOM     28  H   UNL     1       1.796   2.004  22.491  0.00  0.00    +0.000 HD
ATOM     29  H   UNL     1       2.409   3.542  22.828  0.00  0.00    +0.000 HD
ENDBRANCH  21  22
ENDBRANCH  20  21
ENDBRANCH  19  20
ENDBRANCH  18  19
ENDBRANCH  17  18
ENDBRANCH   2  17
TORSDOF 7
ENDMDL
MODEL 5
REMARK VINA RESULT:      -7.4      3.794      7.644
REMARK  Name = 
REMARK  8 active torsions:
REMARK  status: ('A' for Active; 'I' for Inactive)
REMARK    1  A    between atoms: C_1  and  C_2
REMARK    2  A    between atoms: C_9  and  N_10
REMARK    3  A    between atoms: C_11  and  C_13
REMARK    4  A    between atoms: C_13  and  C_14
REMARK    5  A    between atoms: C_14  and  C_15
REMARK    6  A    between atoms: C_15  and  C_16
REMARK    7  A    between atoms: C_16  and  C_17
REMARK    8  A    between atoms: C_17  and  N_18
REMARK                            x       y       z     vdW  Elec       q    Type
REMARK                         _______ _______ _______ _____ _____    ______ ____
ROOT
ATOM      1  N   UNL     1       4.473   5.040  18.297  0.00  0.00    +0.000 N 
ATOM      2  C   UNL     1       3.414   5.871  18.636  0.00  0.00    +0.000 C 
ATOM      3  O   UNL     1       2.666   6.463  17.868  0.00  0.00    +0.000 OA
ATOM      4  H   UNL     1       4.966   4.584  19.055  0.00  0.00    +0.000 HD
ENDROOT
BRANCH   1  13
ATOM      5  C   UNL     1       5.615   2.984  12.067  0.00  0.00    +0.000 C 
ATOM      6  C   UNL     1       6.321   3.924  12.995  0.00  0.00    +0.000 A 
ATOM      7  C   UNL     1       7.440   4.561  12.618  0.00  0.00    +0.000 A 
ATOM      8  C   UNL     1       8.183   5.491  13.480  0.00  0.00    +0.000 A 
ATOM      9  O   UNL     1       9.196   6.045  13.076  0.00  0.00    +0.000 OA
ATOM     10  O   UNL     1       7.677   5.694  14.749  0.00  0.00    +0.000 OA
ATOM     11  C   UNL     1       6.503   5.046  15.175  0.00  0.00    +0.000 A 
ATOM     12  C   UNL     1       6.093   5.350  16.472  0.00  0.00    +0.000 A 
ATOM     13  C   UNL     1       4.942   4.775  16.992  0.00  0.00    +0.000 A 
ATOM     14  C   UNL     1       4.218   3.888  16.186  0.00  0.00    +0.000 A 
ATOM     15  C   UNL     1       4.646   3.582  14.879  0.00  0.00    +0.000 A 
ATOM     16  C   UNL     1       5.801   4.168  14.349  0.00  0.00    +0.000 A 
ENDBRANCH   1  13
BRANCH   2  17
ATOM     17  C   UNL     1       3.230   6.039  20.130  0.00  0.00    +0.000 C 
BRANCH  17  18
ATOM     18  C   UNL     1       2.515   4.851  20.768  0.00  0.00    +0.000 C 
BRANCH  18  19
ATOM     19  C   UNL     1       1.075   4.640  20.270  0.00  0.00    +0.000 C 
BRANCH  19  20
ATOM     20  C   UNL     1       0.739   3.210  19.829  0.00  0.00    +0.000 C 
BRANCH  20  21
ATOM     21  C   UNL     1       1.795   2.217  20.301  0.00  0.00    +0.000 C 
BRANCH  21  22
ATOM     22  N   UNL     1       2.436   1.537  19.200  0.00  0.00    +0.000 N 
ATOM     23  C   UNL     1       3.764   1.563  18.969  0.00  0.00    +0.000 C 
ATOM     24  N   UNL     1       4.659   2.160  19.667  0.00  0.00    +0.000 NA
ATOM     25  N   UNL     1       4.143   0.842  17.901  0.00  0.00    +0.000 N 
ATOM     26  H   UNL     1       1.836   1.138  18.491  0.00  0.00    +0.000 HD
ATOM     27  H   UNL     1       4.218   2.628  20.458  0.00  0.00    +0.000 HD
ATOM     28  H   UNL     1       3.513   0.796  17.116  0.00  0.00    +0.000 HD
ATOM     29  H   UNL     1       5.099   1.056  17.638  0.00  0.00    +0.000 HD
ENDBRANCH  21  22
ENDBRANCH  20  21
ENDBRANCH  19  20
ENDBRANCH  18  19
ENDBRANCH  17  18
ENDBRANCH   2  17
TORSDOF 7
ENDMDL
MODEL 6
REMARK VINA RESULT:      -7.4      4.313      8.505
REMARK  Name = 
REMARK  8 active torsions:
REMARK  status: ('A' for Active; 'I' for Inactive)
REMARK    1  A    between atoms: C_1  and  C_2
REMARK    2  A    between atoms: C_9  and  N_10
REMARK    3  A    between atoms: C_11  and  C_13
REMARK    4  A    between atoms: C_13  and  C_14
REMARK    5  A    between atoms: C_14  and  C_15
REMARK    6  A    between atoms: C_15  and  C_16
REMARK    7  A    between atoms: C_16  and  C_17
REMARK    8  A    between atoms: C_17  and  N_18
REMARK                            x       y       z     vdW  Elec       q    Type
REMARK                         _______ _______ _______ _____ _____    ______ ____
ROOT
ATOM      1  N   UNL     1       1.652   7.807  21.073  0.00  0.00    +0.000 N 
ATOM      2  C   UNL     1       1.072   8.999  20.663  0.00  0.00    +0.000 C 
ATOM      3  O   UNL     1       0.765   9.316  19.520  0.00  0.00    +0.000 OA
ATOM      4  H   UNL     1       1.799   7.680  22.066  0.00  0.00    +0.000 HD
ENDROOT
BRANCH   1  13
ATOM      5  C   UNL     1       2.817   2.082  17.876  0.00  0.00    +0.000 C 
ATOM      6  C   UNL     1       3.314   3.485  17.706  0.00  0.00    +0.000 A 
ATOM      7  C   UNL     1       4.190   3.798  16.739  0.00  0.00    +0.000 A 
ATOM      8  C   UNL     1       4.721   5.152  16.522  0.00  0.00    +0.000 A 
ATOM      9  O   UNL     1       5.514   5.375  15.618  0.00  0.00    +0.000 OA
ATOM     10  O   UNL     1       4.279   6.134  17.386  0.00  0.00    +0.000 OA
ATOM     11  C   UNL     1       3.358   5.840  18.409  0.00  0.00    +0.000 A 
ATOM     12  C   UNL     1       2.984   6.924  19.201  0.00  0.00    +0.000 A 
ATOM     13  C   UNL     1       2.072   6.752  20.234  0.00  0.00    +0.000 A 
ATOM     14  C   UNL     1       1.552   5.471  20.456  0.00  0.00    +0.000 A 
ATOM     15  C   UNL     1       1.944   4.380  19.653  0.00  0.00    +0.000 A 
ATOM     16  C   UNL     1       2.856   4.554  18.606  0.00  0.00    +0.000 A 
ENDBRANCH   1  13
BRANCH   2  17
ATOM     17  C   UNL     1       0.839   9.980  21.794  0.00  0.00    +0.000 C 
BRANCH  17  18
ATOM     18  C   UNL     1      -0.268   9.526  22.742  0.00  0.00    +0.000 C 
BRANCH  18  19
ATOM     19  C   UNL     1      -1.202  10.655  23.208  0.00  0.00    +0.000 C 
BRANCH  19  20
ATOM     20  C   UNL     1      -1.337  11.834  22.236  0.00  0.00    +0.000 C 
BRANCH  20  21
ATOM     21  C   UNL     1      -2.378  12.839  22.718  0.00  0.00    +0.000 C 
BRANCH  21  22
ATOM     22  N   UNL     1      -3.526  12.193  23.309  0.00  0.00    +0.000 N 
ATOM     23  C   UNL     1      -4.148  12.631  24.422  0.00  0.00    +0.000 C 
ATOM     24  N   UNL     1      -3.849  13.666  25.118  0.00  0.00    +0.000 NA
ATOM     25  N   UNL     1      -5.208  11.888  24.780  0.00  0.00    +0.000 N 
ATOM     26  H   UNL     1      -3.787  11.288  22.942  0.00  0.00    +0.000 HD
ATOM     27  H   UNL     1      -3.051  14.141  24.698  0.00  0.00    +0.000 HD
ATOM     28  H   UNL     1      -5.170  10.898  24.602  0.00  0.00    +0.000 HD
ATOM     29  H   UNL     1      -5.512  12.117  25.721  0.00  0.00    +0.000 HD
ENDBRANCH  21  22
ENDBRANCH  20  21
ENDBRANCH  19  20
ENDBRANCH  18  19
ENDBRANCH  17  18
ENDBRANCH   2  17
TORSDOF 7
ENDMDL
MODEL 7
REMARK VINA RESULT:      -7.4      2.361      4.107
REMARK  Name = 
REMARK  8 active torsions:
REMARK  status: ('A' for Active; 'I' for Inactive)
REMARK    1  A    between atoms: C_1  and  C_2
REMARK    2  A    between atoms: C_9  and  N_10
REMARK    3  A    between atoms: C_11  and  C_13
REMARK    4  A    between atoms: C_13  and  C_14
REMARK    5  A    between atoms: C_14  and  C_15
REMARK    6  A    between atoms: C_15  and  C_16
REMARK    7  A    between atoms: C_16  and  C_17
REMARK    8  A    between atoms: C_17  and  N_18
REMARK                            x       y       z     vdW  Elec       q    Type
REMARK                         _______ _______ _______ _____ _____    ______ ____
ROOT
ATOM      1  N   UNL     1       3.136   6.576  18.781  0.00  0.00    +0.000 N 
ATOM      2  C   UNL     1       2.813   5.232  18.900  0.00  0.00    +0.000 C 
ATOM      3  O   UNL     1       1.719   4.757  19.178  0.00  0.00    +0.000 OA
ATOM      4  H   UNL     1       4.080   6.803  18.496  0.00  0.00    +0.000 HD
ENDROOT
BRANCH   1  13
ATOM      5  C   UNL     1      -0.826  11.928  18.646  0.00  0.00    +0.000 C 
ATOM      6  C   UNL     1      -0.355  11.012  19.735  0.00  0.00    +0.000 A 
ATOM      7  C   UNL     1      -0.738  11.194  21.008  0.00  0.00    +0.000 A 
ATOM      8  C   UNL     1      -0.309  10.337  22.123  0.00  0.00    +0.000 A 
ATOM      9  O   UNL     1      -0.698  10.552  23.262  0.00  0.00    +0.000 OA
ATOM     10  O   UNL     1       0.543   9.297  21.808  0.00  0.00    +0.000 OA
ATOM     11  C   UNL     1       0.961   9.075  20.483  0.00  0.00    +0.000 A 
ATOM     12  C   UNL     1       1.809   7.984  20.301  0.00  0.00    +0.000 A 
ATOM     13  C   UNL     1       2.275   7.666  19.033  0.00  0.00    +0.000 A 
ATOM     14  C   UNL     1       1.876   8.469  17.957  0.00  0.00    +0.000 A 
ATOM     15  C   UNL     1       1.024   9.575  18.154  0.00  0.00    +0.000 A 
ATOM     16  C   UNL     1       0.547   9.891  19.430  0.00  0.00    +0.000 A 
ENDBRANCH   1  13
BRANCH   2  17
ATOM     17  C   UNL     1       3.989   4.304  18.672  0.00  0.00    +0.000 C 
BRANCH  17  18
ATOM     18  C   UNL     1       5.305   4.896  19.169  0.00  0.00    +0.000 C 
BRANCH  18  19
ATOM     19  C   UNL     1       6.447   4.847  18.140  0.00  0.00    +0.000 C 
BRANCH  19  20
ATOM     20  C   UNL     1       6.734   6.171  17.418  0.00  0.00    +0.000 C 
BRANCH  20  21
ATOM     21  C   UNL     1       5.851   6.338  16.187  0.00  0.00    +0.000 C 
BRANCH  21  22
ATOM     22  N   UNL     1       5.749   5.119  15.419  0.00  0.00    +0.000 N 
ATOM     23  C   UNL     1       6.617   4.762  14.452  0.00  0.00    +0.000 C 
ATOM     24  N   UNL     1       7.655   5.410  14.067  0.00  0.00    +0.000 NA
ATOM     25  N   UNL     1       6.340   3.576  13.884  0.00  0.00    +0.000 N 
ATOM     26  H   UNL     1       4.901   4.578  15.523  0.00  0.00    +0.000 HD
ATOM     27  H   UNL     1       7.747   6.263  14.617  0.00  0.00    +0.000 HD
ATOM     28  H   UNL     1       5.373   3.314  13.790  0.00  0.00    +0.000 HD
ATOM     29  H   UNL     1       6.878   3.446  13.034  0.00  0.00    +0.000 HD
ENDBRANCH  21  22
ENDBRANCH  20  21
ENDBRANCH  19  20
ENDBRANCH  18  19
ENDBRANCH  17  18
ENDBRANCH   2  17
TORSDOF 7
ENDMDL
MODEL 8
REMARK VINA RESULT:      -7.4      2.212      3.763
REMARK  Name = 
REMARK  8 active torsions:
REMARK  status: ('A' for Active; 'I' for Inactive)
REMARK    1  A    between atoms: C_1  and  C_2
REMARK    2  A    between atoms: C_9  and  N_10
REMARK    3  A    between atoms: C_11  and  C_13
REMARK    4  A    between atoms: C_13  and  C_14
REMARK    5  A    between atoms: C_14  and  C_15
REMARK    6  A    between atoms: C_15  and  C_16
REMARK    7  A    between atoms: C_16  and  C_17
REMARK    8  A    between atoms: C_17  and  N_18
REMARK                            x       y       z     vdW  Elec       q    Type
REMARK                         _______ _______ _______ _____ _____    ______ ____
ROOT
ATOM      1  N   UNL     1       2.894   5.651  18.278  0.00  0.00    +0.000 N 
ATOM      2  C   UNL     1       2.199   4.590  17.715  0.00  0.00    +0.000 C 
ATOM      3  O   UNL     1       1.001   4.546  17.460  0.00  0.00    +0.000 OA
ATOM      4  H   UNL     1       3.896   5.547  18.380  0.00  0.00    +0.000 HD
ENDROOT
BRANCH   1  13
ATOM      5  C   UNL     1       0.342  11.739  19.160  0.00  0.00    +0.000 C 
ATOM      6  C   UNL     1       0.636  10.594  20.080  0.00  0.00    +0.000 A 
ATOM      7  C   UNL     1       0.378  10.676  21.394  0.00  0.00    +0.000 A 
ATOM      8  C   UNL     1       0.647   9.593  22.351  0.00  0.00    +0.000 A 
ATOM      9  O   UNL     1       0.384   9.728  23.538  0.00  0.00    +0.000 OA
ATOM     10  O   UNL     1       1.204   8.439  21.836  0.00  0.00    +0.000 OA
ATOM     11  C   UNL     1       1.483   8.318  20.462  0.00  0.00    +0.000 A 
ATOM     12  C   UNL     1       2.032   7.097  20.072  0.00  0.00    +0.000 A 
ATOM     13  C   UNL     1       2.337   6.864  18.738  0.00  0.00    +0.000 A 
ATOM     14  C   UNL     1       2.086   7.882  17.811  0.00  0.00    +0.000 A 
ATOM     15  C   UNL     1       1.539   9.116  18.218  0.00  0.00    +0.000 A 
ATOM     16  C   UNL     1       1.222   9.349  19.560  0.00  0.00    +0.000 A 
ENDBRANCH   1  13
BRANCH   2  17
ATOM     17  C   UNL     1       3.065   3.381  17.428  0.00  0.00    +0.000 C 
BRANCH  17  18
ATOM     18  C   UNL     1       4.193   3.217  18.443  0.00  0.00    +0.000 C 
BRANCH  18  19
ATOM     19  C   UNL     1       5.470   4.003  18.100  0.00  0.00    +0.000 C 
BRANCH  19  20
ATOM     20  C   UNL     1       5.733   4.201  16.601  0.00  0.00    +0.000 C 
BRANCH  20  21
ATOM     21  C   UNL     1       7.149   4.703  16.344  0.00  0.00    +0.000 C 
BRANCH  21  22
ATOM     22  N   UNL     1       7.729   5.321  17.513  0.00  0.00    +0.000 N 
ATOM     23  C   UNL     1       7.700   6.646  17.759  0.00  0.00    +0.000 C 
ATOM     24  N   UNL     1       7.159   7.556  17.033  0.00  0.00    +0.000 NA
ATOM     25  N   UNL     1       8.282   6.997  18.917  0.00  0.00    +0.000 N 
ATOM     26  H   UNL     1       8.307   4.739  18.104  0.00  0.00    +0.000 HD
ATOM     27  H   UNL     1       6.729   7.126  16.214  0.00  0.00    +0.000 HD
ATOM     28  H   UNL     1       9.079   6.464  19.223  0.00  0.00    +0.000 HD
ATOM     29  H   UNL     1       8.427   8.000  18.962  0.00  0.00    +0.000 HD
ENDBRANCH  21  22
ENDBRANCH  20  21
ENDBRANCH  19  20
ENDBRANCH  18  19
ENDBRANCH  17  18
ENDBRANCH   2  17
TORSDOF 7
ENDMDL
MODEL 9
REMARK VINA RESULT:      -7.3      2.588      4.043
REMARK  Name = 
REMARK  8 active torsions:
REMARK  status: ('A' for Active; 'I' for Inactive)
REMARK    1  A    between atoms: C_1  and  C_2
REMARK    2  A    between atoms: C_9  and  N_10
REMARK    3  A    between atoms: C_11  and  C_13
REMARK    4  A    between atoms: C_13  and  C_14
REMARK    5  A    between atoms: C_14  and  C_15
REMARK    6  A    between atoms: C_15  and  C_16
REMARK    7  A    between atoms: C_16  and  C_17
REMARK    8  A    between atoms: C_17  and  N_18
REMARK                            x       y       z     vdW  Elec       q    Type
REMARK                         _______ _______ _______ _____ _____    ______ ____
ROOT
ATOM      1  N   UNL     1       3.449   6.062  18.543  0.00  0.00    +0.000 N 
ATOM      2  C   UNL     1       3.053   4.966  17.791  0.00  0.00    +0.000 C 
ATOM      3  O   UNL     1       1.907   4.651  17.494  0.00  0.00    +0.000 OA
ATOM      4  H   UNL     1       4.444   6.210  18.659  0.00  0.00    +0.000 HD
ENDROOT
BRANCH   1  13
ATOM      5  C   UNL     1      -0.566   9.553  22.549  0.00  0.00    +0.000 C 
ATOM      6  C   UNL     1      -0.011   9.786  21.178  0.00  0.00    +0.000 A 
ATOM      7  C   UNL     1      -0.304  10.901  20.490  0.00  0.00    +0.000 A 
ATOM      8  C   UNL     1       0.202  11.189  19.141  0.00  0.00    +0.000 A 
ATOM      9  O   UNL     1      -0.098  12.227  18.569  0.00  0.00    +0.000 OA
ATOM     10  O   UNL     1       1.020  10.232  18.572  0.00  0.00    +0.000 OA
ATOM     11  C   UNL     1       1.352   9.054  19.267  0.00  0.00    +0.000 A 
ATOM     12  C   UNL     1       2.196   8.180  18.585  0.00  0.00    +0.000 A 
ATOM     13  C   UNL     1       2.597   6.991  19.179  0.00  0.00    +0.000 A 
ATOM     14  C   UNL     1       2.127   6.699  20.466  0.00  0.00    +0.000 A 
ATOM     15  C   UNL     1       1.267   7.587  21.143  0.00  0.00    +0.000 A 
ATOM     16  C   UNL     1       0.870   8.790  20.549  0.00  0.00    +0.000 A 
ENDBRANCH   1  13
BRANCH   2  17
ATOM     17  C   UNL     1       4.205   4.093  17.337  0.00  0.00    +0.000 C 
BRANCH  17  18
ATOM     18  C   UNL     1       4.552   4.303  15.865  0.00  0.00    +0.000 C 
BRANCH  18  19
ATOM     19  C   UNL     1       5.524   5.466  15.606  0.00  0.00    +0.000 C 
BRANCH  19  20
ATOM     20  C   UNL     1       6.873   5.364  16.330  0.00  0.00    +0.000 C 
BRANCH  20  21
ATOM     21  C   UNL     1       7.117   6.570  17.230  0.00  0.00    +0.000 C 
BRANCH  21  22
ATOM     22  N   UNL     1       7.910   6.234  18.389  0.00  0.00    +0.000 N 
ATOM     23  C   UNL     1       7.423   5.616  19.483  0.00  0.00    +0.000 C 
ATOM     24  N   UNL     1       6.218   5.219  19.675  0.00  0.00    +0.000 NA
ATOM     25  N   UNL     1       8.345   5.383  20.431  0.00  0.00    +0.000 N 
ATOM     26  H   UNL     1       8.847   6.610  18.431  0.00  0.00    +0.000 HD
ATOM     27  H   UNL     1       5.654   5.434  18.853  0.00  0.00    +0.000 HD
ATOM     28  H   UNL     1       9.086   6.056  20.542  0.00  0.00    +0.000 HD
ATOM     29  H   UNL     1       7.907   5.117  21.307  0.00  0.00    +0.000 HD
ENDBRANCH  21  22
ENDBRANCH  20  21
ENDBRANCH  19  20
ENDBRANCH  18  19
ENDBRANCH  17  18
ENDBRANCH   2  17
TORSDOF 7
ENDMDL
