MODEL 1
REMARK VINA RESULT:      -7.5      0.000      0.000
REMARK  Name = 
REMARK  3 active torsions:
REMARK  status: ('A' for Active; 'I' for Inactive)
REMARK    1  A    between atoms: C_1  and  C_2
REMARK    2  A    between atoms: C_18  and  C_20
REMARK    3  A    between atoms: C_24  and  C_25
REMARK                            x       y       z     vdW  Elec       q    Type
REMARK                         _______ _______ _______ _____ _____    ______ ____
ROOT
ATOM      1  C   UNL     1       1.456   6.482  17.367  0.00  0.00    +0.000 C 
ATOM      2  C   UNL     1       2.599   7.286  18.018  0.00  0.00    +0.000 C 
ATOM      3  C   UNL     1       2.117   8.712  18.419  0.00  0.00    +0.000 C 
ATOM      4  C   UNL     1       1.510   8.665  19.757  0.00  0.00    +0.000 A 
ATOM      5  C   UNL     1       1.619   7.617  20.637  0.00  0.00    +0.000 A 
ATOM      6  N   UNL     1       1.001   7.935  21.806  0.00  0.00    +0.000 NA
ATOM      7  N   UNL     1       0.532   9.176  21.697  0.00  0.00    +0.000 NA
ATOM      8  N   UNL     1       0.836   9.653  20.450  0.00  0.00    +0.000 N 
ATOM      9  C   UNL     1       0.480  10.977  20.033  0.00  0.00    +0.000 A 
ATOM     10  N   UNL     1      -0.072  11.809  20.950  0.00  0.00    +0.000 NA
ATOM     11  C   UNL     1      -0.391  13.055  20.536  0.00  0.00    +0.000 A 
ATOM     12  C   UNL     1      -0.202  13.489  19.247  0.00  0.00    +0.000 A 
ATOM     13  F   UNL     1      -0.542  14.724  18.861  0.00  0.00    +0.000 F 
ATOM     14  C   UNL     1       0.352  12.581  18.381  0.00  0.00    +0.000 A 
ATOM     15  N   UNL     1       0.716  11.329  18.742  0.00  0.00    +0.000 NA
ATOM     16  C   UNL     1       2.327   6.341  20.359  0.00  0.00    +0.000 C 
ATOM     17  N   UNL     1       3.187   6.505  19.159  0.00  0.00    +0.000 N 
ATOM     18  C   UNL     1       4.363   5.719  19.135  0.00  0.00    +0.000 C 
ATOM     19  O   UNL     1       4.615   4.922  20.036  0.00  0.00    +0.000 OA
ENDROOT
BRANCH  18  20
ATOM     20  C   UNL     1       5.353   5.822  18.017  0.00  0.00    +0.000 A 
ATOM     21  C   UNL     1       6.369   6.771  18.099  0.00  0.00    +0.000 A 
ATOM     22  C   UNL     1       7.351   6.788  17.136  0.00  0.00    +0.000 A 
ATOM     23  N   UNL     1       7.325   6.001  16.050  0.00  0.00    +0.000 NA
ATOM     24  C   UNL     1       6.255   5.159  15.882  0.00  0.00    +0.000 A 
ATOM     25  C   UNL     1       5.248   5.035  16.850  0.00  0.00    +0.000 A 
ATOM     26 CL   UNL     1       3.929   3.942  16.589  0.00  0.00    +0.000 Cl
BRANCH  24  27
ATOM     27  C   UNL     1       6.200   4.379  14.575  0.00  0.00    +0.000 C 
ATOM     28  F   UNL     1       6.268   3.024  14.749  0.00  0.00    +0.000 F 
ATOM     29  F   UNL     1       5.050   4.584  13.871  0.00  0.00    +0.000 F 
ATOM     30  F   UNL     1       7.226   4.678  13.728  0.00  0.00    +0.000 F 
ENDBRANCH  24  27
ENDBRANCH  18  20
TORSDOF 2
ENDMDL
MODEL 2
REMARK VINA RESULT:      -7.4      5.512     11.273
REMARK  Name = 
REMARK  3 active torsions:
REMARK  status: ('A' for Active; 'I' for Inactive)
REMARK    1  A    between atoms: C_1  and  C_2
REMARK    2  A    between atoms: C_18  and  C_20
REMARK    3  A    between atoms: C_24  and  C_25
REMARK                            x       y       z     vdW  Elec       q    Type
REMARK                         _______ _______ _______ _____ _____    ______ ____
ROOT
ATOM      1  C   UNL     1      -1.496  14.008  20.719  0.00  0.00    +0.000 C 
ATOM      2  C   UNL     1      -2.310  12.706  20.592  0.00  0.00    +0.000 C 
ATOM      3  C   UNL     1      -1.407  11.529  20.120  0.00  0.00    +0.000 C 
ATOM      4  C   UNL     1      -0.765  10.906  21.287  0.00  0.00    +0.000 A 
ATOM      5  C   UNL     1      -1.129  11.117  22.595  0.00  0.00    +0.000 A 
ATOM      6  N   UNL     1      -0.379  10.329  23.410  0.00  0.00    +0.000 NA
ATOM      7  N   UNL     1       0.429   9.598  22.646  0.00  0.00    +0.000 NA
ATOM      8  N   UNL     1       0.209   9.927  21.335  0.00  0.00    +0.000 N 
ATOM      9  C   UNL     1       0.916   9.292  20.262  0.00  0.00    +0.000 A 
ATOM     10  N   UNL     1       1.740   8.259  20.562  0.00  0.00    +0.000 NA
ATOM     11  C   UNL     1       2.389   7.671  19.533  0.00  0.00    +0.000 A 
ATOM     12  C   UNL     1       2.264   8.087  18.231  0.00  0.00    +0.000 A 
ATOM     13  F   UNL     1       2.931   7.496  17.233  0.00  0.00    +0.000 F 
ATOM     14  C   UNL     1       1.418   9.145  18.016  0.00  0.00    +0.000 A 
ATOM     15  N   UNL     1       0.721   9.758  19.000  0.00  0.00    +0.000 NA
ATOM     16  C   UNL     1      -2.197  12.047  23.042  0.00  0.00    +0.000 C 
ATOM     17  N   UNL     1      -3.038  12.430  21.878  0.00  0.00    +0.000 N 
ATOM     18  C   UNL     1      -4.392  12.716  22.167  0.00  0.00    +0.000 C 
ATOM     19  O   UNL     1      -4.817  12.689  23.321  0.00  0.00    +0.000 OA
ENDROOT
BRANCH  18  20
ATOM     20  C   UNL     1      -5.370  13.060  21.087  0.00  0.00    +0.000 A 
ATOM     21  C   UNL     1      -6.058  12.032  20.446  0.00  0.00    +0.000 A 
ATOM     22  C   UNL     1      -7.045  12.348  19.541  0.00  0.00    +0.000 A 
ATOM     23  N   UNL     1      -7.310  13.605  19.156  0.00  0.00    +0.000 NA
ATOM     24  C   UNL     1      -6.543  14.619  19.672  0.00  0.00    +0.000 A 
ATOM     25  C   UNL     1      -5.564  14.387  20.649  0.00  0.00    +0.000 A 
ATOM     26 CL   UNL     1      -4.639  15.711  21.275  0.00  0.00    +0.000 Cl
BRANCH  24  27
ATOM     27  C   UNL     1      -6.791  16.014  19.113  0.00  0.00    +0.000 C 
ATOM     28  F   UNL     1      -7.313  16.882  20.032  0.00  0.00    +0.000 F 
ATOM     29  F   UNL     1      -5.658  16.624  18.659  0.00  0.00    +0.000 F 
ATOM     30  F   UNL     1      -7.675  16.026  18.074  0.00  0.00    +0.000 F 
ENDBRANCH  24  27
ENDBRANCH  18  20
TORSDOF 2
ENDMDL
MODEL 3
REMARK VINA RESULT:      -7.4      2.891      3.867
REMARK  Name = 
REMARK  3 active torsions:
REMARK  status: ('A' for Active; 'I' for Inactive)
REMARK    1  A    between atoms: C_1  and  C_2
REMARK    2  A    between atoms: C_18  and  C_20
REMARK    3  A    between atoms: C_24  and  C_25
REMARK                            x       y       z     vdW  Elec       q    Type
REMARK                         _______ _______ _______ _____ _____    ______ ____
ROOT
ATOM      1  C   UNL     1      -0.079   9.583  17.791  0.00  0.00    +0.000 C 
ATOM      2  C   UNL     1       1.325   9.633  18.425  0.00  0.00    +0.000 C 
ATOM      3  C   UNL     1       1.846  11.098  18.507  0.00  0.00    +0.000 C 
ATOM      4  C   UNL     1       1.364  11.721  19.748  0.00  0.00    +0.000 A 
ATOM      5  C   UNL     1       0.807  11.045  20.806  0.00  0.00    +0.000 A 
ATOM      6  N   UNL     1       0.542  11.916  21.815  0.00  0.00    +0.000 NA
ATOM      7  N   UNL     1       0.950  13.124  21.433  0.00  0.00    +0.000 NA
ATOM      8  N   UNL     1       1.467  13.034  20.168  0.00  0.00    +0.000 N 
ATOM      9  C   UNL     1       2.011  14.169  19.484  0.00  0.00    +0.000 A 
ATOM     10  N   UNL     1       2.114  15.337  20.166  0.00  0.00    +0.000 NA
ATOM     11  C   UNL     1       2.638  16.391  19.503  0.00  0.00    +0.000 A 
ATOM     12  C   UNL     1       3.038  16.330  18.191  0.00  0.00    +0.000 A 
ATOM     13  F   UNL     1       3.539  17.394  17.554  0.00  0.00    +0.000 F 
ATOM     14  C   UNL     1       2.889  15.114  17.572  0.00  0.00    +0.000 A 
ATOM     15  N   UNL     1       2.395  14.016  18.190  0.00  0.00    +0.000 NA
ATOM     16  C   UNL     1       0.557   9.582  20.845  0.00  0.00    +0.000 C 
ATOM     17  N   UNL     1       1.314   8.922  19.749  0.00  0.00    +0.000 N 
ATOM     18  C   UNL     1       1.738   7.598  20.008  0.00  0.00    +0.000 C 
ATOM     19  O   UNL     1       1.450   7.030  21.059  0.00  0.00    +0.000 OA
ENDROOT
BRANCH  18  20
ATOM     20  C   UNL     1       2.558   6.830  19.018  0.00  0.00    +0.000 A 
ATOM     21  C   UNL     1       3.359   7.528  18.118  0.00  0.00    +0.000 A 
ATOM     22  C   UNL     1       4.207   6.828  17.290  0.00  0.00    +0.000 A 
ATOM     23  N   UNL     1       4.226   5.488  17.227  0.00  0.00    +0.000 NA
ATOM     24  C   UNL     1       3.341   4.787  18.006  0.00  0.00    +0.000 A 
ATOM     25  C   UNL     1       2.493   5.424  18.924  0.00  0.00    +0.000 A 
ATOM     26 CL   UNL     1       1.408   4.483  19.893  0.00  0.00    +0.000 Cl
BRANCH  24  27
ATOM     27  C   UNL     1       3.307   3.278  17.810  0.00  0.00    +0.000 C 
ATOM     28  F   UNL     1       4.292   2.816  16.981  0.00  0.00    +0.000 F 
ATOM     29  F   UNL     1       3.469   2.577  18.970  0.00  0.00    +0.000 F 
ATOM     30  F   UNL     1       2.143   2.835  17.255  0.00  0.00    +0.000 F 
ENDBRANCH  24  27
ENDBRANCH  18  20
TORSDOF 2
ENDMDL
MODEL 4
REMARK VINA RESULT:      -7.3      5.153     10.554
REMARK  Name = 
REMARK  3 active torsions:
REMARK  status: ('A' for Active; 'I' for Inactive)
REMARK    1  A    between atoms: C_1  and  C_2
REMARK    2  A    between atoms: C_18  and  C_20
REMARK    3  A    between atoms: C_24  and  C_25
REMARK                            x       y       z     vdW  Elec       q    Type
REMARK                         _______ _______ _______ _____ _____    ______ ____
ROOT
ATOM      1  C   UNL     1      -1.091  14.269  21.170  0.00  0.00    +0.000 C 
ATOM      2  C   UNL     1      -2.013  13.110  20.744  0.00  0.00    +0.000 C 
ATOM      3  C   UNL     1      -1.184  11.918  20.182  0.00  0.00    +0.000 C 
ATOM      4  C   UNL     1      -0.759  11.052  21.291  0.00  0.00    +0.000 A 
ATOM      5  C   UNL     1      -1.259  11.103  22.569  0.00  0.00    +0.000 A 
ATOM      6  N   UNL     1      -0.701  10.115  23.318  0.00  0.00    +0.000 NA
ATOM      7  N   UNL     1       0.117   9.417  22.533  0.00  0.00    +0.000 NA
ATOM      8  N   UNL     1       0.096   9.966  21.279  0.00  0.00    +0.000 N 
ATOM      9  C   UNL     1       0.861   9.421  20.197  0.00  0.00    +0.000 A 
ATOM     10  N   UNL     1       1.532   8.262  20.408  0.00  0.00    +0.000 NA
ATOM     11  C   UNL     1       2.239   7.763  19.370  0.00  0.00    +0.000 A 
ATOM     12  C   UNL     1       2.320   8.385  18.149  0.00  0.00    +0.000 A 
ATOM     13  F   UNL     1       3.041   7.877  17.143  0.00  0.00    +0.000 F 
ATOM     14  C   UNL     1       1.620   9.559  18.023  0.00  0.00    +0.000 A 
ATOM     15  N   UNL     1       0.874  10.094  19.016  0.00  0.00    +0.000 NA
ATOM     16  C   UNL     1      -2.272  12.077  23.049  0.00  0.00    +0.000 C 
ATOM     17  N   UNL     1      -2.919  12.732  21.882  0.00  0.00    +0.000 N 
ATOM     18  C   UNL     1      -4.262  13.133  22.070  0.00  0.00    +0.000 C 
ATOM     19  O   UNL     1      -4.827  12.982  23.151  0.00  0.00    +0.000 OA
ENDROOT
BRANCH  18  20
ATOM     20  C   UNL     1      -5.057  13.753  20.963  0.00  0.00    +0.000 A 
ATOM     21  C   UNL     1      -5.536  15.052  21.121  0.00  0.00    +0.000 A 
ATOM     22  C   UNL     1      -6.159  15.670  20.062  0.00  0.00    +0.000 A 
ATOM     23  N   UNL     1      -6.431  15.046  18.907  0.00  0.00    +0.000 NA
ATOM     24  C   UNL     1      -6.094  13.722  18.787  0.00  0.00    +0.000 A 
ATOM     25  C   UNL     1      -5.396  13.039  19.795  0.00  0.00    +0.000 A 
ATOM     26 CL   UNL     1      -4.982  11.371  19.580  0.00  0.00    +0.000 Cl
BRANCH  24  27
ATOM     27  C   UNL     1      -6.535  13.018  17.511  0.00  0.00    +0.000 C 
ATOM     28  F   UNL     1      -5.496  12.496  16.791  0.00  0.00    +0.000 F 
ATOM     29  F   UNL     1      -7.368  11.961  17.737  0.00  0.00    +0.000 F 
ATOM     30  F   UNL     1      -7.188  13.841  16.642  0.00  0.00    +0.000 F 
ENDBRANCH  24  27
ENDBRANCH  18  20
TORSDOF 2
ENDMDL
MODEL 5
REMARK VINA RESULT:      -7.0      0.827      1.028
REMARK  Name = 
REMARK  3 active torsions:
REMARK  status: ('A' for Active; 'I' for Inactive)
REMARK    1  A    between atoms: C_1  and  C_2
REMARK    2  A    between atoms: C_18  and  C_20
REMARK    3  A    between atoms: C_24  and  C_25
REMARK                            x       y       z     vdW  Elec       q    Type
REMARK                         _______ _______ _______ _____ _____    ______ ____
ROOT
ATOM      1  C   UNL     1       1.531   6.721  17.454  0.00  0.00    +0.000 C 
ATOM      2  C   UNL     1       2.662   7.227  18.370  0.00  0.00    +0.000 C 
ATOM      3  C   UNL     1       2.378   8.681  18.851  0.00  0.00    +0.000 C 
ATOM      4  C   UNL     1       1.541   8.642  20.059  0.00  0.00    +0.000 A 
ATOM      5  C   UNL     1       1.300   7.522  20.817  0.00  0.00    +0.000 A 
ATOM      6  N   UNL     1       0.549   7.856  21.900  0.00  0.00    +0.000 NA
ATOM      7  N   UNL     1       0.337   9.170  21.862  0.00  0.00    +0.000 NA
ATOM      8  N   UNL     1       0.941   9.681  20.745  0.00  0.00    +0.000 N 
ATOM      9  C   UNL     1       0.909  11.079  20.433  0.00  0.00    +0.000 A 
ATOM     10  N   UNL     1       0.358  11.924  21.340  0.00  0.00    +0.000 NA
ATOM     11  C   UNL     1       0.347  13.239  21.028  0.00  0.00    +0.000 A 
ATOM     12  C   UNL     1       0.840  13.734  19.847  0.00  0.00    +0.000 A 
ATOM     13  F   UNL     1       0.803  15.039  19.558  0.00  0.00    +0.000 F 
ATOM     14  C   UNL     1       1.370  12.810  18.981  0.00  0.00    +0.000 A 
ATOM     15  N   UNL     1       1.433  11.486  19.248  0.00  0.00    +0.000 NA
ATOM     16  C   UNL     1       1.807   6.160  20.510  0.00  0.00    +0.000 C 
ATOM     17  N   UNL     1       2.885   6.253  19.492  0.00  0.00    +0.000 N 
ATOM     18  C   UNL     1       3.886   5.255  19.566  0.00  0.00    +0.000 C 
ATOM     19  O   UNL     1       3.824   4.352  20.397  0.00  0.00    +0.000 OA
ENDROOT
BRANCH  18  20
ATOM     20  C   UNL     1       5.064   5.256  18.642  0.00  0.00    +0.000 A 
ATOM     21  C   UNL     1       6.235   5.895  19.041  0.00  0.00    +0.000 A 
ATOM     22  C   UNL     1       7.358   5.794  18.251  0.00  0.00    +0.000 A 
ATOM     23  N   UNL     1       7.356   5.196  17.051  0.00  0.00    +0.000 NA
ATOM     24  C   UNL     1       6.173   4.685  16.580  0.00  0.00    +0.000 A 
ATOM     25  C   UNL     1       5.002   4.689  17.352  0.00  0.00    +0.000 A 
ATOM     26 CL   UNL     1       3.542   4.014  16.709  0.00  0.00    +0.000 Cl
BRANCH  24  27
ATOM     27  C   UNL     1       6.187   4.131  15.162  0.00  0.00    +0.000 C 
ATOM     28  F   UNL     1       7.390   4.284  14.530  0.00  0.00    +0.000 F 
ATOM     29  F   UNL     1       5.928   2.792  15.101  0.00  0.00    +0.000 F 
ATOM     30  F   UNL     1       5.278   4.733  14.342  0.00  0.00    +0.000 F 
ENDBRANCH  24  27
ENDBRANCH  18  20
TORSDOF 2
ENDMDL
MODEL 6
REMARK VINA RESULT:      -6.9      6.847      8.442
REMARK  Name = 
REMARK  3 active torsions:
REMARK  status: ('A' for Active; 'I' for Inactive)
REMARK    1  A    between atoms: C_1  and  C_2
REMARK    2  A    between atoms: C_18  and  C_20
REMARK    3  A    between atoms: C_24  and  C_25
REMARK                            x       y       z     vdW  Elec       q    Type
REMARK                         _______ _______ _______ _____ _____    ______ ____
ROOT
ATOM      1  C   UNL     1       5.748  16.074  21.849  0.00  0.00    +0.000 C 
ATOM      2  C   UNL     1       5.887  15.224  20.572  0.00  0.00    +0.000 C 
ATOM      3  C   UNL     1       4.542  14.520  20.224  0.00  0.00    +0.000 C 
ATOM      4  C   UNL     1       3.709  15.426  19.420  0.00  0.00    +0.000 A 
ATOM      5  C   UNL     1       4.151  16.576  18.815  0.00  0.00    +0.000 A 
ATOM      6  N   UNL     1       3.141  17.130  18.093  0.00  0.00    +0.000 NA
ATOM      7  N   UNL     1       2.078  16.336  18.200  0.00  0.00    +0.000 NA
ATOM      8  N   UNL     1       2.400  15.277  19.005  0.00  0.00    +0.000 N 
ATOM      9  C   UNL     1       1.465  14.231  19.297  0.00  0.00    +0.000 A 
ATOM     10  N   UNL     1       0.268  14.246  18.659  0.00  0.00    +0.000 NA
ATOM     11  C   UNL     1      -0.593  13.245  18.945  0.00  0.00    +0.000 A 
ATOM     12  C   UNL     1      -0.316  12.252  19.851  0.00  0.00    +0.000 A 
ATOM     13  F   UNL     1      -1.195  11.281  20.126  0.00  0.00    +0.000 F 
ATOM     14  C   UNL     1       0.912  12.317  20.459  0.00  0.00    +0.000 A 
ATOM     15  N   UNL     1       1.826  13.278  20.196  0.00  0.00    +0.000 NA
ATOM     16  C   UNL     1       5.531  17.117  18.917  0.00  0.00    +0.000 C 
ATOM     17  N   UNL     1       6.434  16.066  19.454  0.00  0.00    +0.000 N 
ATOM     18  C   UNL     1       7.778  16.128  19.014  0.00  0.00    +0.000 C 
ATOM     19  O   UNL     1       8.164  17.029  18.273  0.00  0.00    +0.000 OA
ENDROOT
BRANCH  18  20
ATOM     20  C   UNL     1       8.786  15.102  19.427  0.00  0.00    +0.000 A 
ATOM     21  C   UNL     1       9.722  15.430  20.406  0.00  0.00    +0.000 A 
ATOM     22  C   UNL     1      10.570  14.454  20.877  0.00  0.00    +0.000 A 
ATOM     23  N   UNL     1      10.619  13.217  20.362  0.00  0.00    +0.000 NA
ATOM     24  C   UNL     1       9.802  12.920  19.301  0.00  0.00    +0.000 A 
ATOM     25  C   UNL     1       8.863  13.837  18.808  0.00  0.00    +0.000 A 
ATOM     26 CL   UNL     1       7.846  13.399  17.475  0.00  0.00    +0.000 Cl
BRANCH  24  27
ATOM     27  C   UNL     1       9.981  11.548  18.666  0.00  0.00    +0.000 C 
ATOM     28  F   UNL     1      10.882  10.758  19.325  0.00  0.00    +0.000 F 
ATOM     29  F   UNL     1       8.831  10.814  18.632  0.00  0.00    +0.000 F 
ATOM     30  F   UNL     1      10.436  11.606  17.381  0.00  0.00    +0.000 F 
ENDBRANCH  24  27
ENDBRANCH  18  20
TORSDOF 2
ENDMDL
MODEL 7
REMARK VINA RESULT:      -6.7      5.161     10.902
REMARK  Name = 
REMARK  3 active torsions:
REMARK  status: ('A' for Active; 'I' for Inactive)
REMARK    1  A    between atoms: C_1  and  C_2
REMARK    2  A    between atoms: C_18  and  C_20
REMARK    3  A    between atoms: C_24  and  C_25
REMARK                            x       y       z     vdW  Elec       q    Type
REMARK                         _______ _______ _______ _____ _____    ______ ____
ROOT
ATOM      1  C   UNL     1      -0.407  14.357  21.918  0.00  0.00    +0.000 C 
ATOM      2  C   UNL     1      -1.467  13.377  21.379  0.00  0.00    +0.000 C 
ATOM      3  C   UNL     1      -0.795  12.183  20.639  0.00  0.00    +0.000 C 
ATOM      4  C   UNL     1      -0.452  11.135  21.611  0.00  0.00    +0.000 A 
ATOM      5  C   UNL     1      -0.916  11.073  22.902  0.00  0.00    +0.000 A 
ATOM      6  N   UNL     1      -0.462   9.938  23.497  0.00  0.00    +0.000 NA
ATOM      7  N   UNL     1       0.251   9.262  22.599  0.00  0.00    +0.000 NA
ATOM      8  N   UNL     1       0.269   9.970  21.428  0.00  0.00    +0.000 N 
ATOM      9  C   UNL     1       0.943   9.491  20.258  0.00  0.00    +0.000 A 
ATOM     10  N   UNL     1       1.477   8.245  20.293  0.00  0.00    +0.000 NA
ATOM     11  C   UNL     1       2.100   7.811  19.175  0.00  0.00    +0.000 A 
ATOM     12  C   UNL     1       2.228   8.575  18.043  0.00  0.00    +0.000 A 
ATOM     13  F   UNL     1       2.864   8.126  16.955  0.00  0.00    +0.000 F 
ATOM     14  C   UNL     1       1.668   9.827  18.095  0.00  0.00    +0.000 A 
ATOM     15  N   UNL     1       1.010  10.307  19.174  0.00  0.00    +0.000 NA
ATOM     16  C   UNL     1      -1.799  12.084  23.539  0.00  0.00    +0.000 C 
ATOM     17  N   UNL     1      -2.387  12.957  22.490  0.00  0.00    +0.000 N 
ATOM     18  C   UNL     1      -3.671  13.479  22.776  0.00  0.00    +0.000 C 
ATOM     19  O   UNL     1      -4.227  13.251  23.848  0.00  0.00    +0.000 OA
ENDROOT
BRANCH  18  20
ATOM     20  C   UNL     1      -4.410  14.326  21.788  0.00  0.00    +0.000 A 
ATOM     21  C   UNL     1      -4.311  15.713  21.879  0.00  0.00    +0.000 A 
ATOM     22  C   UNL     1      -4.886  16.492  20.902  0.00  0.00    +0.000 A 
ATOM     23  N   UNL     1      -5.639  15.989  19.913  0.00  0.00    +0.000 NA
ATOM     24  C   UNL     1      -5.865  14.636  19.891  0.00  0.00    +0.000 A 
ATOM     25  C   UNL     1      -5.259  13.767  20.810  0.00  0.00    +0.000 A 
ATOM     26 CL   UNL     1      -5.569  12.065  20.722  0.00  0.00    +0.000 Cl
BRANCH  24  27
ATOM     27  C   UNL     1      -6.827  14.122  18.829  0.00  0.00    +0.000 C 
ATOM     28  F   UNL     1      -7.419  15.120  18.105  0.00  0.00    +0.000 F 
ATOM     29  F   UNL     1      -6.230  13.323  17.899  0.00  0.00    +0.000 F 
ATOM     30  F   UNL     1      -7.862  13.401  19.347  0.00  0.00    +0.000 F 
ENDBRANCH  24  27
ENDBRANCH  18  20
TORSDOF 2
ENDMDL
MODEL 8
REMARK VINA RESULT:      -6.5      2.720      4.078
REMARK  Name = 
REMARK  3 active torsions:
REMARK  status: ('A' for Active; 'I' for Inactive)
REMARK    1  A    between atoms: C_1  and  C_2
REMARK    2  A    between atoms: C_18  and  C_20
REMARK    3  A    between atoms: C_24  and  C_25
REMARK                            x       y       z     vdW  Elec       q    Type
REMARK                         _______ _______ _______ _____ _____    ______ ____
ROOT
ATOM      1  C   UNL     1      -0.775   9.917  18.436  0.00  0.00    +0.000 C 
ATOM      2  C   UNL     1       0.619  10.083  19.071  0.00  0.00    +0.000 C 
ATOM      3  C   UNL     1       0.954  11.588  19.291  0.00  0.00    +0.000 C 
ATOM      4  C   UNL     1       0.412  12.027  20.585  0.00  0.00    +0.000 A 
ATOM      5  C   UNL     1      -0.043  11.191  21.575  0.00  0.00    +0.000 A 
ATOM      6  N   UNL     1      -0.403  11.923  22.662  0.00  0.00    +0.000 NA
ATOM      7  N   UNL     1      -0.153  13.203  22.395  0.00  0.00    +0.000 NA
ATOM      8  N   UNL     1       0.355  13.297  21.127  0.00  0.00    +0.000 N 
ATOM      9  C   UNL     1       0.745  14.550  20.553  0.00  0.00    +0.000 A 
ATOM     10  N   UNL     1       0.710  15.653  21.342  0.00  0.00    +0.000 NA
ATOM     11  C   UNL     1       1.091  16.822  20.781  0.00  0.00    +0.000 A 
ATOM     12  C   UNL     1       1.479  16.934  19.470  0.00  0.00    +0.000 A 
ATOM     13  F   UNL     1       1.836  18.108  18.936  0.00  0.00    +0.000 F 
ATOM     14  C   UNL     1       1.476  15.773  18.739  0.00  0.00    +0.000 A 
ATOM     15  N   UNL     1       1.130  14.569  19.251  0.00  0.00    +0.000 NA
ATOM     16  C   UNL     1      -0.108   9.710  21.476  0.00  0.00    +0.000 C 
ATOM     17  N   UNL     1       0.712   9.256  20.322  0.00  0.00    +0.000 N 
ATOM     18  C   UNL     1       1.301   7.977  20.455  0.00  0.00    +0.000 C 
ATOM     19  O   UNL     1       1.099   7.282  21.448  0.00  0.00    +0.000 OA
ENDROOT
BRANCH  18  20
ATOM     20  C   UNL     1       2.199   7.414  19.397  0.00  0.00    +0.000 A 
ATOM     21  C   UNL     1       2.584   8.228  18.334  0.00  0.00    +0.000 A 
ATOM     22  C   UNL     1       3.505   7.756  17.427  0.00  0.00    +0.000 A 
ATOM     23  N   UNL     1       3.978   6.501  17.450  0.00  0.00    +0.000 NA
ATOM     24  C   UNL     1       3.500   5.643  18.407  0.00  0.00    +0.000 A 
ATOM     25  C   UNL     1       2.612   6.065  19.407  0.00  0.00    +0.000 A 
ATOM     26 CL   UNL     1       2.056   4.938  20.600  0.00  0.00    +0.000 Cl
BRANCH  24  27
ATOM     27  C   UNL     1       3.964   4.195  18.318  0.00  0.00    +0.000 C 
ATOM     28  F   UNL     1       4.796   3.956  17.259  0.00  0.00    +0.000 F 
ATOM     29  F   UNL     1       4.666   3.784  19.413  0.00  0.00    +0.000 F 
ATOM     30  F   UNL     1       2.937   3.310  18.167  0.00  0.00    +0.000 F 
ENDBRANCH  24  27
ENDBRANCH  18  20
TORSDOF 2
ENDMDL
MODEL 9
REMARK VINA RESULT:      -6.5      6.714      8.451
REMARK  Name = 
REMARK  3 active torsions:
REMARK  status: ('A' for Active; 'I' for Inactive)
REMARK    1  A    between atoms: C_1  and  C_2
REMARK    2  A    between atoms: C_18  and  C_20
REMARK    3  A    between atoms: C_24  and  C_25
REMARK                            x       y       z     vdW  Elec       q    Type
REMARK                         _______ _______ _______ _____ _____    ______ ____
ROOT
ATOM      1  C   UNL     1       4.502  15.362  22.222  0.00  0.00    +0.000 C 
ATOM      2  C   UNL     1       4.803  14.923  20.776  0.00  0.00    +0.000 C 
ATOM      3  C   UNL     1       3.618  14.102  20.186  0.00  0.00    +0.000 C 
ATOM      4  C   UNL     1       2.628  15.020  19.605  0.00  0.00    +0.000 A 
ATOM      5  C   UNL     1       2.842  16.351  19.345  0.00  0.00    +0.000 A 
ATOM      6  N   UNL     1       1.745  16.881  18.741  0.00  0.00    +0.000 NA
ATOM      7  N   UNL     1       0.854  15.905  18.581  0.00  0.00    +0.000 NA
ATOM      8  N   UNL     1       1.372  14.748  19.096  0.00  0.00    +0.000 N 
ATOM      9  C   UNL     1       0.655  13.508  19.056  0.00  0.00    +0.000 A 
ATOM     10  N   UNL     1      -0.522  13.472  18.382  0.00  0.00    +0.000 NA
ATOM     11  C   UNL     1      -1.176  12.289  18.351  0.00  0.00    +0.000 A 
ATOM     12  C   UNL     1      -0.715  11.159  18.979  0.00  0.00    +0.000 A 
ATOM     13  F   UNL     1      -1.391  10.006  18.944  0.00  0.00    +0.000 F 
ATOM     14  C   UNL     1       0.478  11.285  19.646  0.00  0.00    +0.000 A 
ATOM     15  N   UNL     1       1.191  12.434  19.692  0.00  0.00    +0.000 NA
ATOM     16  C   UNL     1       4.093  17.089  19.657  0.00  0.00    +0.000 C 
ATOM     17  N   UNL     1       5.180  16.119  19.947  0.00  0.00    +0.000 N 
ATOM     18  C   UNL     1       6.487  16.543  19.610  0.00  0.00    +0.000 C 
ATOM     19  O   UNL     1       6.694  17.664  19.152  0.00  0.00    +0.000 OA
ENDROOT
BRANCH  18  20
ATOM     20  C   UNL     1       7.673  15.648  19.793  0.00  0.00    +0.000 A 
ATOM     21  C   UNL     1       8.554  15.900  20.843  0.00  0.00    +0.000 A 
ATOM     22  C   UNL     1       9.574  15.011  21.090  0.00  0.00    +0.000 A 
ATOM     23  N   UNL     1       9.836  13.959  20.300  0.00  0.00    +0.000 NA
ATOM     24  C   UNL     1       9.065  13.778  19.180  0.00  0.00    +0.000 A 
ATOM     25  C   UNL     1       7.964  14.600  18.895  0.00  0.00    +0.000 A 
ATOM     26 CL   UNL     1       7.017  14.313  17.473  0.00  0.00    +0.000 Cl
BRANCH  24  27
ATOM     27  C   UNL     1       9.476  12.650  18.243  0.00  0.00    +0.000 C 
ATOM     28  F   UNL     1       8.458  11.781  17.961  0.00  0.00    +0.000 F 
ATOM     29  F   UNL     1       9.908  13.089  17.026  0.00  0.00    +0.000 F 
ATOM     30  F   UNL     1      10.476  11.872  18.747  0.00  0.00    +0.000 F 
ENDBRANCH  24  27
ENDBRANCH  18  20
TORSDOF 2
ENDMDL
