MODEL 1
REMARK VINA RESULT:      -8.0      0.000      0.000
REMARK  Name = 
REMARK  12 active torsions:
REMARK  status: ('A' for Active; 'I' for Inactive)
REMARK    1  A    between atoms: C_1  and  C_2
REMARK    2  A    between atoms: C_2  and  C_3
REMARK    3  A    between atoms: C_2  and  C_4
REMARK    4  A    between atoms: N_6  and  C_7
REMARK    5  A    between atoms: C_7  and  C_8
REMARK    6  A    between atoms: N_10  and  C_11
REMARK    7  A    between atoms: C_15  and  C_16
REMARK    8  A    between atoms: C_16  and  C_18
REMARK    9  A    between atoms: N_20  and  C_21
REMARK   10  A    between atoms: C_21  and  C_22
REMARK   11  A    between atoms: C_21  and  C_23
REMARK   12  A    between atoms: C_23  and  O_24
REMARK                            x       y       z     vdW  Elec       q    Type
REMARK                         _______ _______ _______ _____ _____    ______ ____
ROOT
ATOM      1  C   UNL     1       0.562   9.720  20.437  0.00  0.00    +0.000 A 
ATOM      2  C   UNL     1       0.712   8.823  21.495  0.00  0.00    +0.000 A 
ATOM      3  N   UNL     1       1.403   7.659  21.407  0.00  0.00    +0.000 NA
ATOM      4  C   UNL     1       2.009   7.397  20.225  0.00  0.00    +0.000 A 
ATOM      5  C   UNL     1       1.943   8.245  19.128  0.00  0.00    +0.000 A 
ATOM      6  C   UNL     1       1.160   9.399  19.222  0.00  0.00    +0.000 A 
ENDROOT
BRANCH   1   9
ATOM      7  C   UNL     1       0.422  12.127  20.907  0.00  0.00    +0.000 C 
ATOM      8  O   UNL     1       1.620  12.273  21.139  0.00  0.00    +0.000 OA
ATOM      9  N   UNL     1      -0.160  10.928  20.524  0.00  0.00    +0.000 N 
ATOM     10  H   UNL     1      -1.026  10.987  19.997  0.00  0.00    +0.000 HD
BRANCH   7  11
ATOM     11  C   UNL     1      -0.542  13.285  20.995  0.00  0.00    +0.000 C 
BRANCH  11  14
ATOM     12  C   UNL     1      -3.514  12.901  22.949  0.00  0.00    +0.000 A 
ATOM     13  C   UNL     1      -2.881  13.533  21.901  0.00  0.00    +0.000 A 
ATOM     14  N   UNL     1      -1.637  12.983  21.884  0.00  0.00    +0.000 N 
ATOM     15  N   UNL     1      -1.479  12.090  22.877  0.00  0.00    +0.000 NA
ATOM     16  N   UNL     1      -2.629  12.030  23.540  0.00  0.00    +0.000 NA
BRANCH  12  18
ATOM     17  C   UNL     1      -5.169  12.272  24.713  0.00  0.00    +0.000 C 
ATOM     18  C   UNL     1      -4.928  13.042  23.414  0.00  0.00    +0.000 C 
ATOM     19  C   UNL     1      -5.343  14.504  23.568  0.00  0.00    +0.000 C 
ENDBRANCH  12  18
ENDBRANCH  11  14
ENDBRANCH   7  11
ENDBRANCH   1   9
BRANCH   5  20
ATOM     20  C   UNL     1       2.662   7.877  17.893  0.00  0.00    +0.000 C 
ATOM     21  O   UNL     1       2.575   8.626  16.925  0.00  0.00    +0.000 OA
BRANCH  20  22
ATOM     22  C   UNL     1       3.487   6.670  17.853  0.00  0.00    +0.000 A 
ATOM     23  C   UNL     1       4.870   6.572  17.900  0.00  0.00    +0.000 A 
ATOM     24  N   UNL     1       5.222   5.234  17.849  0.00  0.00    +0.000 N 
ATOM     25  C   UNL     1       4.076   4.474  17.820  0.00  0.00    +0.000 A 
ATOM     26  N   UNL     1       4.027   3.131  17.816  0.00  0.00    +0.000 NA
ATOM     27  C   UNL     1       2.756   2.679  17.767  0.00  0.00    +0.000 A 
ATOM     28  N   UNL     1       1.622   3.397  17.706  0.00  0.00    +0.000 NA
ATOM     29  C   UNL     1       1.732   4.742  17.734  0.00  0.00    +0.000 A 
ATOM     30  C   UNL     1       2.988   5.337  17.800  0.00  0.00    +0.000 A 
BRANCH  24  31
ATOM     31  C   UNL     1       6.599   4.730  17.809  0.00  0.00    +0.000 C 
ATOM     32  C   UNL     1       7.544   5.608  18.631  0.00  0.00    +0.000 C 
BRANCH  31  33
ATOM     33  C   UNL     1       7.111   4.495  16.376  0.00  0.00    +0.000 C 
BRANCH  33  34
ATOM     34  O   UNL     1       7.465   5.688  15.685  0.00  0.00    +0.000 OA
ATOM     35  H   UNL     1       6.923   6.415  16.056  0.00  0.00    +0.000 HD
ENDBRANCH  33  34
ENDBRANCH  31  33
ENDBRANCH  24  31
ENDBRANCH  20  22
ENDBRANCH   5  20
TORSDOF 9
ENDMDL
MODEL 2
REMARK VINA RESULT:      -8.0      1.296      1.380
REMARK  Name = 
REMARK  12 active torsions:
REMARK  status: ('A' for Active; 'I' for Inactive)
REMARK    1  A    between atoms: C_1  and  C_2
REMARK    2  A    between atoms: C_2  and  C_3
REMARK    3  A    between atoms: C_2  and  C_4
REMARK    4  A    between atoms: N_6  and  C_7
REMARK    5  A    between atoms: C_7  and  C_8
REMARK    6  A    between atoms: N_10  and  C_11
REMARK    7  A    between atoms: C_15  and  C_16
REMARK    8  A    between atoms: C_16  and  C_18
REMARK    9  A    between atoms: N_20  and  C_21
REMARK   10  A    between atoms: C_21  and  C_22
REMARK   11  A    between atoms: C_21  and  C_23
REMARK   12  A    between atoms: C_23  and  O_24
REMARK                            x       y       z     vdW  Elec       q    Type
REMARK                         _______ _______ _______ _____ _____    ______ ____
ROOT
ATOM      1  C   UNL     1       0.535   9.795  20.460  0.00  0.00    +0.000 A 
ATOM      2  C   UNL     1       0.672   8.899  21.520  0.00  0.00    +0.000 A 
ATOM      3  N   UNL     1       1.350   7.727  21.435  0.00  0.00    +0.000 NA
ATOM      4  C   UNL     1       1.955   7.455  20.255  0.00  0.00    +0.000 A 
ATOM      5  C   UNL     1       1.901   8.302  19.156  0.00  0.00    +0.000 A 
ATOM      6  C   UNL     1       1.131   9.465  19.246  0.00  0.00    +0.000 A 
ENDROOT
BRANCH   1   9
ATOM      7  C   UNL     1      -1.245  11.318  19.719  0.00  0.00    +0.000 C 
ATOM      8  O   UNL     1      -1.725  10.545  18.891  0.00  0.00    +0.000 OA
ATOM      9  N   UNL     1      -0.173  11.012  20.543  0.00  0.00    +0.000 N 
ATOM     10  H   UNL     1      -0.106  11.525  21.417  0.00  0.00    +0.000 HD
BRANCH   7  11
ATOM     11  C   UNL     1      -1.820  12.696  19.932  0.00  0.00    +0.000 C 
BRANCH  11  14
ATOM     12  C   UNL     1      -4.810  12.810  21.894  0.00  0.00    +0.000 A 
ATOM     13  C   UNL     1      -4.209  13.018  20.672  0.00  0.00    +0.000 A 
ATOM     14  N   UNL     1      -2.911  12.664  20.876  0.00  0.00    +0.000 N 
ATOM     15  N   UNL     1      -2.696  12.293  22.150  0.00  0.00    +0.000 NA
ATOM     16  N   UNL     1      -3.859  12.378  22.787  0.00  0.00    +0.000 NA
BRANCH  12  18
ATOM     17  C   UNL     1      -7.143  12.035  21.444  0.00  0.00    +0.000 C 
ATOM     18  C   UNL     1      -6.249  12.962  22.268  0.00  0.00    +0.000 C 
ATOM     19  C   UNL     1      -6.485  12.749  23.763  0.00  0.00    +0.000 C 
ENDBRANCH  12  18
ENDBRANCH  11  14
ENDBRANCH   7  11
ENDBRANCH   1   9
BRANCH   5  20
ATOM     20  C   UNL     1       2.618   7.922  17.923  0.00  0.00    +0.000 C 
ATOM     21  O   UNL     1       2.538   8.668  16.952  0.00  0.00    +0.000 OA
BRANCH  20  22
ATOM     22  C   UNL     1       3.433   6.709  17.890  0.00  0.00    +0.000 A 
ATOM     23  C   UNL     1       4.816   6.599  17.944  0.00  0.00    +0.000 A 
ATOM     24  N   UNL     1       5.156   5.259  17.896  0.00  0.00    +0.000 N 
ATOM     25  C   UNL     1       4.004   4.508  17.862  0.00  0.00    +0.000 A 
ATOM     26  N   UNL     1       3.944   3.165  17.859  0.00  0.00    +0.000 NA
ATOM     27  C   UNL     1       2.670   2.724  17.803  0.00  0.00    +0.000 A 
ATOM     28  N   UNL     1       1.542   3.451  17.734  0.00  0.00    +0.000 NA
ATOM     29  C   UNL     1       1.664   4.796  17.762  0.00  0.00    +0.000 A 
ATOM     30  C   UNL     1       2.924   5.380  17.835  0.00  0.00    +0.000 A 
BRANCH  24  31
ATOM     31  C   UNL     1       6.529   4.743  17.864  0.00  0.00    +0.000 C 
ATOM     32  C   UNL     1       7.474   5.606  18.704  0.00  0.00    +0.000 C 
BRANCH  31  33
ATOM     33  C   UNL     1       7.053   4.517  16.434  0.00  0.00    +0.000 C 
BRANCH  33  34
ATOM     34  O   UNL     1       7.516   5.701  15.793  0.00  0.00    +0.000 OA
ATOM     35  H   UNL     1       8.327   5.992  16.261  0.00  0.00    +0.000 HD
ENDBRANCH  33  34
ENDBRANCH  31  33
ENDBRANCH  24  31
ENDBRANCH  20  22
ENDBRANCH   5  20
TORSDOF 9
ENDMDL
MODEL 3
REMARK VINA RESULT:      -7.9      3.585      4.671
REMARK  Name = 
REMARK  12 active torsions:
REMARK  status: ('A' for Active; 'I' for Inactive)
REMARK    1  A    between atoms: C_1  and  C_2
REMARK    2  A    between atoms: C_2  and  C_3
REMARK    3  A    between atoms: C_2  and  C_4
REMARK    4  A    between atoms: N_6  and  C_7
REMARK    5  A    between atoms: C_7  and  C_8
REMARK    6  A    between atoms: N_10  and  C_11
REMARK    7  A    between atoms: C_15  and  C_16
REMARK    8  A    between atoms: C_16  and  C_18
REMARK    9  A    between atoms: N_20  and  C_21
REMARK   10  A    between atoms: C_21  and  C_22
REMARK   11  A    between atoms: C_21  and  C_23
REMARK   12  A    between atoms: C_23  and  O_24
REMARK                            x       y       z     vdW  Elec       q    Type
REMARK                         _______ _______ _______ _____ _____    ______ ____
ROOT
ATOM      1  C   UNL     1       1.984   7.107  19.325  0.00  0.00    +0.000 A 
ATOM      2  C   UNL     1       1.858   6.531  20.589  0.00  0.00    +0.000 A 
ATOM      3  N   UNL     1       2.010   5.206  20.835  0.00  0.00    +0.000 NA
ATOM      4  C   UNL     1       2.347   4.424  19.782  0.00  0.00    +0.000 A 
ATOM      5  C   UNL     1       2.527   4.913  18.495  0.00  0.00    +0.000 A 
ATOM      6  C   UNL     1       2.287   6.268  18.256  0.00  0.00    +0.000 A 
ENDROOT
BRANCH   1   9
ATOM      7  C   UNL     1       0.972   9.294  19.802  0.00  0.00    +0.000 C 
ATOM      8  O   UNL     1       0.334   8.917  20.784  0.00  0.00    +0.000 OA
ATOM      9  N   UNL     1       1.822   8.483  19.065  0.00  0.00    +0.000 N 
ATOM     10  H   UNL     1       2.567   8.946  18.553  0.00  0.00    +0.000 HD
BRANCH   7  11
ATOM     11  C   UNL     1       0.900  10.721  19.318  0.00  0.00    +0.000 C 
BRANCH  11  14
ATOM     12  C   UNL     1      -2.126  10.883  17.417  0.00  0.00    +0.000 A 
ATOM     13  C   UNL     1      -1.031  10.142  17.805  0.00  0.00    +0.000 A 
ATOM     14  N   UNL     1      -0.343  10.975  18.632  0.00  0.00    +0.000 N 
ATOM     15  N   UNL     1      -0.940  12.176  18.730  0.00  0.00    +0.000 NA
ATOM     16  N   UNL     1      -2.040  12.132  17.986  0.00  0.00    +0.000 NA
BRANCH  12  18
ATOM     17  C   UNL     1      -4.488  11.385  16.773  0.00  0.00    +0.000 C 
ATOM     18  C   UNL     1      -3.279  10.473  16.559  0.00  0.00    +0.000 C 
ATOM     19  C   UNL     1      -2.906  10.410  15.078  0.00  0.00    +0.000 C 
ENDBRANCH  12  18
ENDBRANCH  11  14
ENDBRANCH   7  11
ENDBRANCH   1   9
BRANCH   5  20
ATOM     20  C   UNL     1       2.919   3.978  17.422  0.00  0.00    +0.000 C 
ATOM     21  O   UNL     1       2.096   3.152  17.042  0.00  0.00    +0.000 OA
BRANCH  20  22
ATOM     22  C   UNL     1       4.243   4.075  16.809  0.00  0.00    +0.000 A 
ATOM     23  C   UNL     1       4.580   3.961  15.468  0.00  0.00    +0.000 A 
ATOM     24  N   UNL     1       5.947   4.134  15.338  0.00  0.00    +0.000 N 
ATOM     25  C   UNL     1       6.481   4.407  16.576  0.00  0.00    +0.000 A 
ATOM     26  N   UNL     1       7.772   4.679  16.830  0.00  0.00    +0.000 NA
ATOM     27  C   UNL     1       7.987   4.887  18.147  0.00  0.00    +0.000 A 
ATOM     28  N   UNL     1       7.099   4.830  19.152  0.00  0.00    +0.000 NA
ATOM     29  C   UNL     1       5.812   4.573  18.834  0.00  0.00    +0.000 A 
ATOM     30  C   UNL     1       5.452   4.355  17.508  0.00  0.00    +0.000 A 
BRANCH  24  31
ATOM     31  C   UNL     1       6.691   4.019  14.079  0.00  0.00    +0.000 C 
ATOM     32  C   UNL     1       7.471   5.297  13.766  0.00  0.00    +0.000 C 
BRANCH  31  33
ATOM     33  C   UNL     1       5.811   3.562  12.901  0.00  0.00    +0.000 C 
BRANCH  33  34
ATOM     34  O   UNL     1       6.370   2.498  12.139  0.00  0.00    +0.000 OA
ATOM     35  H   UNL     1       7.292   2.747  11.918  0.00  0.00    +0.000 HD
ENDBRANCH  33  34
ENDBRANCH  31  33
ENDBRANCH  24  31
ENDBRANCH  20  22
ENDBRANCH   5  20
TORSDOF 9
ENDMDL
MODEL 4
REMARK VINA RESULT:      -7.8      2.139      2.423
REMARK  Name = 
REMARK  12 active torsions:
REMARK  status: ('A' for Active; 'I' for Inactive)
REMARK    1  A    between atoms: C_1  and  C_2
REMARK    2  A    between atoms: C_2  and  C_3
REMARK    3  A    between atoms: C_2  and  C_4
REMARK    4  A    between atoms: N_6  and  C_7
REMARK    5  A    between atoms: C_7  and  C_8
REMARK    6  A    between atoms: N_10  and  C_11
REMARK    7  A    between atoms: C_15  and  C_16
REMARK    8  A    between atoms: C_16  and  C_18
REMARK    9  A    between atoms: N_20  and  C_21
REMARK   10  A    between atoms: C_21  and  C_22
REMARK   11  A    between atoms: C_21  and  C_23
REMARK   12  A    between atoms: C_23  and  O_24
REMARK                            x       y       z     vdW  Elec       q    Type
REMARK                         _______ _______ _______ _____ _____    ______ ____
ROOT
ATOM      1  C   UNL     1       0.128   9.642  20.322  0.00  0.00    +0.000 A 
ATOM      2  C   UNL     1       0.436   8.903  21.464  0.00  0.00    +0.000 A 
ATOM      3  N   UNL     1       1.331   7.884  21.486  0.00  0.00    +0.000 NA
ATOM      4  C   UNL     1       1.983   7.619  20.330  0.00  0.00    +0.000 A 
ATOM      5  C   UNL     1       1.767   8.322  19.153  0.00  0.00    +0.000 A 
ATOM      6  C   UNL     1       0.783   9.313  19.138  0.00  0.00    +0.000 A 
ENDROOT
BRANCH   1   9
ATOM      7  C   UNL     1      -0.441  12.022  20.105  0.00  0.00    +0.000 C 
ATOM      8  O   UNL     1       0.707  12.399  19.880  0.00  0.00    +0.000 OA
ATOM      9  N   UNL     1      -0.807  10.698  20.294  0.00  0.00    +0.000 N 
ATOM     10  H   UNL     1      -1.770  10.455  20.086  0.00  0.00    +0.000 HD
BRANCH   7  11
ATOM     11  C   UNL     1      -1.590  12.999  20.172  0.00  0.00    +0.000 C 
BRANCH  11  14
ATOM     12  C   UNL     1      -4.745  11.854  18.933  0.00  0.00    +0.000 A 
ATOM     13  C   UNL     1      -4.050  12.503  19.930  0.00  0.00    +0.000 A 
ATOM     14  N   UNL     1      -2.757  12.474  19.507  0.00  0.00    +0.000 N 
ATOM     15  N   UNL     1      -2.636  11.817  18.339  0.00  0.00    +0.000 NA
ATOM     16  N   UNL     1      -3.854  11.432  17.975  0.00  0.00    +0.000 NA
BRANCH  12  18
ATOM     17  C   UNL     1      -6.958  12.072  20.073  0.00  0.00    +0.000 C 
ATOM     18  C   UNL     1      -6.218  11.635  18.808  0.00  0.00    +0.000 C 
ATOM     19  C   UNL     1      -6.804  12.323  17.576  0.00  0.00    +0.000 C 
ENDBRANCH  12  18
ENDBRANCH  11  14
ENDBRANCH   7  11
ENDBRANCH   1   9
BRANCH   5  20
ATOM     20  C   UNL     1       2.550   7.967  17.953  0.00  0.00    +0.000 C 
ATOM     21  O   UNL     1       2.536   8.741  17.001  0.00  0.00    +0.000 OA
BRANCH  20  22
ATOM     22  C   UNL     1       3.349   6.743  17.930  0.00  0.00    +0.000 A 
ATOM     23  C   UNL     1       4.729   6.615  18.005  0.00  0.00    +0.000 A 
ATOM     24  N   UNL     1       5.052   5.270  17.962  0.00  0.00    +0.000 N 
ATOM     25  C   UNL     1       3.891   4.534  17.910  0.00  0.00    +0.000 A 
ATOM     26  N   UNL     1       3.813   3.192  17.906  0.00  0.00    +0.000 NA
ATOM     27  C   UNL     1       2.534   2.769  17.831  0.00  0.00    +0.000 A 
ATOM     28  N   UNL     1       1.417   3.510  17.746  0.00  0.00    +0.000 NA
ATOM     29  C   UNL     1       1.556   4.853  17.776  0.00  0.00    +0.000 A 
ATOM     30  C   UNL     1       2.823   5.421  17.868  0.00  0.00    +0.000 A 
BRANCH  24  31
ATOM     31  C   UNL     1       6.418   4.736  17.950  0.00  0.00    +0.000 C 
ATOM     32  C   UNL     1       7.379   5.630  18.737  0.00  0.00    +0.000 C 
BRANCH  31  33
ATOM     33  C   UNL     1       6.931   4.428  16.531  0.00  0.00    +0.000 C 
BRANCH  33  34
ATOM     34  O   UNL     1       6.186   3.423  15.852  0.00  0.00    +0.000 OA
ATOM     35  H   UNL     1       5.311   3.805  15.630  0.00  0.00    +0.000 HD
ENDBRANCH  33  34
ENDBRANCH  31  33
ENDBRANCH  24  31
ENDBRANCH  20  22
ENDBRANCH   5  20
TORSDOF 9
ENDMDL
MODEL 5
REMARK VINA RESULT:      -7.7      2.211      3.223
REMARK  Name = 
REMARK  12 active torsions:
REMARK  status: ('A' for Active; 'I' for Inactive)
REMARK    1  A    between atoms: C_1  and  C_2
REMARK    2  A    between atoms: C_2  and  C_3
REMARK    3  A    between atoms: C_2  and  C_4
REMARK    4  A    between atoms: N_6  and  C_7
REMARK    5  A    between atoms: C_7  and  C_8
REMARK    6  A    between atoms: N_10  and  C_11
REMARK    7  A    between atoms: C_15  and  C_16
REMARK    8  A    between atoms: C_16  and  C_18
REMARK    9  A    between atoms: N_20  and  C_21
REMARK   10  A    between atoms: C_21  and  C_22
REMARK   11  A    between atoms: C_21  and  C_23
REMARK   12  A    between atoms: C_23  and  O_24
REMARK                            x       y       z     vdW  Elec       q    Type
REMARK                         _______ _______ _______ _____ _____    ______ ____
ROOT
ATOM      1  C   UNL     1       0.475   9.792  20.317  0.00  0.00    +0.000 A 
ATOM      2  C   UNL     1       0.589   8.933  21.410  0.00  0.00    +0.000 A 
ATOM      3  N   UNL     1       1.295   7.774  21.390  0.00  0.00    +0.000 NA
ATOM      4  C   UNL     1       1.954   7.480  20.244  0.00  0.00    +0.000 A 
ATOM      5  C   UNL     1       1.925   8.290  19.117  0.00  0.00    +0.000 A 
ATOM      6  C   UNL     1       1.127   9.437  19.139  0.00  0.00    +0.000 A 
ENDROOT
BRANCH   1   9
ATOM      7  C   UNL     1      -1.358  11.216  19.513  0.00  0.00    +0.000 C 
ATOM      8  O   UNL     1      -1.834  10.377  18.750  0.00  0.00    +0.000 OA
ATOM      9  N   UNL     1      -0.262  10.994  20.332  0.00  0.00    +0.000 N 
ATOM     10  H   UNL     1      -0.191  11.567  21.167  0.00  0.00    +0.000 HD
BRANCH   7  11
ATOM     11  C   UNL     1      -1.964  12.592  19.644  0.00  0.00    +0.000 C 
BRANCH  11  14
ATOM     12  C   UNL     1      -5.288  12.475  20.961  0.00  0.00    +0.000 A 
ATOM     13  C   UNL     1      -4.474  12.489  19.850  0.00  0.00    +0.000 A 
ATOM     14  N   UNL     1      -3.215  12.542  20.361  0.00  0.00    +0.000 N 
ATOM     15  N   UNL     1      -3.231  12.597  21.705  0.00  0.00    +0.000 NA
ATOM     16  N   UNL     1      -4.502  12.556  22.086  0.00  0.00    +0.000 NA
BRANCH  12  18
ATOM     17  C   UNL     1      -7.448  13.729  21.064  0.00  0.00    +0.000 C 
ATOM     18  C   UNL     1      -6.777  12.355  21.032  0.00  0.00    +0.000 C 
ATOM     19  C   UNL     1      -7.344  11.505  19.896  0.00  0.00    +0.000 C 
ENDBRANCH  12  18
ENDBRANCH  11  14
ENDBRANCH   7  11
ENDBRANCH   1   9
BRANCH   5  20
ATOM     20  C   UNL     1       2.700   7.889  17.927  0.00  0.00    +0.000 C 
ATOM     21  O   UNL     1       2.784   8.681  16.994  0.00  0.00    +0.000 OA
BRANCH  20  22
ATOM     22  C   UNL     1       3.379   6.594  17.893  0.00  0.00    +0.000 A 
ATOM     23  C   UNL     1       2.855   5.340  18.171  0.00  0.00    +0.000 A 
ATOM     24  N   UNL     1       3.852   4.395  18.000  0.00  0.00    +0.000 N 
ATOM     25  C   UNL     1       4.994   5.027  17.567  0.00  0.00    +0.000 A 
ATOM     26  N   UNL     1       6.152   4.422  17.250  0.00  0.00    +0.000 NA
ATOM     27  C   UNL     1       7.093   5.314  16.876  0.00  0.00    +0.000 A 
ATOM     28  N   UNL     1       6.992   6.652  16.815  0.00  0.00    +0.000 NA
ATOM     29  C   UNL     1       5.798   7.202  17.125  0.00  0.00    +0.000 A 
ATOM     30  C   UNL     1       4.736   6.391  17.512  0.00  0.00    +0.000 A 
BRANCH  24  31
ATOM     31  C   UNL     1       3.701   2.960  18.265  0.00  0.00    +0.000 C 
ATOM     32  C   UNL     1       2.360   2.430  17.753  0.00  0.00    +0.000 C 
BRANCH  31  33
ATOM     33  C   UNL     1       3.955   2.592  19.739  0.00  0.00    +0.000 C 
BRANCH  33  34
ATOM     34  O   UNL     1       5.084   1.747  19.938  0.00  0.00    +0.000 OA
ATOM     35  H   UNL     1       5.112   1.512  20.889  0.00  0.00    +0.000 HD
ENDBRANCH  33  34
ENDBRANCH  31  33
ENDBRANCH  24  31
ENDBRANCH  20  22
ENDBRANCH   5  20
TORSDOF 9
ENDMDL
MODEL 6
REMARK VINA RESULT:      -7.7      1.912      2.967
REMARK  Name = 
REMARK  12 active torsions:
REMARK  status: ('A' for Active; 'I' for Inactive)
REMARK    1  A    between atoms: C_1  and  C_2
REMARK    2  A    between atoms: C_2  and  C_3
REMARK    3  A    between atoms: C_2  and  C_4
REMARK    4  A    between atoms: N_6  and  C_7
REMARK    5  A    between atoms: C_7  and  C_8
REMARK    6  A    between atoms: N_10  and  C_11
REMARK    7  A    between atoms: C_15  and  C_16
REMARK    8  A    between atoms: C_16  and  C_18
REMARK    9  A    between atoms: N_20  and  C_21
REMARK   10  A    between atoms: C_21  and  C_22
REMARK   11  A    between atoms: C_21  and  C_23
REMARK   12  A    between atoms: C_23  and  O_24
REMARK                            x       y       z     vdW  Elec       q    Type
REMARK                         _______ _______ _______ _____ _____    ______ ____
ROOT
ATOM      1  C   UNL     1       0.564  10.241  20.550  0.00  0.00    +0.000 A 
ATOM      2  C   UNL     1       0.703   9.418  21.668  0.00  0.00    +0.000 A 
ATOM      3  N   UNL     1       1.292   8.196  21.639  0.00  0.00    +0.000 NA
ATOM      4  C   UNL     1       1.805   7.794  20.452  0.00  0.00    +0.000 A 
ATOM      5  C   UNL     1       1.743   8.558  19.295  0.00  0.00    +0.000 A 
ATOM      6  C   UNL     1       1.062   9.778  19.336  0.00  0.00    +0.000 A 
ENDROOT
BRANCH   1   9
ATOM      7  C   UNL     1       0.615  12.662  20.962  0.00  0.00    +0.000 C 
ATOM      8  O   UNL     1       1.809  12.708  21.252  0.00  0.00    +0.000 OA
ATOM      9  N   UNL     1      -0.052  11.509  20.576  0.00  0.00    +0.000 N 
ATOM     10  H   UNL     1      -0.882  11.630  20.004  0.00  0.00    +0.000 HD
BRANCH   7  11
ATOM     11  C   UNL     1      -0.246  13.901  20.978  0.00  0.00    +0.000 C 
BRANCH  11  14
ATOM     12  C   UNL     1      -1.908  14.519  24.085  0.00  0.00    +0.000 A 
ATOM     13  C   UNL     1      -0.987  14.941  23.152  0.00  0.00    +0.000 A 
ATOM     14  N   UNL     1      -1.023  13.979  22.191  0.00  0.00    +0.000 N 
ATOM     15  N   UNL     1      -1.882  12.994  22.512  0.00  0.00    +0.000 NA
ATOM     16  N   UNL     1      -2.434  13.316  23.677  0.00  0.00    +0.000 NA
BRANCH  12  18
ATOM     17  C   UNL     1      -1.164  15.675  26.173  0.00  0.00    +0.000 C 
ATOM     18  C   UNL     1      -2.356  15.204  25.337  0.00  0.00    +0.000 C 
ATOM     19  C   UNL     1      -3.308  16.365  25.054  0.00  0.00    +0.000 C 
ENDBRANCH  12  18
ENDBRANCH  11  14
ENDBRANCH   7  11
ENDBRANCH   1   9
BRANCH   5  20
ATOM     20  C   UNL     1       2.357   8.036  18.059  0.00  0.00    +0.000 C 
ATOM     21  O   UNL     1       2.412   8.775  17.081  0.00  0.00    +0.000 OA
BRANCH  20  22
ATOM     22  C   UNL     1       2.918   6.686  18.028  0.00  0.00    +0.000 A 
ATOM     23  C   UNL     1       2.313   5.494  18.402  0.00  0.00    +0.000 A 
ATOM     24  N   UNL     1       3.208   4.459  18.195  0.00  0.00    +0.000 N 
ATOM     25  C   UNL     1       4.362   4.970  17.647  0.00  0.00    +0.000 A 
ATOM     26  N   UNL     1       5.434   4.254  17.268  0.00  0.00    +0.000 NA
ATOM     27  C   UNL     1       6.414   5.045  16.783  0.00  0.00    +0.000 A 
ATOM     28  N   UNL     1       6.423   6.384  16.673  0.00  0.00    +0.000 NA
ATOM     29  C   UNL     1       5.310   7.048  17.050  0.00  0.00    +0.000 A 
ATOM     30  C   UNL     1       4.218   6.349  17.553  0.00  0.00    +0.000 A 
BRANCH  24  31
ATOM     31  C   UNL     1       2.957   3.054  18.534  0.00  0.00    +0.000 C 
ATOM     32  C   UNL     1       1.465   2.721  18.487  0.00  0.00    +0.000 C 
BRANCH  31  33
ATOM     33  C   UNL     1       3.614   2.629  19.861  0.00  0.00    +0.000 C 
BRANCH  33  34
ATOM     34  O   UNL     1       4.997   2.312  19.746  0.00  0.00    +0.000 OA
ATOM     35  H   UNL     1       5.458   3.115  19.425  0.00  0.00    +0.000 HD
ENDBRANCH  33  34
ENDBRANCH  31  33
ENDBRANCH  24  31
ENDBRANCH  20  22
ENDBRANCH   5  20
TORSDOF 9
ENDMDL
MODEL 7
REMARK VINA RESULT:      -7.6      2.665     10.543
REMARK  Name = 
REMARK  12 active torsions:
REMARK  status: ('A' for Active; 'I' for Inactive)
REMARK    1  A    between atoms: C_1  and  C_2
REMARK    2  A    between atoms: C_2  and  C_3
REMARK    3  A    between atoms: C_2  and  C_4
REMARK    4  A    between atoms: N_6  and  C_7
REMARK    5  A    between atoms: C_7  and  C_8
REMARK    6  A    between atoms: N_10  and  C_11
REMARK    7  A    between atoms: C_15  and  C_16
REMARK    8  A    between atoms: C_16  and  C_18
REMARK    9  A    between atoms: N_20  and  C_21
REMARK   10  A    between atoms: C_21  and  C_22
REMARK   11  A    between atoms: C_21  and  C_23
REMARK   12  A    between atoms: C_23  and  O_24
REMARK                            x       y       z     vdW  Elec       q    Type
REMARK                         _______ _______ _______ _____ _____    ______ ____
ROOT
ATOM      1  C   UNL     1       3.626   5.809  18.986  0.00  0.00    +0.000 A 
ATOM      2  C   UNL     1       2.856   5.422  20.083  0.00  0.00    +0.000 A 
ATOM      3  N   UNL     1       1.845   6.168  20.597  0.00  0.00    +0.000 NA
ATOM      4  C   UNL     1       1.559   7.329  19.963  0.00  0.00    +0.000 A 
ATOM      5  C   UNL     1       2.249   7.779  18.845  0.00  0.00    +0.000 A 
ATOM      6  C   UNL     1       3.335   7.031  18.384  0.00  0.00    +0.000 A 
ENDROOT
BRANCH   1   9
ATOM      7  C   UNL     1       5.676   5.579  17.651  0.00  0.00    +0.000 C 
ATOM      8  O   UNL     1       5.778   6.774  17.384  0.00  0.00    +0.000 OA
ATOM      9  N   UNL     1       4.680   5.040  18.452  0.00  0.00    +0.000 N 
ATOM     10  H   UNL     1       4.891   4.162  18.917  0.00  0.00    +0.000 HD
BRANCH   7  11
ATOM     11  C   UNL     1       6.672   4.569  17.135  0.00  0.00    +0.000 C 
BRANCH  11  14
ATOM     12  C   UNL     1       6.536   4.243  13.575  0.00  0.00    +0.000 A 
ATOM     13  C   UNL     1       6.104   3.795  14.804  0.00  0.00    +0.000 A 
ATOM     14  N   UNL     1       6.743   4.601  15.694  0.00  0.00    +0.000 N 
ATOM     15  N   UNL     1       7.555   5.474  15.073  0.00  0.00    +0.000 NA
ATOM     16  N   UNL     1       7.435   5.264  13.767  0.00  0.00    +0.000 NA
BRANCH  12  18
ATOM     17  C   UNL     1       6.994   2.626  11.724  0.00  0.00    +0.000 C 
ATOM     18  C   UNL     1       6.123   3.785  12.212  0.00  0.00    +0.000 C 
ATOM     19  C   UNL     1       4.643   3.411  12.150  0.00  0.00    +0.000 C 
ENDBRANCH  12  18
ENDBRANCH  11  14
ENDBRANCH   7  11
ENDBRANCH   1   9
BRANCH   5  20
ATOM     20  C   UNL     1       1.840   9.049  18.214  0.00  0.00    +0.000 C 
ATOM     21  O   UNL     1       2.372   9.370  17.157  0.00  0.00    +0.000 OA
BRANCH  20  22
ATOM     22  C   UNL     1       0.795   9.871  18.824  0.00  0.00    +0.000 A 
ATOM     23  C   UNL     1       0.859  10.616  19.993  0.00  0.00    +0.000 A 
ATOM     24  N   UNL     1      -0.358  11.248  20.183  0.00  0.00    +0.000 N 
ATOM     25  C   UNL     1      -1.183  10.954  19.123  0.00  0.00    +0.000 A 
ATOM     26  N   UNL     1      -2.426  11.430  18.941  0.00  0.00    +0.000 NA
ATOM     27  C   UNL     1      -2.986  10.943  17.814  0.00  0.00    +0.000 A 
ATOM     28  N   UNL     1      -2.461  10.075  16.934  0.00  0.00    +0.000 NA
ATOM     29  C   UNL     1      -1.200   9.647  17.157  0.00  0.00    +0.000 A 
ATOM     30  C   UNL     1      -0.502  10.086  18.277  0.00  0.00    +0.000 A 
BRANCH  24  31
ATOM     31  C   UNL     1      -0.700  12.073  21.346  0.00  0.00    +0.000 C 
ATOM     32  C   UNL     1       0.385  13.111  21.640  0.00  0.00    +0.000 C 
BRANCH  31  33
ATOM     33  C   UNL     1      -1.070  11.240  22.587  0.00  0.00    +0.000 C 
BRANCH  33  34
ATOM     34  O   UNL     1       0.021  10.513  23.142  0.00  0.00    +0.000 OA
ATOM     35  H   UNL     1       0.133  10.812  24.069  0.00  0.00    +0.000 HD
ENDBRANCH  33  34
ENDBRANCH  31  33
ENDBRANCH  24  31
ENDBRANCH  20  22
ENDBRANCH   5  20
TORSDOF 9
ENDMDL
MODEL 8
REMARK VINA RESULT:      -7.6      1.607      1.770
REMARK  Name = 
REMARK  12 active torsions:
REMARK  status: ('A' for Active; 'I' for Inactive)
REMARK    1  A    between atoms: C_1  and  C_2
REMARK    2  A    between atoms: C_2  and  C_3
REMARK    3  A    between atoms: C_2  and  C_4
REMARK    4  A    between atoms: N_6  and  C_7
REMARK    5  A    between atoms: C_7  and  C_8
REMARK    6  A    between atoms: N_10  and  C_11
REMARK    7  A    between atoms: C_15  and  C_16
REMARK    8  A    between atoms: C_16  and  C_18
REMARK    9  A    between atoms: N_20  and  C_21
REMARK   10  A    between atoms: C_21  and  C_22
REMARK   11  A    between atoms: C_21  and  C_23
REMARK   12  A    between atoms: C_23  and  O_24
REMARK                            x       y       z     vdW  Elec       q    Type
REMARK                         _______ _______ _______ _____ _____    ______ ____
ROOT
ATOM      1  C   UNL     1       0.361   9.962  20.479  0.00  0.00    +0.000 A 
ATOM      2  C   UNL     1       0.469   9.083  21.557  0.00  0.00    +0.000 A 
ATOM      3  N   UNL     1       1.137   7.904  21.507  0.00  0.00    +0.000 NA
ATOM      4  C   UNL     1       1.764   7.606  20.344  0.00  0.00    +0.000 A 
ATOM      5  C   UNL     1       1.740   8.433  19.230  0.00  0.00    +0.000 A 
ATOM      6  C   UNL     1       0.979   9.605  19.284  0.00  0.00    +0.000 A 
ENDROOT
BRANCH   1   9
ATOM      7  C   UNL     1      -0.624  11.844  21.713  0.00  0.00    +0.000 C 
ATOM      8  O   UNL     1      -0.247  11.469  22.821  0.00  0.00    +0.000 OA
ATOM      9  N   UNL     1      -0.337  11.186  20.526  0.00  0.00    +0.000 N 
ATOM     10  H   UNL     1      -0.344  11.746  19.679  0.00  0.00    +0.000 HD
BRANCH   7  11
ATOM     11  C   UNL     1      -1.434  13.106  21.543  0.00  0.00    +0.000 C 
BRANCH  11  14
ATOM     12  C   UNL     1      -4.910  12.489  20.966  0.00  0.00    +0.000 A 
ATOM     13  C   UNL     1      -3.679  12.810  20.436  0.00  0.00    +0.000 A 
ATOM     14  N   UNL     1      -2.846  12.817  21.512  0.00  0.00    +0.000 N 
ATOM     15  N   UNL     1      -3.512  12.556  22.651  0.00  0.00    +0.000 NA
ATOM     16  N   UNL     1      -4.784  12.351  22.328  0.00  0.00    +0.000 NA
BRANCH  12  18
ATOM     17  C   UNL     1      -6.034  11.344  19.050  0.00  0.00    +0.000 C 
ATOM     18  C   UNL     1      -6.207  12.268  20.256  0.00  0.00    +0.000 C 
ATOM     19  C   UNL     1      -7.295  11.739  21.189  0.00  0.00    +0.000 C 
ENDBRANCH  12  18
ENDBRANCH  11  14
ENDBRANCH   7  11
ENDBRANCH   1   9
BRANCH   5  20
ATOM     20  C   UNL     1       2.478   8.026  18.018  0.00  0.00    +0.000 C 
ATOM     21  O   UNL     1       2.427   8.757  17.034  0.00  0.00    +0.000 OA
BRANCH  20  22
ATOM     22  C   UNL     1       3.278   6.802  18.021  0.00  0.00    +0.000 A 
ATOM     23  C   UNL     1       4.654   6.675  18.151  0.00  0.00    +0.000 A 
ATOM     24  N   UNL     1       4.980   5.330  18.113  0.00  0.00    +0.000 N 
ATOM     25  C   UNL     1       3.823   4.594  18.009  0.00  0.00    +0.000 A 
ATOM     26  N   UNL     1       3.746   3.252  17.994  0.00  0.00    +0.000 NA
ATOM     27  C   UNL     1       2.471   2.828  17.864  0.00  0.00    +0.000 A 
ATOM     28  N   UNL     1       1.358   3.570  17.739  0.00  0.00    +0.000 NA
ATOM     29  C   UNL     1       1.495   4.912  17.783  0.00  0.00    +0.000 A 
ATOM     30  C   UNL     1       2.756   5.480  17.929  0.00  0.00    +0.000 A 
BRANCH  24  31
ATOM     31  C   UNL     1       6.346   4.798  18.153  0.00  0.00    +0.000 C 
ATOM     32  C   UNL     1       7.267   5.673  19.006  0.00  0.00    +0.000 C 
BRANCH  31  33
ATOM     33  C   UNL     1       6.926   4.523  16.753  0.00  0.00    +0.000 C 
BRANCH  33  34
ATOM     34  O   UNL     1       6.256   3.488  16.042  0.00  0.00    +0.000 OA
ATOM     35  H   UNL     1       5.688   3.915  15.366  0.00  0.00    +0.000 HD
ENDBRANCH  33  34
ENDBRANCH  31  33
ENDBRANCH  24  31
ENDBRANCH  20  22
ENDBRANCH   5  20
TORSDOF 9
ENDMDL
MODEL 9
REMARK VINA RESULT:      -7.6      1.515      2.752
REMARK  Name = 
REMARK  12 active torsions:
REMARK  status: ('A' for Active; 'I' for Inactive)
REMARK    1  A    between atoms: C_1  and  C_2
REMARK    2  A    between atoms: C_2  and  C_3
REMARK    3  A    between atoms: C_2  and  C_4
REMARK    4  A    between atoms: N_6  and  C_7
REMARK    5  A    between atoms: C_7  and  C_8
REMARK    6  A    between atoms: N_10  and  C_11
REMARK    7  A    between atoms: C_15  and  C_16
REMARK    8  A    between atoms: C_16  and  C_18
REMARK    9  A    between atoms: N_20  and  C_21
REMARK   10  A    between atoms: C_21  and  C_22
REMARK   11  A    between atoms: C_21  and  C_23
REMARK   12  A    between atoms: C_23  and  O_24
REMARK                            x       y       z     vdW  Elec       q    Type
REMARK                         _______ _______ _______ _____ _____    ______ ____
ROOT
ATOM      1  C   UNL     1       0.511  10.104  20.270  0.00  0.00    +0.000 A 
ATOM      2  C   UNL     1       0.571   9.271  21.388  0.00  0.00    +0.000 A 
ATOM      3  N   UNL     1       1.190   8.063  21.397  0.00  0.00    +0.000 NA
ATOM      4  C   UNL     1       1.815   7.688  20.256  0.00  0.00    +0.000 A 
ATOM      5  C   UNL     1       1.836   8.465  19.106  0.00  0.00    +0.000 A 
ATOM      6  C   UNL     1       1.125   9.668  19.099  0.00  0.00    +0.000 A 
ENDROOT
BRANCH   1   9
ATOM      7  C   UNL     1       0.430  12.503  20.794  0.00  0.00    +0.000 C 
ATOM      8  O   UNL     1       1.562  12.558  21.271  0.00  0.00    +0.000 OA
ATOM      9  N   UNL     1      -0.136  11.357  20.255  0.00  0.00    +0.000 N 
ATOM     10  H   UNL     1      -0.869  11.489  19.566  0.00  0.00    +0.000 HD
BRANCH   7  11
ATOM     11  C   UNL     1      -0.456  13.723  20.729  0.00  0.00    +0.000 C 
BRANCH  11  14
ATOM     12  C   UNL     1      -3.553  13.230  22.452  0.00  0.00    +0.000 A 
ATOM     13  C   UNL     1      -2.272  13.739  22.477  0.00  0.00    +0.000 A 
ATOM     14  N   UNL     1      -1.771  13.437  21.249  0.00  0.00    +0.000 N 
ATOM     15  N   UNL     1      -2.660  12.750  20.510  0.00  0.00    +0.000 NA
ATOM     16  N   UNL     1      -3.762  12.617  21.240  0.00  0.00    +0.000 NA
BRANCH  12  18
ATOM     17  C   UNL     1      -6.000  13.024  22.917  0.00  0.00    +0.000 C 
ATOM     18  C   UNL     1      -4.616  13.316  23.500  0.00  0.00    +0.000 C 
ATOM     19  C   UNL     1      -4.330  12.404  24.692  0.00  0.00    +0.000 C 
ENDBRANCH  12  18
ENDBRANCH  11  14
ENDBRANCH   7  11
ENDBRANCH   1   9
BRANCH   5  20
ATOM     20  C   UNL     1       2.568   7.974  17.923  0.00  0.00    +0.000 C 
ATOM     21  O   UNL     1       2.631   8.700  16.935  0.00  0.00    +0.000 OA
BRANCH  20  22
ATOM     22  C   UNL     1       3.233   6.671  17.957  0.00  0.00    +0.000 A 
ATOM     23  C   UNL     1       2.697   5.442  18.312  0.00  0.00    +0.000 A 
ATOM     24  N   UNL     1       3.681   4.477  18.186  0.00  0.00    +0.000 N 
ATOM     25  C   UNL     1       4.827   5.069  17.706  0.00  0.00    +0.000 A 
ATOM     26  N   UNL     1       5.974   4.433  17.413  0.00  0.00    +0.000 NA
ATOM     27  C   UNL     1       6.921   5.291  16.980  0.00  0.00    +0.000 A 
ATOM     28  N   UNL     1       6.835   6.624  16.843  0.00  0.00    +0.000 NA
ATOM     29  C   UNL     1       5.650   7.205  17.132  0.00  0.00    +0.000 A 
ATOM     30  C   UNL     1       4.584   6.430  17.576  0.00  0.00    +0.000 A 
BRANCH  24  31
ATOM     31  C   UNL     1       3.517   3.062  18.535  0.00  0.00    +0.000 C 
ATOM     32  C   UNL     1       2.054   2.624  18.443  0.00  0.00    +0.000 C 
BRANCH  31  33
ATOM     33  C   UNL     1       4.156   2.698  19.889  0.00  0.00    +0.000 C 
BRANCH  33  34
ATOM     34  O   UNL     1       5.036   1.581  19.832  0.00  0.00    +0.000 OA
ATOM     35  H   UNL     1       5.842   1.866  19.353  0.00  0.00    +0.000 HD
ENDBRANCH  33  34
ENDBRANCH  31  33
ENDBRANCH  24  31
ENDBRANCH  20  22
ENDBRANCH   5  20
TORSDOF 9
ENDMDL
