MODEL 1
REMARK VINA RESULT:      -6.5      0.000      0.000
REMARK  Name = 
REMARK  19 active torsions:
REMARK  status: ('A' for Active; 'I' for Inactive)
REMARK    1  A    between atoms: C_1  and  C_2
REMARK    2  A    between atoms: C_2  and  C_3
REMARK    3  A    between atoms: C_3  and  C_4
REMARK    4  A    between atoms: C_4  and  C_5
REMARK    5  A    between atoms: C_5  and  C_6
REMARK    6  A    between atoms: C_7  and  C_8
REMARK    7  A    between atoms: C_8  and  C_9
REMARK    8  A    between atoms: C_8  and  C_10
REMARK    9  A    between atoms: C_11  and  C_12
REMARK   10  A    between atoms: C_12  and  C_13
REMARK   11  A    between atoms: C_14  and  C_15
REMARK   12  A    between atoms: C_15  and  C_16
REMARK   13  A    between atoms: C_17  and  C_18
REMARK   14  A    between atoms: C_18  and  C_19
REMARK   15  A    between atoms: C_19  and  C_20
REMARK   16  A    between atoms: C_20  and  C_21
REMARK   17  A    between atoms: N_23  and  C_24
REMARK   18  A    between atoms: C_24  and  C_25
REMARK   19  A    between atoms: C_25  and  O_26
REMARK                            x       y       z     vdW  Elec       q    Type
REMARK                         _______ _______ _______ _____ _____    ______ ____
ROOT
ATOM      1  C   UNL     1       4.145   3.444  19.071  0.00  0.00    +0.000 C 
ATOM      2  C   UNL     1       3.191   3.680  19.986  0.00  0.00    +0.000 C 
ENDROOT
BRANCH   2   3
ATOM      3  C   UNL     1       1.813   4.195  19.676  0.00  0.00    +0.000 C 
BRANCH   3   4
ATOM      4  C   UNL     1       1.429   5.361  20.541  0.00  0.00    +0.000 C 
ATOM      5  C   UNL     1       1.802   6.637  20.347  0.00  0.00    +0.000 C 
BRANCH   5   6
ATOM      6  C   UNL     1       2.720   7.127  19.261  0.00  0.00    +0.000 C 
BRANCH   6   7
ATOM      7  C   UNL     1       1.975   7.674  18.043  0.00  0.00    +0.000 C 
BRANCH   7   8
ATOM      8  C   UNL     1       2.050   9.196  17.929  0.00  0.00    +0.000 C 
BRANCH   8   9
ATOM      9  C   UNL     1       0.880   9.870  18.619  0.00  0.00    +0.000 C 
ATOM     10  O   UNL     1       0.869  10.179  19.804  0.00  0.00    +0.000 OA
ATOM     11  N   UNL     1      -0.180  10.107  17.773  0.00  0.00    +0.000 N 
ATOM     12  H   UNL     1      -0.111   9.859  16.794  0.00  0.00    +0.000 HD
BRANCH  11  13
ATOM     13  C   UNL     1      -1.406  10.728  18.250  0.00  0.00    +0.000 C 
BRANCH  13  14
ATOM     14  C   UNL     1      -1.327  12.252  18.211  0.00  0.00    +0.000 C 
BRANCH  14  15
ATOM     15  O   UNL     1      -0.909  12.751  19.482  0.00  0.00    +0.000 OA
ATOM     16  H   UNL     1      -1.423  12.258  20.146  0.00  0.00    +0.000 HD
ENDBRANCH  14  15
ENDBRANCH  13  14
ENDBRANCH  11  13
ENDBRANCH   8   9
ENDBRANCH   7   8
ENDBRANCH   6   7
ENDBRANCH   5   6
ENDBRANCH   3   4
ENDBRANCH   2   3
BRANCH   1  17
ATOM     17  C   UNL     1       3.984   3.576  17.583  0.00  0.00    +0.000 C 
BRANCH  17  19
ATOM     18  C   UNL     1       5.364   5.364  16.471  0.00  0.00    +0.000 C 
ATOM     19  C   UNL     1       4.228   4.971  17.079  0.00  0.00    +0.000 C 
BRANCH  18  20
ATOM     20  C   UNL     1       6.592   4.502  16.274  0.00  0.00    +0.000 C 
ATOM     21  C   UNL     1       7.587   4.689  17.420  0.00  0.00    +0.000 C 
BRANCH  20  23
ATOM     22  C   UNL     1       6.750   4.424  13.741  0.00  0.00    +0.000 C 
ATOM     23  C   UNL     1       7.242   4.786  14.941  0.00  0.00    +0.000 C 
BRANCH  22  24
ATOM     24  C   UNL     1       5.529   3.577  13.511  0.00  0.00    +0.000 C 
BRANCH  24  25
ATOM     25  C   UNL     1       5.400   3.096  12.064  0.00  0.00    +0.000 C 
BRANCH  25  26
ATOM     26  C   UNL     1       4.491   4.032  11.266  0.00  0.00    +0.000 C 
BRANCH  26  28
ATOM     27  C   UNL     1       2.804   4.067   9.407  0.00  0.00    +0.000 C 
ATOM     28  C   UNL     1       3.355   3.274  10.583  0.00  0.00    +0.000 C 
ENDBRANCH  26  28
ENDBRANCH  25  26
ENDBRANCH  24  25
ENDBRANCH  22  24
ENDBRANCH  20  23
ENDBRANCH  18  20
ENDBRANCH  17  19
ENDBRANCH   1  17
TORSDOF 17
ENDMDL
MODEL 2
REMARK VINA RESULT:      -6.5      1.118      1.445
REMARK  Name = 
REMARK  19 active torsions:
REMARK  status: ('A' for Active; 'I' for Inactive)
REMARK    1  A    between atoms: C_1  and  C_2
REMARK    2  A    between atoms: C_2  and  C_3
REMARK    3  A    between atoms: C_3  and  C_4
REMARK    4  A    between atoms: C_4  and  C_5
REMARK    5  A    between atoms: C_5  and  C_6
REMARK    6  A    between atoms: C_7  and  C_8
REMARK    7  A    between atoms: C_8  and  C_9
REMARK    8  A    between atoms: C_8  and  C_10
REMARK    9  A    between atoms: C_11  and  C_12
REMARK   10  A    between atoms: C_12  and  C_13
REMARK   11  A    between atoms: C_14  and  C_15
REMARK   12  A    between atoms: C_15  and  C_16
REMARK   13  A    between atoms: C_17  and  C_18
REMARK   14  A    between atoms: C_18  and  C_19
REMARK   15  A    between atoms: C_19  and  C_20
REMARK   16  A    between atoms: C_20  and  C_21
REMARK   17  A    between atoms: N_23  and  C_24
REMARK   18  A    between atoms: C_24  and  C_25
REMARK   19  A    between atoms: C_25  and  O_26
REMARK                            x       y       z     vdW  Elec       q    Type
REMARK                         _______ _______ _______ _____ _____    ______ ____
ROOT
ATOM      1  C   UNL     1       3.759   2.580  18.014  0.00  0.00    +0.000 C 
ATOM      2  C   UNL     1       2.774   2.312  18.887  0.00  0.00    +0.000 C 
ENDROOT
BRANCH   2   3
ATOM      3  C   UNL     1       1.426   2.977  18.888  0.00  0.00    +0.000 C 
BRANCH   3   4
ATOM      4  C   UNL     1       1.019   3.445  20.256  0.00  0.00    +0.000 C 
ATOM      5  C   UNL     1       1.408   4.591  20.839  0.00  0.00    +0.000 C 
BRANCH   5   6
ATOM      6  C   UNL     1       2.367   5.591  20.255  0.00  0.00    +0.000 C 
BRANCH   6   7
ATOM      7  C   UNL     1       1.689   6.882  19.797  0.00  0.00    +0.000 C 
BRANCH   7   8
ATOM      8  C   UNL     1       2.480   7.627  18.723  0.00  0.00    +0.000 C 
BRANCH   8   9
ATOM      9  C   UNL     1       1.876   8.985  18.422  0.00  0.00    +0.000 C 
ATOM     10  O   UNL     1       1.977   9.557  17.343  0.00  0.00    +0.000 OA
ATOM     11  N   UNL     1       1.191   9.519  19.491  0.00  0.00    +0.000 N 
ATOM     12  H   UNL     1       1.111   8.994  20.353  0.00  0.00    +0.000 HD
BRANCH  11  13
ATOM     13  C   UNL     1       0.556  10.825  19.409  0.00  0.00    +0.000 C 
BRANCH  13  14
ATOM     14  C   UNL     1      -0.865  10.736  18.859  0.00  0.00    +0.000 C 
BRANCH  14  15
ATOM     15  O   UNL     1      -1.746  11.534  19.652  0.00  0.00    +0.000 OA
ATOM     16  H   UNL     1      -1.991  12.295  19.097  0.00  0.00    +0.000 HD
ENDBRANCH  14  15
ENDBRANCH  13  14
ENDBRANCH  11  13
ENDBRANCH   8   9
ENDBRANCH   7   8
ENDBRANCH   6   7
ENDBRANCH   5   6
ENDBRANCH   3   4
ENDBRANCH   2   3
BRANCH   1  17
ATOM     17  C   UNL     1       3.665   3.523  16.849  0.00  0.00    +0.000 C 
BRANCH  17  19
ATOM     18  C   UNL     1       5.355   5.377  17.049  0.00  0.00    +0.000 C 
ATOM     19  C   UNL     1       4.094   4.924  17.180  0.00  0.00    +0.000 C 
BRANCH  18  20
ATOM     20  C   UNL     1       6.545   4.541  16.632  0.00  0.00    +0.000 C 
ATOM     21  C   UNL     1       7.632   4.553  17.706  0.00  0.00    +0.000 C 
BRANCH  20  23
ATOM     22  C   UNL     1       6.558   4.722  14.099  0.00  0.00    +0.000 C 
ATOM     23  C   UNL     1       7.091   5.004  15.302  0.00  0.00    +0.000 C 
BRANCH  22  24
ATOM     24  C   UNL     1       5.393   3.804  13.847  0.00  0.00    +0.000 C 
BRANCH  24  25
ATOM     25  C   UNL     1       5.521   3.024  12.537  0.00  0.00    +0.000 C 
BRANCH  25  26
ATOM     26  C   UNL     1       4.925   3.822  11.376  0.00  0.00    +0.000 C 
BRANCH  26  28
ATOM     27  C   UNL     1       3.005   4.060   9.778  0.00  0.00    +0.000 C 
ATOM     28  C   UNL     1       3.626   3.202  10.868  0.00  0.00    +0.000 C 
ENDBRANCH  26  28
ENDBRANCH  25  26
ENDBRANCH  24  25
ENDBRANCH  22  24
ENDBRANCH  20  23
ENDBRANCH  18  20
ENDBRANCH  17  19
ENDBRANCH   1  17
TORSDOF 17
ENDMDL
MODEL 3
REMARK VINA RESULT:      -6.0      1.181      1.684
REMARK  Name = 
REMARK  19 active torsions:
REMARK  status: ('A' for Active; 'I' for Inactive)
REMARK    1  A    between atoms: C_1  and  C_2
REMARK    2  A    between atoms: C_2  and  C_3
REMARK    3  A    between atoms: C_3  and  C_4
REMARK    4  A    between atoms: C_4  and  C_5
REMARK    5  A    between atoms: C_5  and  C_6
REMARK    6  A    between atoms: C_7  and  C_8
REMARK    7  A    between atoms: C_8  and  C_9
REMARK    8  A    between atoms: C_8  and  C_10
REMARK    9  A    between atoms: C_11  and  C_12
REMARK   10  A    between atoms: C_12  and  C_13
REMARK   11  A    between atoms: C_14  and  C_15
REMARK   12  A    between atoms: C_15  and  C_16
REMARK   13  A    between atoms: C_17  and  C_18
REMARK   14  A    between atoms: C_18  and  C_19
REMARK   15  A    between atoms: C_19  and  C_20
REMARK   16  A    between atoms: C_20  and  C_21
REMARK   17  A    between atoms: N_23  and  C_24
REMARK   18  A    between atoms: C_24  and  C_25
REMARK   19  A    between atoms: C_25  and  O_26
REMARK                            x       y       z     vdW  Elec       q    Type
REMARK                         _______ _______ _______ _____ _____    ______ ____
ROOT
ATOM      1  C   UNL     1       2.223   3.924  17.285  0.00  0.00    +0.000 C 
ATOM      2  C   UNL     1       1.484   3.422  18.287  0.00  0.00    +0.000 C 
ENDROOT
BRANCH   2   3
ATOM      3  C   UNL     1       2.042   2.765  19.519  0.00  0.00    +0.000 C 
BRANCH   3   4
ATOM      4  C   UNL     1       3.054   3.627  20.218  0.00  0.00    +0.000 C 
ATOM      5  C   UNL     1       2.829   4.856  20.712  0.00  0.00    +0.000 C 
BRANCH   5   6
ATOM      6  C   UNL     1       1.539   5.621  20.606  0.00  0.00    +0.000 C 
BRANCH   6   7
ATOM      7  C   UNL     1       1.743   7.119  20.383  0.00  0.00    +0.000 C 
BRANCH   7   8
ATOM      8  C   UNL     1       2.302   7.449  18.999  0.00  0.00    +0.000 C 
BRANCH   8   9
ATOM      9  C   UNL     1       1.823   8.802  18.508  0.00  0.00    +0.000 C 
ATOM     10  O   UNL     1       2.152   9.298  17.438  0.00  0.00    +0.000 OA
ATOM     11  N   UNL     1       0.970   9.424  19.392  0.00  0.00    +0.000 N 
ATOM     12  H   UNL     1       0.706   8.960  20.252  0.00  0.00    +0.000 HD
BRANCH  11  13
ATOM     13  C   UNL     1       0.417  10.740  19.112  0.00  0.00    +0.000 C 
BRANCH  13  14
ATOM     14  C   UNL     1       0.996  11.811  20.034  0.00  0.00    +0.000 C 
BRANCH  14  15
ATOM     15  O   UNL     1       0.279  13.035  19.870  0.00  0.00    +0.000 OA
ATOM     16  H   UNL     1      -0.333  12.890  19.126  0.00  0.00    +0.000 HD
ENDBRANCH  14  15
ENDBRANCH  13  14
ENDBRANCH  11  13
ENDBRANCH   8   9
ENDBRANCH   7   8
ENDBRANCH   6   7
ENDBRANCH   5   6
ENDBRANCH   3   4
ENDBRANCH   2   3
BRANCH   1  17
ATOM     17  C   UNL     1       3.723   3.991  17.251  0.00  0.00    +0.000 C 
BRANCH  17  19
ATOM     18  C   UNL     1       5.479   5.678  16.614  0.00  0.00    +0.000 C 
ATOM     19  C   UNL     1       4.254   5.388  17.089  0.00  0.00    +0.000 C 
BRANCH  18  20
ATOM     20  C   UNL     1       6.538   4.661  16.248  0.00  0.00    +0.000 C 
ATOM     21  C   UNL     1       7.525   4.454  17.397  0.00  0.00    +0.000 C 
BRANCH  20  23
ATOM     22  C   UNL     1       6.982   4.594  13.749  0.00  0.00    +0.000 C 
ATOM     23  C   UNL     1       7.256   5.061  14.982  0.00  0.00    +0.000 C 
BRANCH  22  24
ATOM     24  C   UNL     1       5.992   3.511  13.419  0.00  0.00    +0.000 C 
BRANCH  24  25
ATOM     25  C   UNL     1       4.888   3.982  12.471  0.00  0.00    +0.000 C 
BRANCH  25  26
ATOM     26  C   UNL     1       4.674   2.964  11.349  0.00  0.00    +0.000 C 
BRANCH  26  28
ATOM     27  C   UNL     1       3.122   4.121   9.751  0.00  0.00    +0.000 C 
ATOM     28  C   UNL     1       3.253   3.021  10.793  0.00  0.00    +0.000 C 
ENDBRANCH  26  28
ENDBRANCH  25  26
ENDBRANCH  24  25
ENDBRANCH  22  24
ENDBRANCH  20  23
ENDBRANCH  18  20
ENDBRANCH  17  19
ENDBRANCH   1  17
TORSDOF 17
ENDMDL
MODEL 4
REMARK VINA RESULT:      -5.9      6.303      8.633
REMARK  Name = 
REMARK  19 active torsions:
REMARK  status: ('A' for Active; 'I' for Inactive)
REMARK    1  A    between atoms: C_1  and  C_2
REMARK    2  A    between atoms: C_2  and  C_3
REMARK    3  A    between atoms: C_3  and  C_4
REMARK    4  A    between atoms: C_4  and  C_5
REMARK    5  A    between atoms: C_5  and  C_6
REMARK    6  A    between atoms: C_7  and  C_8
REMARK    7  A    between atoms: C_8  and  C_9
REMARK    8  A    between atoms: C_8  and  C_10
REMARK    9  A    between atoms: C_11  and  C_12
REMARK   10  A    between atoms: C_12  and  C_13
REMARK   11  A    between atoms: C_14  and  C_15
REMARK   12  A    between atoms: C_15  and  C_16
REMARK   13  A    between atoms: C_17  and  C_18
REMARK   14  A    between atoms: C_18  and  C_19
REMARK   15  A    between atoms: C_19  and  C_20
REMARK   16  A    between atoms: C_20  and  C_21
REMARK   17  A    between atoms: N_23  and  C_24
REMARK   18  A    between atoms: C_24  and  C_25
REMARK   19  A    between atoms: C_25  and  O_26
REMARK                            x       y       z     vdW  Elec       q    Type
REMARK                         _______ _______ _______ _____ _____    ______ ____
ROOT
ATOM      1  C   UNL     1       6.162   6.672  17.372  0.00  0.00    +0.000 C 
ATOM      2  C   UNL     1       6.637   7.911  17.580  0.00  0.00    +0.000 C 
ENDROOT
BRANCH   2   3
ATOM      3  C   UNL     1       8.034   8.229  18.038  0.00  0.00    +0.000 C 
BRANCH   3   4
ATOM      4  C   UNL     1       8.494   9.581  17.575  0.00  0.00    +0.000 C 
ATOM      5  C   UNL     1       9.099  10.506  18.340  0.00  0.00    +0.000 C 
BRANCH   5   6
ATOM      6  C   UNL     1       9.375  10.382  19.813  0.00  0.00    +0.000 C 
BRANCH   6   7
ATOM      7  C   UNL     1      10.369  11.423  20.329  0.00  0.00    +0.000 C 
BRANCH   7   8
ATOM      8  C   UNL     1       9.998  12.853  19.938  0.00  0.00    +0.000 C 
BRANCH   8   9
ATOM      9  C   UNL     1      11.031  13.468  19.014  0.00  0.00    +0.000 C 
ATOM     10  O   UNL     1      12.238  13.290  19.122  0.00  0.00    +0.000 OA
ATOM     11  N   UNL     1      10.473  14.250  18.028  0.00  0.00    +0.000 N 
ATOM     12  H   UNL     1       9.468  14.342  17.963  0.00  0.00    +0.000 HD
BRANCH  11  13
ATOM     13  C   UNL     1      11.301  14.944  17.053  0.00  0.00    +0.000 C 
BRANCH  13  14
ATOM     14  C   UNL     1      11.076  16.454  17.083  0.00  0.00    +0.000 C 
BRANCH  14  15
ATOM     15  O   UNL     1       9.689  16.736  17.279  0.00  0.00    +0.000 OA
ATOM     16  H   UNL     1       9.207  15.968  16.926  0.00  0.00    +0.000 HD
ENDBRANCH  14  15
ENDBRANCH  13  14
ENDBRANCH  11  13
ENDBRANCH   8   9
ENDBRANCH   7   8
ENDBRANCH   6   7
ENDBRANCH   5   6
ENDBRANCH   3   4
ENDBRANCH   2   3
BRANCH   1  17
ATOM     17  C   UNL     1       6.955   5.400  17.483  0.00  0.00    +0.000 C 
BRANCH  17  19
ATOM     18  C   UNL     1       5.379   3.655  16.583  0.00  0.00    +0.000 C 
ATOM     19  C   UNL     1       6.531   4.347  16.498  0.00  0.00    +0.000 C 
BRANCH  18  20
ATOM     20  C   UNL     1       4.377   3.764  17.712  0.00  0.00    +0.000 C 
ATOM     21  C   UNL     1       3.880   2.384  18.144  0.00  0.00    +0.000 C 
BRANCH  20  23
ATOM     22  C   UNL     1       2.658   5.589  18.115  0.00  0.00    +0.000 C 
ATOM     23  C   UNL     1       3.223   4.658  17.324  0.00  0.00    +0.000 C 
BRANCH  22  24
ATOM     24  C   UNL     1       2.993   5.836  19.560  0.00  0.00    +0.000 C 
BRANCH  24  25
ATOM     25  C   UNL     1       1.884   5.387  20.514  0.00  0.00    +0.000 C 
BRANCH  25  26
ATOM     26  C   UNL     1       2.350   4.199  21.357  0.00  0.00    +0.000 C 
BRANCH  26  28
ATOM     27  C   UNL     1       0.700   3.075  19.834  0.00  0.00    +0.000 C 
ATOM     28  C   UNL     1       1.467   2.971  21.143  0.00  0.00    +0.000 C 
ENDBRANCH  26  28
ENDBRANCH  25  26
ENDBRANCH  24  25
ENDBRANCH  22  24
ENDBRANCH  20  23
ENDBRANCH  18  20
ENDBRANCH  17  19
ENDBRANCH   1  17
TORSDOF 17
ENDMDL
MODEL 5
REMARK VINA RESULT:      -5.9      3.012      5.493
REMARK  Name = 
REMARK  19 active torsions:
REMARK  status: ('A' for Active; 'I' for Inactive)
REMARK    1  A    between atoms: C_1  and  C_2
REMARK    2  A    between atoms: C_2  and  C_3
REMARK    3  A    between atoms: C_3  and  C_4
REMARK    4  A    between atoms: C_4  and  C_5
REMARK    5  A    between atoms: C_5  and  C_6
REMARK    6  A    between atoms: C_7  and  C_8
REMARK    7  A    between atoms: C_8  and  C_9
REMARK    8  A    between atoms: C_8  and  C_10
REMARK    9  A    between atoms: C_11  and  C_12
REMARK   10  A    between atoms: C_12  and  C_13
REMARK   11  A    between atoms: C_14  and  C_15
REMARK   12  A    between atoms: C_15  and  C_16
REMARK   13  A    between atoms: C_17  and  C_18
REMARK   14  A    between atoms: C_18  and  C_19
REMARK   15  A    between atoms: C_19  and  C_20
REMARK   16  A    between atoms: C_20  and  C_21
REMARK   17  A    between atoms: N_23  and  C_24
REMARK   18  A    between atoms: C_24  and  C_25
REMARK   19  A    between atoms: C_25  and  O_26
REMARK                            x       y       z     vdW  Elec       q    Type
REMARK                         _______ _______ _______ _____ _____    ______ ____
ROOT
ATOM      1  C   UNL     1       2.793   6.818  18.855  0.00  0.00    +0.000 C 
ATOM      2  C   UNL     1       2.768   7.780  17.917  0.00  0.00    +0.000 C 
ENDROOT
BRANCH   2   3
ATOM      3  C   UNL     1       1.594   8.676  17.638  0.00  0.00    +0.000 C 
BRANCH   3   4
ATOM      4  C   UNL     1       1.743  10.029  18.271  0.00  0.00    +0.000 C 
ATOM      5  C   UNL     1       0.801  10.667  18.987  0.00  0.00    +0.000 C 
BRANCH   5   6
ATOM      6  C   UNL     1      -0.596  10.171  19.237  0.00  0.00    +0.000 C 
BRANCH   6   7
ATOM      7  C   UNL     1      -1.580  11.289  19.582  0.00  0.00    +0.000 C 
BRANCH   7   8
ATOM      8  C   UNL     1      -2.327  11.828  18.362  0.00  0.00    +0.000 C 
BRANCH   8   9
ATOM      9  C   UNL     1      -2.772  10.711  17.438  0.00  0.00    +0.000 C 
ATOM     10  O   UNL     1      -3.498   9.786  17.782  0.00  0.00    +0.000 OA
ATOM     11  N   UNL     1      -2.279  10.841  16.159  0.00  0.00    +0.000 N 
ATOM     12  H   UNL     1      -1.706  11.639  15.917  0.00  0.00    +0.000 HD
BRANCH  11  13
ATOM     13  C   UNL     1      -2.577   9.858  15.129  0.00  0.00    +0.000 C 
BRANCH  13  14
ATOM     14  C   UNL     1      -3.759  10.281  14.261  0.00  0.00    +0.000 C 
BRANCH  14  15
ATOM     15  O   UNL     1      -3.522   9.912  12.901  0.00  0.00    +0.000 OA
ATOM     16  H   UNL     1      -2.555   9.849  12.805  0.00  0.00    +0.000 HD
ENDBRANCH  14  15
ENDBRANCH  13  14
ENDBRANCH  11  13
ENDBRANCH   8   9
ENDBRANCH   7   8
ENDBRANCH   6   7
ENDBRANCH   5   6
ENDBRANCH   3   4
ENDBRANCH   2   3
BRANCH   1  17
ATOM     17  C   UNL     1       1.693   6.521  19.834  0.00  0.00    +0.000 C 
BRANCH  17  19
ATOM     18  C   UNL     1       2.266   4.165  20.510  0.00  0.00    +0.000 C 
ATOM     19  C   UNL     1       2.054   5.456  20.831  0.00  0.00    +0.000 C 
BRANCH  18  20
ATOM     20  C   UNL     1       2.098   3.569  19.130  0.00  0.00    +0.000 C 
ATOM     21  C   UNL     1       0.739   2.883  18.987  0.00  0.00    +0.000 C 
BRANCH  20  23
ATOM     22  C   UNL     1       4.128   2.770  17.831  0.00  0.00    +0.000 C 
ATOM     23  C   UNL     1       3.223   2.612  18.815  0.00  0.00    +0.000 C 
BRANCH  22  24
ATOM     24  C   UNL     1       4.121   3.862  16.797  0.00  0.00    +0.000 C 
BRANCH  24  25
ATOM     25  C   UNL     1       5.066   5.015  17.143  0.00  0.00    +0.000 C 
BRANCH  25  26
ATOM     26  C   UNL     1       6.466   4.747  16.586  0.00  0.00    +0.000 C 
BRANCH  26  28
ATOM     27  C   UNL     1       7.622   5.933  18.472  0.00  0.00    +0.000 C 
ATOM     28  C   UNL     1       7.506   4.630  17.698  0.00  0.00    +0.000 C 
ENDBRANCH  26  28
ENDBRANCH  25  26
ENDBRANCH  24  25
ENDBRANCH  22  24
ENDBRANCH  20  23
ENDBRANCH  18  20
ENDBRANCH  17  19
ENDBRANCH   1  17
TORSDOF 17
ENDMDL
MODEL 6
REMARK VINA RESULT:      -5.9      4.081      8.548
REMARK  Name = 
REMARK  19 active torsions:
REMARK  status: ('A' for Active; 'I' for Inactive)
REMARK    1  A    between atoms: C_1  and  C_2
REMARK    2  A    between atoms: C_2  and  C_3
REMARK    3  A    between atoms: C_3  and  C_4
REMARK    4  A    between atoms: C_4  and  C_5
REMARK    5  A    between atoms: C_5  and  C_6
REMARK    6  A    between atoms: C_7  and  C_8
REMARK    7  A    between atoms: C_8  and  C_9
REMARK    8  A    between atoms: C_8  and  C_10
REMARK    9  A    between atoms: C_11  and  C_12
REMARK   10  A    between atoms: C_12  and  C_13
REMARK   11  A    between atoms: C_14  and  C_15
REMARK   12  A    between atoms: C_15  and  C_16
REMARK   13  A    between atoms: C_17  and  C_18
REMARK   14  A    between atoms: C_18  and  C_19
REMARK   15  A    between atoms: C_19  and  C_20
REMARK   16  A    between atoms: C_20  and  C_21
REMARK   17  A    between atoms: N_23  and  C_24
REMARK   18  A    between atoms: C_24  and  C_25
REMARK   19  A    between atoms: C_25  and  O_26
REMARK                            x       y       z     vdW  Elec       q    Type
REMARK                         _______ _______ _______ _____ _____    ______ ____
ROOT
ATOM      1  C   UNL     1       1.727   6.031  20.155  0.00  0.00    +0.000 C 
ATOM      2  C   UNL     1       2.529   4.958  20.070  0.00  0.00    +0.000 C 
ENDROOT
BRANCH   2   3
ATOM      3  C   UNL     1       3.958   4.990  19.604  0.00  0.00    +0.000 C 
BRANCH   3   4
ATOM      4  C   UNL     1       4.415   3.665  19.064  0.00  0.00    +0.000 C 
ATOM      5  C   UNL     1       4.481   3.330  17.764  0.00  0.00    +0.000 C 
BRANCH   5   6
ATOM      6  C   UNL     1       4.056   4.198  16.612  0.00  0.00    +0.000 C 
BRANCH   6   7
ATOM      7  C   UNL     1       5.073   4.225  15.471  0.00  0.00    +0.000 C 
BRANCH   7   8
ATOM      8  C   UNL     1       5.918   5.499  15.451  0.00  0.00    +0.000 C 
BRANCH   8   9
ATOM      9  C   UNL     1       7.033   5.448  16.476  0.00  0.00    +0.000 C 
ATOM     10  O   UNL     1       7.932   4.616  16.471  0.00  0.00    +0.000 OA
ATOM     11  N   UNL     1       6.939   6.443  17.423  0.00  0.00    +0.000 N 
ATOM     12  H   UNL     1       6.194   7.126  17.368  0.00  0.00    +0.000 HD
BRANCH  11  13
ATOM     13  C   UNL     1       7.905   6.553  18.506  0.00  0.00    +0.000 C 
BRANCH  13  14
ATOM     14  C   UNL     1       7.540   5.661  19.690  0.00  0.00    +0.000 C 
BRANCH  14  15
ATOM     15  O   UNL     1       8.726   5.238  20.365  0.00  0.00    +0.000 OA
ATOM     16  H   UNL     1       8.694   4.266  20.381  0.00  0.00    +0.000 HD
ENDBRANCH  14  15
ENDBRANCH  13  14
ENDBRANCH  11  13
ENDBRANCH   8   9
ENDBRANCH   7   8
ENDBRANCH   6   7
ENDBRANCH   5   6
ENDBRANCH   3   4
ENDBRANCH   2   3
BRANCH   1  17
ATOM     17  C   UNL     1       2.132   7.452  19.878  0.00  0.00    +0.000 C 
BRANCH  17  19
ATOM     18  C   UNL     1       0.936   9.499  20.724  0.00  0.00    +0.000 C 
ATOM     19  C   UNL     1       1.700   8.413  20.950  0.00  0.00    +0.000 C 
BRANCH  18  20
ATOM     20  C   UNL     1       0.463   9.968  19.366  0.00  0.00    +0.000 C 
ATOM     21  C   UNL     1       1.633  10.455  18.512  0.00  0.00    +0.000 C 
BRANCH  20  23
ATOM     22  C   UNL     1      -1.771  11.061  18.852  0.00  0.00    +0.000 C 
ATOM     23  C   UNL     1      -0.592  11.039  19.502  0.00  0.00    +0.000 C 
BRANCH  22  24
ATOM     24  C   UNL     1      -2.207  10.087  17.791  0.00  0.00    +0.000 C 
BRANCH  24  25
ATOM     25  C   UNL     1      -3.721  10.083  17.573  0.00  0.00    +0.000 C 
BRANCH  25  26
ATOM     26  C   UNL     1      -4.083  10.862  16.307  0.00  0.00    +0.000 C 
BRANCH  26  28
ATOM     27  C   UNL     1      -3.222   9.882  14.162  0.00  0.00    +0.000 C 
ATOM     28  C   UNL     1      -2.941  10.859  15.293  0.00  0.00    +0.000 C 
ENDBRANCH  26  28
ENDBRANCH  25  26
ENDBRANCH  24  25
ENDBRANCH  22  24
ENDBRANCH  20  23
ENDBRANCH  18  20
ENDBRANCH  17  19
ENDBRANCH   1  17
TORSDOF 17
ENDMDL
MODEL 7
REMARK VINA RESULT:      -5.8      3.849      6.518
REMARK  Name = 
REMARK  19 active torsions:
REMARK  status: ('A' for Active; 'I' for Inactive)
REMARK    1  A    between atoms: C_1  and  C_2
REMARK    2  A    between atoms: C_2  and  C_3
REMARK    3  A    between atoms: C_3  and  C_4
REMARK    4  A    between atoms: C_4  and  C_5
REMARK    5  A    between atoms: C_5  and  C_6
REMARK    6  A    between atoms: C_7  and  C_8
REMARK    7  A    between atoms: C_8  and  C_9
REMARK    8  A    between atoms: C_8  and  C_10
REMARK    9  A    between atoms: C_11  and  C_12
REMARK   10  A    between atoms: C_12  and  C_13
REMARK   11  A    between atoms: C_14  and  C_15
REMARK   12  A    between atoms: C_15  and  C_16
REMARK   13  A    between atoms: C_17  and  C_18
REMARK   14  A    between atoms: C_18  and  C_19
REMARK   15  A    between atoms: C_19  and  C_20
REMARK   16  A    between atoms: C_20  and  C_21
REMARK   17  A    between atoms: N_23  and  C_24
REMARK   18  A    between atoms: C_24  and  C_25
REMARK   19  A    between atoms: C_25  and  O_26
REMARK                            x       y       z     vdW  Elec       q    Type
REMARK                         _______ _______ _______ _____ _____    ______ ____
ROOT
ATOM      1  C   UNL     1       2.615   8.494  17.794  0.00  0.00    +0.000 C 
ATOM      2  C   UNL     1       1.648   9.171  18.436  0.00  0.00    +0.000 C 
ENDROOT
BRANCH   2   3
ATOM      3  C   UNL     1       0.730   8.582  19.471  0.00  0.00    +0.000 C 
BRANCH   3   4
ATOM      4  C   UNL     1       1.286   8.696  20.861  0.00  0.00    +0.000 C 
ATOM      5  C   UNL     1       0.782   9.460  21.845  0.00  0.00    +0.000 C 
BRANCH   5   6
ATOM      6  C   UNL     1      -0.397  10.385  21.722  0.00  0.00    +0.000 C 
BRANCH   6   7
ATOM      7  C   UNL     1      -0.906  10.896  23.069  0.00  0.00    +0.000 C 
BRANCH   7   8
ATOM      8  C   UNL     1      -1.809  12.123  22.943  0.00  0.00    +0.000 C 
BRANCH   8   9
ATOM      9  C   UNL     1      -1.048  13.409  23.196  0.00  0.00    +0.000 C 
ATOM     10  O   UNL     1       0.014  13.694  22.655  0.00  0.00    +0.000 OA
ATOM     11  N   UNL     1      -1.674  14.236  24.101  0.00  0.00    +0.000 N 
ATOM     12  H   UNL     1      -2.565  13.968  24.499  0.00  0.00    +0.000 HD
BRANCH  11  13
ATOM     13  C   UNL     1      -1.091  15.510  24.492  0.00  0.00    +0.000 C 
BRANCH  13  14
ATOM     14  C   UNL     1      -1.767  16.092  25.732  0.00  0.00    +0.000 C 
BRANCH  14  15
ATOM     15  O   UNL     1      -1.127  15.602  26.911  0.00  0.00    +0.000 OA
ATOM     16  H   UNL     1      -1.785  15.677  27.624  0.00  0.00    +0.000 HD
ENDBRANCH  14  15
ENDBRANCH  13  14
ENDBRANCH  11  13
ENDBRANCH   8   9
ENDBRANCH   7   8
ENDBRANCH   6   7
ENDBRANCH   5   6
ENDBRANCH   3   4
ENDBRANCH   2   3
BRANCH   1  17
ATOM     17  C   UNL     1       3.000   7.064  18.049  0.00  0.00    +0.000 C 
BRANCH  17  19
ATOM     18  C   UNL     1       4.873   5.462  17.538  0.00  0.00    +0.000 C 
ATOM     19  C   UNL     1       4.306   6.677  17.415  0.00  0.00    +0.000 C 
BRANCH  18  20
ATOM     20  C   UNL     1       4.338   4.331  18.390  0.00  0.00    +0.000 C 
ATOM     21  C   UNL     1       5.425   3.768  19.305  0.00  0.00    +0.000 C 
BRANCH  20  23
ATOM     22  C   UNL     1       2.422   3.061  17.311  0.00  0.00    +0.000 C 
ATOM     23  C   UNL     1       3.737   3.246  17.529  0.00  0.00    +0.000 C 
BRANCH  22  24
ATOM     24  C   UNL     1       1.306   3.826  17.969  0.00  0.00    +0.000 C 
BRANCH  24  25
ATOM     25  C   UNL     1       1.034   3.368  19.403  0.00  0.00    +0.000 C 
BRANCH  25  26
ATOM     26  C   UNL     1       1.212   4.531  20.380  0.00  0.00    +0.000 C 
BRANCH  26  28
ATOM     27  C   UNL     1       2.589   2.724  21.447  0.00  0.00    +0.000 C 
ATOM     28  C   UNL     1       2.210   4.195  21.486  0.00  0.00    +0.000 C 
ENDBRANCH  26  28
ENDBRANCH  25  26
ENDBRANCH  24  25
ENDBRANCH  22  24
ENDBRANCH  20  23
ENDBRANCH  18  20
ENDBRANCH  17  19
ENDBRANCH   1  17
TORSDOF 17
ENDMDL
MODEL 8
REMARK VINA RESULT:      -5.8      2.322      3.948
REMARK  Name = 
REMARK  19 active torsions:
REMARK  status: ('A' for Active; 'I' for Inactive)
REMARK    1  A    between atoms: C_1  and  C_2
REMARK    2  A    between atoms: C_2  and  C_3
REMARK    3  A    between atoms: C_3  and  C_4
REMARK    4  A    between atoms: C_4  and  C_5
REMARK    5  A    between atoms: C_5  and  C_6
REMARK    6  A    between atoms: C_7  and  C_8
REMARK    7  A    between atoms: C_8  and  C_9
REMARK    8  A    between atoms: C_8  and  C_10
REMARK    9  A    between atoms: C_11  and  C_12
REMARK   10  A    between atoms: C_12  and  C_13
REMARK   11  A    between atoms: C_14  and  C_15
REMARK   12  A    between atoms: C_15  and  C_16
REMARK   13  A    between atoms: C_17  and  C_18
REMARK   14  A    between atoms: C_18  and  C_19
REMARK   15  A    between atoms: C_19  and  C_20
REMARK   16  A    between atoms: C_20  and  C_21
REMARK   17  A    between atoms: N_23  and  C_24
REMARK   18  A    between atoms: C_24  and  C_25
REMARK   19  A    between atoms: C_25  and  O_26
REMARK                            x       y       z     vdW  Elec       q    Type
REMARK                         _______ _______ _______ _____ _____    ______ ____
ROOT
ATOM      1  C   UNL     1       1.527   3.436  21.047  0.00  0.00    +0.000 C 
ATOM      2  C   UNL     1       1.953   4.696  21.229  0.00  0.00    +0.000 C 
ENDROOT
BRANCH   2   3
ATOM      3  C   UNL     1       2.010   5.746  20.155  0.00  0.00    +0.000 C 
BRANCH   3   4
ATOM      4  C   UNL     1       1.745   7.125  20.687  0.00  0.00    +0.000 C 
ATOM      5  C   UNL     1       1.764   8.260  19.967  0.00  0.00    +0.000 C 
BRANCH   5   6
ATOM      6  C   UNL     1       2.112   8.367  18.508  0.00  0.00    +0.000 C 
BRANCH   6   7
ATOM      7  C   UNL     1       1.437   9.549  17.813  0.00  0.00    +0.000 C 
BRANCH   7   8
ATOM      8  C   UNL     1       1.950  10.904  18.300  0.00  0.00    +0.000 C 
BRANCH   8   9
ATOM      9  C   UNL     1       0.836  11.747  18.889  0.00  0.00    +0.000 C 
ATOM     10  O   UNL     1       0.229  11.461  19.914  0.00  0.00    +0.000 OA
ATOM     11  N   UNL     1       0.572  12.880  18.153  0.00  0.00    +0.000 N 
ATOM     12  H   UNL     1       1.121  13.087  17.329  0.00  0.00    +0.000 HD
BRANCH  11  13
ATOM     13  C   UNL     1      -0.477  13.809  18.543  0.00  0.00    +0.000 C 
BRANCH  13  14
ATOM     14  C   UNL     1       0.087  15.053  19.227  0.00  0.00    +0.000 C 
BRANCH  14  15
ATOM     15  O   UNL     1       1.419  15.297  18.773  0.00  0.00    +0.000 OA
ATOM     16  H   UNL     1       1.691  14.494  18.295  0.00  0.00    +0.000 HD
ENDBRANCH  14  15
ENDBRANCH  13  14
ENDBRANCH  11  13
ENDBRANCH   8   9
ENDBRANCH   7   8
ENDBRANCH   6   7
ENDBRANCH   5   6
ENDBRANCH   3   4
ENDBRANCH   2   3
BRANCH   1  17
ATOM     17  C   UNL     1       0.964   2.877  19.771  0.00  0.00    +0.000 C 
BRANCH  17  19
ATOM     18  C   UNL     1       2.920   1.962  18.479  0.00  0.00    +0.000 C 
ATOM     19  C   UNL     1       1.793   1.767  19.189  0.00  0.00    +0.000 C 
BRANCH  18  20
ATOM     20  C   UNL     1       3.482   3.311  18.085  0.00  0.00    +0.000 C 
ATOM     21  C   UNL     1       3.640   3.421  16.569  0.00  0.00    +0.000 C 
BRANCH  20  23
ATOM     22  C   UNL     1       5.394   4.774  18.891  0.00  0.00    +0.000 C 
ATOM     23  C   UNL     1       4.793   3.575  18.787  0.00  0.00    +0.000 C 
BRANCH  22  24
ATOM     24  C   UNL     1       4.935   6.048  18.236  0.00  0.00    +0.000 C 
BRANCH  24  25
ATOM     25  C   UNL     1       5.591   6.289  16.875  0.00  0.00    +0.000 C 
BRANCH  25  26
ATOM     26  C   UNL     1       7.009   5.717  16.854  0.00  0.00    +0.000 C 
BRANCH  26  28
ATOM     27  C   UNL     1       6.158   4.970  14.614  0.00  0.00    +0.000 C 
ATOM     28  C   UNL     1       7.219   4.760  15.683  0.00  0.00    +0.000 C 
ENDBRANCH  26  28
ENDBRANCH  25  26
ENDBRANCH  24  25
ENDBRANCH  22  24
ENDBRANCH  20  23
ENDBRANCH  18  20
ENDBRANCH  17  19
ENDBRANCH   1  17
TORSDOF 17
ENDMDL
MODEL 9
REMARK VINA RESULT:      -5.8      2.869      4.338
REMARK  Name = 
REMARK  19 active torsions:
REMARK  status: ('A' for Active; 'I' for Inactive)
REMARK    1  A    between atoms: C_1  and  C_2
REMARK    2  A    between atoms: C_2  and  C_3
REMARK    3  A    between atoms: C_3  and  C_4
REMARK    4  A    between atoms: C_4  and  C_5
REMARK    5  A    between atoms: C_5  and  C_6
REMARK    6  A    between atoms: C_7  and  C_8
REMARK    7  A    between atoms: C_8  and  C_9
REMARK    8  A    between atoms: C_8  and  C_10
REMARK    9  A    between atoms: C_11  and  C_12
REMARK   10  A    between atoms: C_12  and  C_13
REMARK   11  A    between atoms: C_14  and  C_15
REMARK   12  A    between atoms: C_15  and  C_16
REMARK   13  A    between atoms: C_17  and  C_18
REMARK   14  A    between atoms: C_18  and  C_19
REMARK   15  A    between atoms: C_19  and  C_20
REMARK   16  A    between atoms: C_20  and  C_21
REMARK   17  A    between atoms: N_23  and  C_24
REMARK   18  A    between atoms: C_24  and  C_25
REMARK   19  A    between atoms: C_25  and  O_26
REMARK                            x       y       z     vdW  Elec       q    Type
REMARK                         _______ _______ _______ _____ _____    ______ ____
ROOT
ATOM      1  C   UNL     1       1.191   3.929  18.902  0.00  0.00    +0.000 C 
ATOM      2  C   UNL     1       1.037   4.309  20.181  0.00  0.00    +0.000 C 
ENDROOT
BRANCH   2   3
ATOM      3  C   UNL     1       1.916   5.300  20.893  0.00  0.00    +0.000 C 
BRANCH   3   4
ATOM      4  C   UNL     1       2.136   6.550  20.090  0.00  0.00    +0.000 C 
ATOM      5  C   UNL     1       1.727   7.783  20.434  0.00  0.00    +0.000 C 
BRANCH   5   6
ATOM      6  C   UNL     1       0.923   8.132  21.656  0.00  0.00    +0.000 C 
BRANCH   6   7
ATOM      7  C   UNL     1       0.038   9.363  21.464  0.00  0.00    +0.000 C 
BRANCH   7   8
ATOM      8  C   UNL     1      -0.666   9.802  22.748  0.00  0.00    +0.000 C 
BRANCH   8   9
ATOM      9  C   UNL     1      -0.958  11.290  22.747  0.00  0.00    +0.000 C 
ATOM     10  O   UNL     1      -0.193  12.138  22.304  0.00  0.00    +0.000 OA
ATOM     11  N   UNL     1      -2.181  11.598  23.298  0.00  0.00    +0.000 N 
ATOM     12  H   UNL     1      -2.790  10.859  23.624  0.00  0.00    +0.000 HD
BRANCH  11  13
ATOM     13  C   UNL     1      -2.637  12.976  23.407  0.00  0.00    +0.000 C 
BRANCH  13  14
ATOM     14  C   UNL     1      -3.811  13.266  22.475  0.00  0.00    +0.000 C 
BRANCH  14  15
ATOM     15  O   UNL     1      -5.024  12.784  23.055  0.00  0.00    +0.000 OA
ATOM     16  H   UNL     1      -4.790  12.476  23.949  0.00  0.00    +0.000 HD
ENDBRANCH  14  15
ENDBRANCH  13  14
ENDBRANCH  11  13
ENDBRANCH   8   9
ENDBRANCH   7   8
ENDBRANCH   6   7
ENDBRANCH   5   6
ENDBRANCH   3   4
ENDBRANCH   2   3
BRANCH   1  17
ATOM     17  C   UNL     1       2.206   4.478  17.941  0.00  0.00    +0.000 C 
BRANCH  17  19
ATOM     18  C   UNL     1       4.066   2.811  17.625  0.00  0.00    +0.000 C 
ATOM     19  C   UNL     1       2.945   3.412  17.182  0.00  0.00    +0.000 C 
BRANCH  18  20
ATOM     20  C   UNL     1       4.799   3.163  18.901  0.00  0.00    +0.000 C 
ATOM     21  C   UNL     1       4.155   2.489  20.112  0.00  0.00    +0.000 C 
BRANCH  20  23
ATOM     22  C   UNL     1       5.909   5.441  18.742  0.00  0.00    +0.000 C 
ATOM     23  C   UNL     1       4.869   4.660  19.088  0.00  0.00    +0.000 C 
BRANCH  22  24
ATOM     24  C   UNL     1       7.232   4.960  18.211  0.00  0.00    +0.000 C 
BRANCH  24  25
ATOM     25  C   UNL     1       7.251   4.832  16.687  0.00  0.00    +0.000 C 
BRANCH  25  26
ATOM     26  C   UNL     1       6.263   5.813  16.053  0.00  0.00    +0.000 C 
BRANCH  26  28
ATOM     27  C   UNL     1       6.028   3.791  14.584  0.00  0.00    +0.000 C 
ATOM     28  C   UNL     1       5.481   5.172  14.908  0.00  0.00    +0.000 C 
ENDBRANCH  26  28
ENDBRANCH  25  26
ENDBRANCH  24  25
ENDBRANCH  22  24
ENDBRANCH  20  23
ENDBRANCH  18  20
ENDBRANCH  17  19
ENDBRANCH   1  17
TORSDOF 17
ENDMDL
