MODEL 1
REMARK VINA RESULT:      -4.7      0.000      0.000
REMARK  Name = 
REMARK  4 active torsions:
REMARK  status: ('A' for Active; 'I' for Inactive)
REMARK    1  A    between atoms: C_1  and  N_2
REMARK    2  A    between atoms: N_2  and  C_3
REMARK    3  A    between atoms: C_6  and  C_7
REMARK    4  A    between atoms: C_7  and  N_8
REMARK                            x       y       z     vdW  Elec       q    Type
REMARK                         _______ _______ _______ _____ _____    ______ ____
ROOT
ATOM      1  C   UNL     1       2.566   6.404  18.498  0.00  0.00    +0.000 A 
ATOM      2  C   UNL     1       2.327   6.549  19.870  0.00  0.00    +0.000 A 
ATOM      3  C   UNL     1       1.864   5.480  20.648  0.00  0.00    +0.000 A 
ATOM      4  C   UNL     1       1.582   4.240  20.065  0.00  0.00    +0.000 A 
ATOM      5  C   UNL     1       1.797   4.097  18.688  0.00  0.00    +0.000 A 
ATOM      6  C   UNL     1       2.260   5.172  17.915  0.00  0.00    +0.000 A 
ENDROOT
BRANCH   1   8
ATOM      7  C   UNL     1       2.137   8.722  17.811  0.00  0.00    +0.000 C 
ATOM      8  N   UNL     1       2.966   7.530  17.766  0.00  0.00    +0.000 N 
ATOM      9  H   UNL     1       3.235   7.282  16.819  0.00  0.00    +0.000 HD
ENDBRANCH   1   8
BRANCH   4  10
ATOM     10  C   UNL     1       1.119   3.092  20.930  0.00  0.00    +0.000 C 
BRANCH  10  11
ATOM     11  N   UNL     1       2.038   2.787  22.022  0.00  0.00    +0.000 NA
ATOM     12  H   UNL     1       2.832   3.422  21.963  0.00  0.00    +0.000 HD
ATOM     13  H   UNL     1       2.410   1.849  21.888  0.00  0.00    +0.000 HD
ENDBRANCH  10  11
ENDBRANCH   4  10
TORSDOF 3
ENDMDL
MODEL 2
REMARK VINA RESULT:      -4.7      5.382      6.185
REMARK  Name = 
REMARK  4 active torsions:
REMARK  status: ('A' for Active; 'I' for Inactive)
REMARK    1  A    between atoms: C_1  and  N_2
REMARK    2  A    between atoms: N_2  and  C_3
REMARK    3  A    between atoms: C_6  and  C_7
REMARK    4  A    between atoms: C_7  and  N_8
REMARK                            x       y       z     vdW  Elec       q    Type
REMARK                         _______ _______ _______ _____ _____    ______ ____
ROOT
ATOM      1  C   UNL     1       5.860   4.906  15.511  0.00  0.00    +0.000 A 
ATOM      2  C   UNL     1       6.896   4.167  16.095  0.00  0.00    +0.000 A 
ATOM      3  C   UNL     1       7.571   4.627  17.233  0.00  0.00    +0.000 A 
ATOM      4  C   UNL     1       7.257   5.868  17.798  0.00  0.00    +0.000 A 
ATOM      5  C   UNL     1       6.237   6.622  17.205  0.00  0.00    +0.000 A 
ATOM      6  C   UNL     1       5.566   6.156  16.064  0.00  0.00    +0.000 A 
ENDROOT
BRANCH   1   8
ATOM      7  C   UNL     1       6.110   3.734  13.368  0.00  0.00    +0.000 C 
ATOM      8  N   UNL     1       5.272   4.420  14.336  0.00  0.00    +0.000 N 
ATOM      9  H   UNL     1       4.672   5.117  13.904  0.00  0.00    +0.000 HD
ENDBRANCH   1   8
BRANCH   4  10
ATOM     10  C   UNL     1       7.972   6.326  19.047  0.00  0.00    +0.000 C 
BRANCH  10  11
ATOM     11  N   UNL     1       7.754   5.447  20.192  0.00  0.00    +0.000 NA
ATOM     12  H   UNL     1       7.911   5.982  21.045  0.00  0.00    +0.000 HD
ATOM     13  H   UNL     1       8.457   4.712  20.181  0.00  0.00    +0.000 HD
ENDBRANCH  10  11
ENDBRANCH   4  10
TORSDOF 3
ENDMDL
MODEL 3
REMARK VINA RESULT:      -4.7      4.498      5.052
REMARK  Name = 
REMARK  4 active torsions:
REMARK  status: ('A' for Active; 'I' for Inactive)
REMARK    1  A    between atoms: C_1  and  N_2
REMARK    2  A    between atoms: N_2  and  C_3
REMARK    3  A    between atoms: C_6  and  C_7
REMARK    4  A    between atoms: C_7  and  N_8
REMARK                            x       y       z     vdW  Elec       q    Type
REMARK                         _______ _______ _______ _____ _____    ______ ____
ROOT
ATOM      1  C   UNL     1       6.725   4.902  15.807  0.00  0.00    +0.000 A 
ATOM      2  C   UNL     1       7.217   5.046  17.109  0.00  0.00    +0.000 A 
ATOM      3  C   UNL     1       6.472   4.635  18.222  0.00  0.00    +0.000 A 
ATOM      4  C   UNL     1       5.187   4.105  18.066  0.00  0.00    +0.000 A 
ATOM      5  C   UNL     1       4.680   3.980  16.767  0.00  0.00    +0.000 A 
ATOM      6  C   UNL     1       5.431   4.395  15.657  0.00  0.00    +0.000 A 
ENDROOT
BRANCH   1   8
ATOM      7  C   UNL     1       7.270   4.853  13.413  0.00  0.00    +0.000 C 
ATOM      8  N   UNL     1       7.494   5.393  14.743  0.00  0.00    +0.000 N 
ATOM      9  H   UNL     1       8.480   5.431  14.983  0.00  0.00    +0.000 HD
ENDBRANCH   1   8
BRANCH   4  10
ATOM     10  C   UNL     1       4.417   3.635  19.278  0.00  0.00    +0.000 C 
BRANCH  10  11
ATOM     11  N   UNL     1       4.937   2.395  19.845  0.00  0.00    +0.000 NA
ATOM     12  H   UNL     1       5.800   2.604  20.344  0.00  0.00    +0.000 HD
ATOM     13  H   UNL     1       5.189   1.766  19.086  0.00  0.00    +0.000 HD
ENDBRANCH  10  11
ENDBRANCH   4  10
TORSDOF 3
ENDMDL
MODEL 4
REMARK VINA RESULT:      -4.7      2.494      4.695
REMARK  Name = 
REMARK  4 active torsions:
REMARK  status: ('A' for Active; 'I' for Inactive)
REMARK    1  A    between atoms: C_1  and  N_2
REMARK    2  A    between atoms: N_2  and  C_3
REMARK    3  A    between atoms: C_6  and  C_7
REMARK    4  A    between atoms: C_7  and  N_8
REMARK                            x       y       z     vdW  Elec       q    Type
REMARK                         _______ _______ _______ _____ _____    ______ ____
ROOT
ATOM      1  C   UNL     1       1.750   3.294  19.260  0.00  0.00    +0.000 A 
ATOM      2  C   UNL     1       1.880   4.599  18.771  0.00  0.00    +0.000 A 
ATOM      3  C   UNL     1       2.829   4.921  17.792  0.00  0.00    +0.000 A 
ATOM      4  C   UNL     1       3.709   3.951  17.302  0.00  0.00    +0.000 A 
ATOM      5  C   UNL     1       3.598   2.648  17.805  0.00  0.00    +0.000 A 
ATOM      6  C   UNL     1       2.647   2.333  18.786  0.00  0.00    +0.000 A 
ENDROOT
BRANCH   1   8
ATOM      7  C   UNL     1       1.323   2.726  21.611  0.00  0.00    +0.000 C 
ATOM      8  N   UNL     1       0.825   3.053  20.286  0.00  0.00    +0.000 N 
ATOM      9  H   UNL     1       0.089   2.421  19.982  0.00  0.00    +0.000 HD
ENDBRANCH   1   8
BRANCH   4  10
ATOM     10  C   UNL     1       4.699   4.313  16.220  0.00  0.00    +0.000 C 
BRANCH  10  11
ATOM     11  N   UNL     1       5.875   3.449  16.202  0.00  0.00    +0.000 NA
ATOM     12  H   UNL     1       5.990   3.040  17.129  0.00  0.00    +0.000 HD
ATOM     13  H   UNL     1       6.701   4.019  16.035  0.00  0.00    +0.000 HD
ENDBRANCH  10  11
ENDBRANCH   4  10
TORSDOF 3
ENDMDL
MODEL 5
REMARK VINA RESULT:      -4.6      1.846      2.295
REMARK  Name = 
REMARK  4 active torsions:
REMARK  status: ('A' for Active; 'I' for Inactive)
REMARK    1  A    between atoms: C_1  and  N_2
REMARK    2  A    between atoms: N_2  and  C_3
REMARK    3  A    between atoms: C_6  and  C_7
REMARK    4  A    between atoms: C_7  and  N_8
REMARK                            x       y       z     vdW  Elec       q    Type
REMARK                         _______ _______ _______ _____ _____    ______ ____
ROOT
ATOM      1  C   UNL     1       2.104   6.295  19.884  0.00  0.00    +0.000 A 
ATOM      2  C   UNL     1       1.569   5.324  20.738  0.00  0.00    +0.000 A 
ATOM      3  C   UNL     1       1.331   4.015  20.298  0.00  0.00    +0.000 A 
ATOM      4  C   UNL     1       1.583   3.649  18.972  0.00  0.00    +0.000 A 
ATOM      5  C   UNL     1       2.097   4.623  18.107  0.00  0.00    +0.000 A 
ATOM      6  C   UNL     1       2.331   5.932  18.553  0.00  0.00    +0.000 A 
ENDROOT
BRANCH   1   8
ATOM      7  C   UNL     1       1.175   8.188  21.142  0.00  0.00    +0.000 C 
ATOM      8  N   UNL     1       2.256   7.601  20.368  0.00  0.00    +0.000 N 
ATOM      9  H   UNL     1       2.599   8.228  19.646  0.00  0.00    +0.000 HD
ENDBRANCH   1   8
BRANCH   4  10
ATOM     10  C   UNL     1       1.354   2.222  18.531  0.00  0.00    +0.000 C 
BRANCH  10  11
ATOM     11  N   UNL     1       2.592   1.479  18.318  0.00  0.00    +0.000 NA
ATOM     12  H   UNL     1       3.018   1.803  17.450  0.00  0.00    +0.000 HD
ATOM     13  H   UNL     1       2.367   0.497  18.178  0.00  0.00    +0.000 HD
ENDBRANCH  10  11
ENDBRANCH   4  10
TORSDOF 3
ENDMDL
MODEL 6
REMARK VINA RESULT:      -4.6      3.079      3.560
REMARK  Name = 
REMARK  4 active torsions:
REMARK  status: ('A' for Active; 'I' for Inactive)
REMARK    1  A    between atoms: C_1  and  N_2
REMARK    2  A    between atoms: N_2  and  C_3
REMARK    3  A    between atoms: C_6  and  C_7
REMARK    4  A    between atoms: C_7  and  N_8
REMARK                            x       y       z     vdW  Elec       q    Type
REMARK                         _______ _______ _______ _____ _____    ______ ____
ROOT
ATOM      1  C   UNL     1       5.119   3.883  18.296  0.00  0.00    +0.000 A 
ATOM      2  C   UNL     1       4.672   3.244  19.459  0.00  0.00    +0.000 A 
ATOM      3  C   UNL     1       3.328   2.887  19.626  0.00  0.00    +0.000 A 
ATOM      4  C   UNL     1       2.378   3.200  18.648  0.00  0.00    +0.000 A 
ATOM      5  C   UNL     1       2.815   3.860  17.493  0.00  0.00    +0.000 A 
ATOM      6  C   UNL     1       4.163   4.216  17.333  0.00  0.00    +0.000 A 
ENDROOT
BRANCH   1   8
ATOM      7  C   UNL     1       7.041   4.533  16.914  0.00  0.00    +0.000 C 
ATOM      8  N   UNL     1       6.464   4.271  18.221  0.00  0.00    +0.000 N 
ATOM      9  H   UNL     1       7.055   3.674  18.792  0.00  0.00    +0.000 HD
ENDBRANCH   1   8
BRANCH   4  10
ATOM     10  C   UNL     1       0.941   2.772  18.835  0.00  0.00    +0.000 C 
BRANCH  10  11
ATOM     11  N   UNL     1       0.411   3.094  20.156  0.00  0.00    +0.000 NA
ATOM     12  H   UNL     1      -0.258   3.857  20.059  0.00  0.00    +0.000 HD
ATOM     13  H   UNL     1       1.167   3.449  20.737  0.00  0.00    +0.000 HD
ENDBRANCH  10  11
ENDBRANCH   4  10
TORSDOF 3
ENDMDL
MODEL 7
REMARK VINA RESULT:      -4.6      3.162      3.751
REMARK  Name = 
REMARK  4 active torsions:
REMARK  status: ('A' for Active; 'I' for Inactive)
REMARK    1  A    between atoms: C_1  and  N_2
REMARK    2  A    between atoms: N_2  and  C_3
REMARK    3  A    between atoms: C_6  and  C_7
REMARK    4  A    between atoms: C_7  and  N_8
REMARK                            x       y       z     vdW  Elec       q    Type
REMARK                         _______ _______ _______ _____ _____    ______ ____
ROOT
ATOM      1  C   UNL     1       5.125   3.811  18.412  0.00  0.00    +0.000 A 
ATOM      2  C   UNL     1       4.197   4.040  17.389  0.00  0.00    +0.000 A 
ATOM      3  C   UNL     1       2.847   3.699  17.538  0.00  0.00    +0.000 A 
ATOM      4  C   UNL     1       2.391   3.075  18.704  0.00  0.00    +0.000 A 
ATOM      5  C   UNL     1       3.319   2.823  19.721  0.00  0.00    +0.000 A 
ATOM      6  C   UNL     1       4.671   3.166  19.565  0.00  0.00    +0.000 A 
ENDROOT
BRANCH   1   8
ATOM      7  C   UNL     1       6.879   4.467  16.824  0.00  0.00    +0.000 C 
ATOM      8  N   UNL     1       6.472   4.117  18.173  0.00  0.00    +0.000 N 
ATOM      9  H   UNL     1       7.090   3.431  18.598  0.00  0.00    +0.000 HD
ENDBRANCH   1   8
BRANCH   4  10
ATOM     10  C   UNL     1       0.923   2.750  18.856  0.00  0.00    +0.000 C 
BRANCH  10  11
ATOM     11  N   UNL     1       0.401   3.051  20.185  0.00  0.00    +0.000 NA
ATOM     12  H   UNL     1       0.936   3.827  20.574  0.00  0.00    +0.000 HD
ATOM     13  H   UNL     1       0.570   2.253  20.794  0.00  0.00    +0.000 HD
ENDBRANCH  10  11
ENDBRANCH   4  10
TORSDOF 3
ENDMDL
MODEL 8
REMARK VINA RESULT:      -4.6      2.920      3.329
REMARK  Name = 
REMARK  4 active torsions:
REMARK  status: ('A' for Active; 'I' for Inactive)
REMARK    1  A    between atoms: C_1  and  N_2
REMARK    2  A    between atoms: N_2  and  C_3
REMARK    3  A    between atoms: C_6  and  C_7
REMARK    4  A    between atoms: C_7  and  N_8
REMARK                            x       y       z     vdW  Elec       q    Type
REMARK                         _______ _______ _______ _____ _____    ______ ____
ROOT
ATOM      1  C   UNL     1       5.294   4.212  19.000  0.00  0.00    +0.000 A 
ATOM      2  C   UNL     1       4.634   5.432  19.190  0.00  0.00    +0.000 A 
ATOM      3  C   UNL     1       3.325   5.485  19.688  0.00  0.00    +0.000 A 
ATOM      4  C   UNL     1       2.619   4.311  19.971  0.00  0.00    +0.000 A 
ATOM      5  C   UNL     1       3.267   3.087  19.761  0.00  0.00    +0.000 A 
ATOM      6  C   UNL     1       4.577   3.041  19.261  0.00  0.00    +0.000 A 
ENDROOT
BRANCH   1   8
ATOM      7  C   UNL     1       6.717   4.536  17.025  0.00  0.00    +0.000 C 
ATOM      8  N   UNL     1       6.577   4.227  18.438  0.00  0.00    +0.000 N 
ATOM      9  H   UNL     1       7.111   3.405  18.708  0.00  0.00    +0.000 HD
ENDBRANCH   1   8
BRANCH   4  10
ATOM     10  C   UNL     1       1.223   4.394  20.541  0.00  0.00    +0.000 C 
BRANCH  10  11
ATOM     11  N   UNL     1       0.430   3.194  20.299  0.00  0.00    +0.000 NA
ATOM     12  H   UNL     1       0.787   2.733  19.464  0.00  0.00    +0.000 HD
ATOM     13  H   UNL     1      -0.527   3.468  20.088  0.00  0.00    +0.000 HD
ENDBRANCH  10  11
ENDBRANCH   4  10
TORSDOF 3
ENDMDL
MODEL 9
REMARK VINA RESULT:      -4.6      2.769      3.575
REMARK  Name = 
REMARK  4 active torsions:
REMARK  status: ('A' for Active; 'I' for Inactive)
REMARK    1  A    between atoms: C_1  and  N_2
REMARK    2  A    between atoms: N_2  and  C_3
REMARK    3  A    between atoms: C_6  and  C_7
REMARK    4  A    between atoms: C_7  and  N_8
REMARK                            x       y       z     vdW  Elec       q    Type
REMARK                         _______ _______ _______ _____ _____    ______ ____
ROOT
ATOM      1  C   UNL     1       4.789   6.034  16.897  0.00  0.00    +0.000 A 
ATOM      2  C   UNL     1       4.817   4.658  16.644  0.00  0.00    +0.000 A 
ATOM      3  C   UNL     1       3.783   3.815  17.069  0.00  0.00    +0.000 A 
ATOM      4  C   UNL     1       2.704   4.320  17.803  0.00  0.00    +0.000 A 
ATOM      5  C   UNL     1       2.682   5.693  18.078  0.00  0.00    +0.000 A 
ATOM      6  C   UNL     1       3.722   6.531  17.650  0.00  0.00    +0.000 A 
ENDROOT
BRANCH   1   8
ATOM      7  C   UNL     1       7.182   6.544  17.102  0.00  0.00    +0.000 C 
ATOM      8  N   UNL     1       5.886   6.810  16.501  0.00  0.00    +0.000 N 
ATOM      9  H   UNL     1       5.659   7.801  16.495  0.00  0.00    +0.000 HD
ENDBRANCH   1   8
BRANCH   4  10
ATOM     10  C   UNL     1       1.582   3.398  18.219  0.00  0.00    +0.000 C 
BRANCH  10  11
ATOM     11  N   UNL     1       1.844   1.996  17.910  0.00  0.00    +0.000 NA
ATOM     12  H   UNL     1       2.418   1.952  17.068  0.00  0.00    +0.000 HD
ATOM     13  H   UNL     1       0.965   1.539  17.680  0.00  0.00    +0.000 HD
ENDBRANCH  10  11
ENDBRANCH   4  10
TORSDOF 3
ENDMDL
