MODEL 1
REMARK VINA RESULT:      -7.3      0.000      0.000
REMARK  Name = 
REMARK  7 active torsions:
REMARK  status: ('A' for Active; 'I' for Inactive)
REMARK    1  A    between atoms: C_1  and  O_2
REMARK    2  A    between atoms: O_2  and  C_3
REMARK    3  A    between atoms: C_4  and  C_5
REMARK    4  A    between atoms: C_8  and  C_9
REMARK    5  A    between atoms: C_9  and  S_10
REMARK    6  A    between atoms: S_10  and  C_12
REMARK    7  A    between atoms: C_21  and  C_22
REMARK                            x       y       z     vdW  Elec       q    Type
REMARK                         _______ _______ _______ _____ _____    ______ ____
ROOT
ATOM      1  S   UNL     1       6.142   5.637  17.757  0.00  0.00    +0.000 S 
ATOM      2  O   UNL     1       6.334   4.265  18.510  0.00  0.00    +0.000 OA
ENDROOT
BRANCH   1   3
ATOM      3  C   UNL     1       6.337   5.260  16.072  0.00  0.00    +0.000 A 
ATOM      4  N   UNL     1       7.280   5.725  15.281  0.00  0.00    +0.000 NA
ATOM      5  C   UNL     1       7.114   5.056  14.093  0.00  0.00    +0.000 A 
ATOM      6  C   UNL     1       7.883   5.106  12.921  0.00  0.00    +0.000 A 
ATOM      7  C   UNL     1       7.510   4.298  11.838  0.00  0.00    +0.000 A 
ATOM      8  C   UNL     1       6.384   3.473  11.915  0.00  0.00    +0.000 A 
ATOM      9  C   UNL     1       5.600   3.415  13.074  0.00  0.00    +0.000 A 
ATOM     10  C   UNL     1       6.008   4.212  14.145  0.00  0.00    +0.000 A 
ATOM     11  N   UNL     1       5.526   4.372  15.419  0.00  0.00    +0.000 N 
ATOM     12  H   UNL     1       4.731   3.909  15.837  0.00  0.00    +0.000 HD
ENDBRANCH   1   3
BRANCH   1  13
ATOM     13  C   UNL     1       4.375   6.068  17.740  0.00  0.00    +0.000 C 
BRANCH  13  19
ATOM     14  C   UNL     1       1.807   3.859  19.548  0.00  0.00    +0.000 A 
ATOM     15  C   UNL     1       1.601   2.889  18.562  0.00  0.00    +0.000 A 
ATOM     16  C   UNL     1       0.651   1.735  18.615  0.00  0.00    +0.000 C 
ATOM     17  C   UNL     1       2.364   3.011  17.405  0.00  0.00    +0.000 A 
ATOM     18  N   UNL     1       3.224   4.013  17.147  0.00  0.00    +0.000 NA
ATOM     19  C   UNL     1       3.429   4.949  18.106  0.00  0.00    +0.000 A 
ATOM     20  C   UNL     1       2.722   4.921  19.318  0.00  0.00    +0.000 A 
ATOM     21  C   UNL     1       2.921   5.957  20.397  0.00  0.00    +0.000 C 
BRANCH  14  23
ATOM     22  C   UNL     1       1.367   3.021  21.767  0.00  0.00    +0.000 C 
ATOM     23  O   UNL     1       1.127   3.965  20.737  0.00  0.00    +0.000 OA
ENDBRANCH  14  23
ENDBRANCH  13  19
ENDBRANCH   1  13
TORSDOF 4
ENDMDL
MODEL 2
REMARK VINA RESULT:      -7.3      1.921      3.113
REMARK  Name = 
REMARK  7 active torsions:
REMARK  status: ('A' for Active; 'I' for Inactive)
REMARK    1  A    between atoms: C_1  and  O_2
REMARK    2  A    between atoms: O_2  and  C_3
REMARK    3  A    between atoms: C_4  and  C_5
REMARK    4  A    between atoms: C_8  and  C_9
REMARK    5  A    between atoms: C_9  and  S_10
REMARK    6  A    between atoms: S_10  and  C_12
REMARK    7  A    between atoms: C_21  and  C_22
REMARK                            x       y       z     vdW  Elec       q    Type
REMARK                         _______ _______ _______ _____ _____    ______ ____
ROOT
ATOM      1  S   UNL     1       6.816   5.422  17.845  0.00  0.00    +0.000 S 
ATOM      2  O   UNL     1       7.881   4.504  18.561  0.00  0.00    +0.000 OA
ENDROOT
BRANCH   1   3
ATOM      3  C   UNL     1       6.811   4.900  16.188  0.00  0.00    +0.000 A 
ATOM      4  N   UNL     1       6.025   3.981  15.670  0.00  0.00    +0.000 NA
ATOM      5  C   UNL     1       6.286   4.003  14.322  0.00  0.00    +0.000 A 
ATOM      6  C   UNL     1       5.684   3.281  13.281  0.00  0.00    +0.000 A 
ATOM      7  C   UNL     1       6.123   3.504  11.968  0.00  0.00    +0.000 A 
ATOM      8  C   UNL     1       7.151   4.412  11.702  0.00  0.00    +0.000 A 
ATOM      9  C   UNL     1       7.768   5.137  12.730  0.00  0.00    +0.000 A 
ATOM     10  C   UNL     1       7.296   4.914  14.024  0.00  0.00    +0.000 A 
ATOM     11  N   UNL     1       7.619   5.463  15.238  0.00  0.00    +0.000 N 
ATOM     12  H   UNL     1       8.308   6.178  15.423  0.00  0.00    +0.000 HD
ENDBRANCH   1   3
BRANCH   1  13
ATOM     13  C   UNL     1       5.146   4.873  18.312  0.00  0.00    +0.000 C 
BRANCH  13  19
ATOM     14  C   UNL     1       2.208   7.119  19.348  0.00  0.00    +0.000 A 
ATOM     15  C   UNL     1       2.314   8.106  18.362  0.00  0.00    +0.000 A 
ATOM     16  C   UNL     1       1.475   9.337  18.224  0.00  0.00    +0.000 C 
ATOM     17  C   UNL     1       3.309   7.924  17.407  0.00  0.00    +0.000 A 
ATOM     18  N   UNL     1       4.200   6.916  17.400  0.00  0.00    +0.000 NA
ATOM     19  C   UNL     1       4.093   5.954  18.350  0.00  0.00    +0.000 A 
ATOM     20  C   UNL     1       3.120   6.029  19.359  0.00  0.00    +0.000 A 
ATOM     21  C   UNL     1       2.987   4.981  20.437  0.00  0.00    +0.000 C 
BRANCH  14  23
ATOM     22  C   UNL     1       1.348   8.220  21.314  0.00  0.00    +0.000 C 
ATOM     23  O   UNL     1       1.342   7.124  20.413  0.00  0.00    +0.000 OA
ENDBRANCH  14  23
ENDBRANCH  13  19
ENDBRANCH   1  13
TORSDOF 4
ENDMDL
MODEL 3
REMARK VINA RESULT:      -7.2      1.273      2.071
REMARK  Name = 
REMARK  7 active torsions:
REMARK  status: ('A' for Active; 'I' for Inactive)
REMARK    1  A    between atoms: C_1  and  O_2
REMARK    2  A    between atoms: O_2  and  C_3
REMARK    3  A    between atoms: C_4  and  C_5
REMARK    4  A    between atoms: C_8  and  C_9
REMARK    5  A    between atoms: C_9  and  S_10
REMARK    6  A    between atoms: S_10  and  C_12
REMARK    7  A    between atoms: C_21  and  C_22
REMARK                            x       y       z     vdW  Elec       q    Type
REMARK                         _______ _______ _______ _____ _____    ______ ____
ROOT
ATOM      1  S   UNL     1       6.762   5.011  17.810  0.00  0.00    +0.000 S 
ATOM      2  O   UNL     1       8.150   4.414  18.263  0.00  0.00    +0.000 OA
ENDROOT
BRANCH   1   3
ATOM      3  C   UNL     1       6.746   4.854  16.080  0.00  0.00    +0.000 A 
ATOM      4  N   UNL     1       7.546   5.476  15.240  0.00  0.00    +0.000 NA
ATOM      5  C   UNL     1       7.255   4.945  14.007  0.00  0.00    +0.000 A 
ATOM      6  C   UNL     1       7.855   5.190  12.763  0.00  0.00    +0.000 A 
ATOM      7  C   UNL     1       7.381   4.495  11.642  0.00  0.00    +0.000 A 
ATOM      8  C   UNL     1       6.322   3.591  11.756  0.00  0.00    +0.000 A 
ATOM      9  C   UNL     1       5.707   3.339  12.988  0.00  0.00    +0.000 A 
ATOM     10  C   UNL     1       6.214   4.026  14.092  0.00  0.00    +0.000 A 
ATOM     11  N   UNL     1       5.902   3.997  15.427  0.00  0.00    +0.000 N 
ATOM     12  H   UNL     1       5.197   3.433  15.880  0.00  0.00    +0.000 HD
ENDBRANCH   1   3
BRANCH   1  13
ATOM     13  C   UNL     1       5.443   3.822  18.206  0.00  0.00    +0.000 C 
BRANCH  13  19
ATOM     14  C   UNL     1       2.070   4.253  19.989  0.00  0.00    +0.000 A 
ATOM     15  C   UNL     1       2.077   5.642  20.164  0.00  0.00    +0.000 A 
ATOM     16  C   UNL     1       1.042   6.468  20.860  0.00  0.00    +0.000 C 
ATOM     17  C   UNL     1       3.165   6.327  19.634  0.00  0.00    +0.000 A 
ATOM     18  N   UNL     1       4.222   5.754  19.031  0.00  0.00    +0.000 NA
ATOM     19  C   UNL     1       4.212   4.409  18.853  0.00  0.00    +0.000 A 
ATOM     20  C   UNL     1       3.160   3.616  19.339  0.00  0.00    +0.000 A 
ATOM     21  C   UNL     1       3.130   2.117  19.168  0.00  0.00    +0.000 C 
BRANCH  14  23
ATOM     22  C   UNL     1       1.342   2.752  21.732  0.00  0.00    +0.000 C 
ATOM     23  O   UNL     1       1.131   3.378  20.477  0.00  0.00    +0.000 OA
ENDBRANCH  14  23
ENDBRANCH  13  19
ENDBRANCH   1  13
TORSDOF 4
ENDMDL
MODEL 4
REMARK VINA RESULT:      -7.2      1.057      2.332
REMARK  Name = 
REMARK  7 active torsions:
REMARK  status: ('A' for Active; 'I' for Inactive)
REMARK    1  A    between atoms: C_1  and  O_2
REMARK    2  A    between atoms: O_2  and  C_3
REMARK    3  A    between atoms: C_4  and  C_5
REMARK    4  A    between atoms: C_8  and  C_9
REMARK    5  A    between atoms: C_9  and  S_10
REMARK    6  A    between atoms: S_10  and  C_12
REMARK    7  A    between atoms: C_21  and  C_22
REMARK                            x       y       z     vdW  Elec       q    Type
REMARK                         _______ _______ _______ _____ _____    ______ ____
ROOT
ATOM      1  S   UNL     1       6.237   5.707  17.790  0.00  0.00    +0.000 S 
ATOM      2  O   UNL     1       6.496   4.460  18.721  0.00  0.00    +0.000 OA
ENDROOT
BRANCH   1   3
ATOM      3  C   UNL     1       6.472   5.119  16.172  0.00  0.00    +0.000 A 
ATOM      4  N   UNL     1       5.782   4.162  15.590  0.00  0.00    +0.000 NA
ATOM      5  C   UNL     1       6.227   4.137  14.291  0.00  0.00    +0.000 A 
ATOM      6  C   UNL     1       5.788   3.359  13.208  0.00  0.00    +0.000 A 
ATOM      7  C   UNL     1       6.401   3.541  11.961  0.00  0.00    +0.000 A 
ATOM      8  C   UNL     1       7.439   4.462  11.801  0.00  0.00    +0.000 A 
ATOM      9  C   UNL     1       7.895   5.242  12.871  0.00  0.00    +0.000 A 
ATOM     10  C   UNL     1       7.252   5.059  14.096  0.00  0.00    +0.000 A 
ATOM     11  N   UNL     1       7.393   5.664  15.318  0.00  0.00    +0.000 N 
ATOM     12  H   UNL     1       8.037   6.402  15.566  0.00  0.00    +0.000 HD
ENDBRANCH   1   3
BRANCH   1  13
ATOM     13  C   UNL     1       4.449   6.030  17.710  0.00  0.00    +0.000 C 
BRANCH  13  19
ATOM     14  C   UNL     1       2.295   3.265  19.278  0.00  0.00    +0.000 A 
ATOM     15  C   UNL     1       2.181   3.771  20.578  0.00  0.00    +0.000 A 
ATOM     16  C   UNL     1       1.488   3.129  21.738  0.00  0.00    +0.000 C 
ATOM     17  C   UNL     1       2.775   5.005  20.816  0.00  0.00    +0.000 A 
ATOM     18  N   UNL     1       3.494   5.705  19.919  0.00  0.00    +0.000 NA
ATOM     19  C   UNL     1       3.598   5.219  18.657  0.00  0.00    +0.000 A 
ATOM     20  C   UNL     1       3.029   3.987  18.299  0.00  0.00    +0.000 A 
ATOM     21  C   UNL     1       3.141   3.416  16.907  0.00  0.00    +0.000 C 
BRANCH  14  23
ATOM     22  C   UNL     1       0.446   1.854  18.637  0.00  0.00    +0.000 C 
ATOM     23  O   UNL     1       1.837   2.048  18.837  0.00  0.00    +0.000 OA
ENDBRANCH  14  23
ENDBRANCH  13  19
ENDBRANCH   1  13
TORSDOF 4
ENDMDL
MODEL 5
REMARK VINA RESULT:      -7.1      0.193      1.246
REMARK  Name = 
REMARK  7 active torsions:
REMARK  status: ('A' for Active; 'I' for Inactive)
REMARK    1  A    between atoms: C_1  and  O_2
REMARK    2  A    between atoms: O_2  and  C_3
REMARK    3  A    between atoms: C_4  and  C_5
REMARK    4  A    between atoms: C_8  and  C_9
REMARK    5  A    between atoms: C_9  and  S_10
REMARK    6  A    between atoms: S_10  and  C_12
REMARK    7  A    between atoms: C_21  and  C_22
REMARK                            x       y       z     vdW  Elec       q    Type
REMARK                         _______ _______ _______ _____ _____    ______ ____
ROOT
ATOM      1  S   UNL     1       6.153   5.651  17.730  0.00  0.00    +0.000 S 
ATOM      2  O   UNL     1       6.328   4.378  18.645  0.00  0.00    +0.000 OA
ENDROOT
BRANCH   1   3
ATOM      3  C   UNL     1       6.454   5.091  16.113  0.00  0.00    +0.000 A 
ATOM      4  N   UNL     1       5.842   4.091  15.516  0.00  0.00    +0.000 NA
ATOM      5  C   UNL     1       6.309   4.105  14.224  0.00  0.00    +0.000 A 
ATOM      6  C   UNL     1       5.943   3.306  13.131  0.00  0.00    +0.000 A 
ATOM      7  C   UNL     1       6.562   3.536  11.895  0.00  0.00    +0.000 A 
ATOM      8  C   UNL     1       7.537   4.528  11.756  0.00  0.00    +0.000 A 
ATOM      9  C   UNL     1       7.919   5.331  12.838  0.00  0.00    +0.000 A 
ATOM     10  C   UNL     1       7.271   5.097  14.051  0.00  0.00    +0.000 A 
ATOM     11  N   UNL     1       7.350   5.703  15.278  0.00  0.00    +0.000 N 
ATOM     12  H   UNL     1       7.937   6.482  15.540  0.00  0.00    +0.000 HD
ENDBRANCH   1   3
BRANCH   1  13
ATOM     13  C   UNL     1       4.382   6.029  17.566  0.00  0.00    +0.000 C 
BRANCH  13  19
ATOM     14  C   UNL     1       1.845   3.889  19.497  0.00  0.00    +0.000 A 
ATOM     15  C   UNL     1       1.612   2.892  18.544  0.00  0.00    +0.000 A 
ATOM     16  C   UNL     1       0.657   1.746  18.654  0.00  0.00    +0.000 C 
ATOM     17  C   UNL     1       2.347   2.976  17.367  0.00  0.00    +0.000 A 
ATOM     18  N   UNL     1       3.206   3.965  17.059  0.00  0.00    +0.000 NA
ATOM     19  C   UNL     1       3.439   4.927  17.986  0.00  0.00    +0.000 A 
ATOM     20  C   UNL     1       2.761   4.939  19.215  0.00  0.00    +0.000 A 
ATOM     21  C   UNL     1       2.990   6.004  20.258  0.00  0.00    +0.000 C 
BRANCH  14  23
ATOM     22  C   UNL     1       1.413   3.086  21.730  0.00  0.00    +0.000 C 
ATOM     23  O   UNL     1       1.195   4.034  20.698  0.00  0.00    +0.000 OA
ENDBRANCH  14  23
ENDBRANCH  13  19
ENDBRANCH   1  13
TORSDOF 4
ENDMDL
MODEL 6
REMARK VINA RESULT:      -6.9      1.083      1.991
REMARK  Name = 
REMARK  7 active torsions:
REMARK  status: ('A' for Active; 'I' for Inactive)
REMARK    1  A    between atoms: C_1  and  O_2
REMARK    2  A    between atoms: O_2  and  C_3
REMARK    3  A    between atoms: C_4  and  C_5
REMARK    4  A    between atoms: C_8  and  C_9
REMARK    5  A    between atoms: C_9  and  S_10
REMARK    6  A    between atoms: S_10  and  C_12
REMARK    7  A    between atoms: C_21  and  C_22
REMARK                            x       y       z     vdW  Elec       q    Type
REMARK                         _______ _______ _______ _____ _____    ______ ____
ROOT
ATOM      1  S   UNL     1       6.034   5.759  17.847  0.00  0.00    +0.000 S 
ATOM      2  O   UNL     1       6.351   4.433  18.639  0.00  0.00    +0.000 OA
ENDROOT
BRANCH   1   3
ATOM      3  C   UNL     1       6.244   5.346  16.172  0.00  0.00    +0.000 A 
ATOM      4  N   UNL     1       7.222   5.754  15.393  0.00  0.00    +0.000 NA
ATOM      5  C   UNL     1       7.048   5.073  14.212  0.00  0.00    +0.000 A 
ATOM      6  C   UNL     1       7.842   5.069  13.055  0.00  0.00    +0.000 A 
ATOM      7  C   UNL     1       7.452   4.261  11.978  0.00  0.00    +0.000 A 
ATOM      8  C   UNL     1       6.289   3.490  12.045  0.00  0.00    +0.000 A 
ATOM      9  C   UNL     1       5.481   3.487  13.189  0.00  0.00    +0.000 A 
ATOM     10  C   UNL     1       5.904   4.282  14.256  0.00  0.00    +0.000 A 
ATOM     11  N   UNL     1       5.405   4.484  15.517  0.00  0.00    +0.000 N 
ATOM     12  H   UNL     1       4.582   4.065  15.925  0.00  0.00    +0.000 HD
ENDBRANCH   1   3
BRANCH   1  13
ATOM     13  C   UNL     1       4.236   6.035  17.839  0.00  0.00    +0.000 C 
BRANCH  13  19
ATOM     14  C   UNL     1       2.225   3.153  19.386  0.00  0.00    +0.000 A 
ATOM     15  C   UNL     1       2.129   3.619  20.702  0.00  0.00    +0.000 A 
ATOM     16  C   UNL     1       1.492   2.921  21.861  0.00  0.00    +0.000 C 
ATOM     17  C   UNL     1       2.686   4.866  20.959  0.00  0.00    +0.000 A 
ATOM     18  N   UNL     1       3.355   5.616  20.063  0.00  0.00    +0.000 NA
ATOM     19  C   UNL     1       3.441   5.169  18.786  0.00  0.00    +0.000 A 
ATOM     20  C   UNL     1       2.906   3.927  18.408  0.00  0.00    +0.000 A 
ATOM     21  C   UNL     1       3.000   3.399  16.998  0.00  0.00    +0.000 C 
BRANCH  14  23
ATOM     22  C   UNL     1       0.429   1.746  18.604  0.00  0.00    +0.000 C 
ATOM     23  O   UNL     1       1.798   1.933  18.923  0.00  0.00    +0.000 OA
ENDBRANCH  14  23
ENDBRANCH  13  19
ENDBRANCH   1  13
TORSDOF 4
ENDMDL
MODEL 7
REMARK VINA RESULT:      -6.9      2.616      6.706
REMARK  Name = 
REMARK  7 active torsions:
REMARK  status: ('A' for Active; 'I' for Inactive)
REMARK    1  A    between atoms: C_1  and  O_2
REMARK    2  A    between atoms: O_2  and  C_3
REMARK    3  A    between atoms: C_4  and  C_5
REMARK    4  A    between atoms: C_8  and  C_9
REMARK    5  A    between atoms: C_9  and  S_10
REMARK    6  A    between atoms: S_10  and  C_12
REMARK    7  A    between atoms: C_21  and  C_22
REMARK                            x       y       z     vdW  Elec       q    Type
REMARK                         _______ _______ _______ _____ _____    ______ ____
ROOT
ATOM      1  S   UNL     1       2.709   3.463  19.575  0.00  0.00    +0.000 S 
ATOM      2  O   UNL     1       2.233   3.083  21.030  0.00  0.00    +0.000 OA
ENDROOT
BRANCH   1   3
ATOM      3  C   UNL     1       2.462   5.179  19.453  0.00  0.00    +0.000 A 
ATOM      4  N   UNL     1       2.574   5.899  18.357  0.00  0.00    +0.000 NA
ATOM      5  C   UNL     1       2.162   7.160  18.713  0.00  0.00    +0.000 A 
ATOM      6  C   UNL     1       2.011   8.309  17.922  0.00  0.00    +0.000 A 
ATOM      7  C   UNL     1       1.548   9.485  18.530  0.00  0.00    +0.000 A 
ATOM      8  C   UNL     1       1.261   9.519  19.897  0.00  0.00    +0.000 A 
ATOM      9  C   UNL     1       1.413   8.384  20.703  0.00  0.00    +0.000 A 
ATOM     10  C   UNL     1       1.852   7.221  20.069  0.00  0.00    +0.000 A 
ATOM     11  N   UNL     1       2.063   5.942  20.517  0.00  0.00    +0.000 N 
ATOM     12  H   UNL     1       1.931   5.592  21.455  0.00  0.00    +0.000 HD
ENDBRANCH   1   3
BRANCH   1  13
ATOM     13  C   UNL     1       4.527   3.441  19.517  0.00  0.00    +0.000 C 
BRANCH  13  19
ATOM     14  C   UNL     1       6.757   5.306  17.009  0.00  0.00    +0.000 A 
ATOM     15  C   UNL     1       6.276   4.754  15.817  0.00  0.00    +0.000 A 
ATOM     16  C   UNL     1       6.772   5.026  14.432  0.00  0.00    +0.000 C 
ATOM     17  C   UNL     1       5.222   3.855  15.933  0.00  0.00    +0.000 A 
ATOM     18  N   UNL     1       4.683   3.438  17.093  0.00  0.00    +0.000 NA
ATOM     19  C   UNL     1       5.144   3.979  18.248  0.00  0.00    +0.000 A 
ATOM     20  C   UNL     1       6.199   4.904  18.252  0.00  0.00    +0.000 A 
ATOM     21  C   UNL     1       6.740   5.511  19.523  0.00  0.00    +0.000 C 
BRANCH  14  23
ATOM     22  C   UNL     1       7.588   7.562  17.209  0.00  0.00    +0.000 C 
ATOM     23  O   UNL     1       7.821   6.165  17.135  0.00  0.00    +0.000 OA
ENDBRANCH  14  23
ENDBRANCH  13  19
ENDBRANCH   1  13
TORSDOF 4
ENDMDL
MODEL 8
REMARK VINA RESULT:      -6.8      1.519      2.334
REMARK  Name = 
REMARK  7 active torsions:
REMARK  status: ('A' for Active; 'I' for Inactive)
REMARK    1  A    between atoms: C_1  and  O_2
REMARK    2  A    between atoms: O_2  and  C_3
REMARK    3  A    between atoms: C_4  and  C_5
REMARK    4  A    between atoms: C_8  and  C_9
REMARK    5  A    between atoms: C_9  and  S_10
REMARK    6  A    between atoms: S_10  and  C_12
REMARK    7  A    between atoms: C_21  and  C_22
REMARK                            x       y       z     vdW  Elec       q    Type
REMARK                         _______ _______ _______ _____ _____    ______ ____
ROOT
ATOM      1  S   UNL     1       6.556   6.163  17.803  0.00  0.00    +0.000 S 
ATOM      2  O   UNL     1       8.059   6.482  18.157  0.00  0.00    +0.000 OA
ENDROOT
BRANCH   1   3
ATOM      3  C   UNL     1       6.609   5.413  16.237  0.00  0.00    +0.000 A 
ATOM      4  N   UNL     1       5.752   4.528  15.775  0.00  0.00    +0.000 NA
ATOM      5  C   UNL     1       6.115   4.325  14.466  0.00  0.00    +0.000 A 
ATOM      6  C   UNL     1       5.505   3.537  13.478  0.00  0.00    +0.000 A 
ATOM      7  C   UNL     1       6.069   3.515  12.195  0.00  0.00    +0.000 A 
ATOM      8  C   UNL     1       7.224   4.248  11.908  0.00  0.00    +0.000 A 
ATOM      9  C   UNL     1       7.850   5.034  12.883  0.00  0.00    +0.000 A 
ATOM     10  C   UNL     1       7.255   5.057  14.145  0.00  0.00    +0.000 A 
ATOM     11  N   UNL     1       7.554   5.734  15.300  0.00  0.00    +0.000 N 
ATOM     12  H   UNL     1       8.314   6.381  15.452  0.00  0.00    +0.000 HD
ENDBRANCH   1   3
BRANCH   1  13
ATOM     13  C   UNL     1       6.005   4.729  18.777  0.00  0.00    +0.000 C 
BRANCH  13  19
ATOM     14  C   UNL     1       2.527   3.699  20.037  0.00  0.00    +0.000 A 
ATOM     15  C   UNL     1       1.901   4.950  20.035  0.00  0.00    +0.000 A 
ATOM     16  C   UNL     1       0.507   5.262  20.480  0.00  0.00    +0.000 C 
ATOM     17  C   UNL     1       2.657   6.020  19.569  0.00  0.00    +0.000 A 
ATOM     18  N   UNL     1       3.945   5.950  19.186  0.00  0.00    +0.000 NA
ATOM     19  C   UNL     1       4.550   4.736  19.179  0.00  0.00    +0.000 A 
ATOM     20  C   UNL     1       3.880   3.583  19.620  0.00  0.00    +0.000 A 
ATOM     21  C   UNL     1       4.533   2.223  19.637  0.00  0.00    +0.000 C 
BRANCH  14  23
ATOM     22  C   UNL     1       1.589   2.429  21.861  0.00  0.00    +0.000 C 
ATOM     23  O   UNL     1       1.992   2.524  20.505  0.00  0.00    +0.000 OA
ENDBRANCH  14  23
ENDBRANCH  13  19
ENDBRANCH   1  13
TORSDOF 4
ENDMDL
MODEL 9
REMARK VINA RESULT:      -6.8      2.092      3.150
REMARK  Name = 
REMARK  7 active torsions:
REMARK  status: ('A' for Active; 'I' for Inactive)
REMARK    1  A    between atoms: C_1  and  O_2
REMARK    2  A    between atoms: O_2  and  C_3
REMARK    3  A    between atoms: C_4  and  C_5
REMARK    4  A    between atoms: C_8  and  C_9
REMARK    5  A    between atoms: C_9  and  S_10
REMARK    6  A    between atoms: S_10  and  C_12
REMARK    7  A    between atoms: C_21  and  C_22
REMARK                            x       y       z     vdW  Elec       q    Type
REMARK                         _______ _______ _______ _____ _____    ______ ____
ROOT
ATOM      1  S   UNL     1       5.855   5.524  18.040  0.00  0.00    +0.000 S 
ATOM      2  O   UNL     1       6.616   4.365  18.791  0.00  0.00    +0.000 OA
ENDROOT
BRANCH   1   3
ATOM      3  C   UNL     1       6.083   5.193  16.349  0.00  0.00    +0.000 A 
ATOM      4  N   UNL     1       7.077   5.628  15.604  0.00  0.00    +0.000 NA
ATOM      5  C   UNL     1       6.911   5.010  14.389  0.00  0.00    +0.000 A 
ATOM      6  C   UNL     1       7.720   5.054  13.244  0.00  0.00    +0.000 A 
ATOM      7  C   UNL     1       7.336   4.307  12.122  0.00  0.00    +0.000 A 
ATOM      8  C   UNL     1       6.162   3.549  12.134  0.00  0.00    +0.000 A 
ATOM      9  C   UNL     1       5.338   3.499  13.266  0.00  0.00    +0.000 A 
ATOM     10  C   UNL     1       5.756   4.232  14.377  0.00  0.00    +0.000 A 
ATOM     11  N   UNL     1       5.243   4.378  15.640  0.00  0.00    +0.000 N 
ATOM     12  H   UNL     1       4.409   3.949  16.016  0.00  0.00    +0.000 HD
ENDBRANCH   1   3
BRANCH   1  13
ATOM     13  C   UNL     1       4.063   5.224  18.140  0.00  0.00    +0.000 C 
BRANCH  13  19
ATOM     14  C   UNL     1       1.790   7.776  19.891  0.00  0.00    +0.000 A 
ATOM     15  C   UNL     1       1.827   8.805  18.944  0.00  0.00    +0.000 A 
ATOM     16  C   UNL     1       1.171  10.146  19.043  0.00  0.00    +0.000 C 
ATOM     17  C   UNL     1       2.552   8.554  17.784  0.00  0.00    +0.000 A 
ATOM     18  N   UNL     1       3.259   7.436  17.539  0.00  0.00    +0.000 NA
ATOM     19  C   UNL     1       3.218   6.435  18.453  0.00  0.00    +0.000 A 
ATOM     20  C   UNL     1       2.510   6.573  19.657  0.00  0.00    +0.000 A 
ATOM     21  C   UNL     1       2.457   5.481  20.698  0.00  0.00    +0.000 C 
BRANCH  14  23
ATOM     22  C   UNL     1      -0.152   8.285  21.228  0.00  0.00    +0.000 C 
ATOM     23  O   UNL     1       1.187   7.827  21.123  0.00  0.00    +0.000 OA
ENDBRANCH  14  23
ENDBRANCH  13  19
ENDBRANCH   1  13
TORSDOF 4
ENDMDL
