MODEL 1
REMARK VINA RESULT:      -6.9      0.000      0.000
REMARK  Name = 
REMARK  8 active torsions:
REMARK  status: ('A' for Active; 'I' for Inactive)
REMARK    1  A    between atoms: C_1  and  C_2
REMARK    2  A    between atoms: C_2  and  C_3
REMARK    3  A    between atoms: C_2  and  C_4
REMARK    4  A    between atoms: C_2  and  C_5
REMARK    5  A    between atoms: C_5  and  C_6
REMARK    6  A    between atoms: C_9  and  N_10
REMARK    7  A    between atoms: C_11  and  C_12
REMARK    8  A    between atoms: C_12  and  C_14
REMARK                            x       y       z     vdW  Elec       q    Type
REMARK                         _______ _______ _______ _____ _____    ______ ____
ROOT
ATOM      1  C   UNL     1       3.222   5.009  19.951  0.00  0.00    +0.000 A 
ATOM      2  C   UNL     1       2.194   4.280  20.520  0.00  0.00    +0.000 A 
ATOM      3  S   UNL     1       2.548   2.628  20.661  0.00  0.00    +0.000 S 
ATOM      4  C   UNL     1       4.128   2.844  20.048  0.00  0.00    +0.000 A 
ATOM      5  C   UNL     1       4.363   4.153  19.636  0.00  0.00    +0.000 A 
ENDROOT
BRANCH   4   6
ATOM      6  N   UNL     1       4.955   1.774  20.030  0.00  0.00    +0.000 N 
ATOM      7  H   UNL     1       4.913   1.136  20.823  0.00  0.00    +0.000 HD
ATOM      8  H   UNL     1       5.887   1.845  19.636  0.00  0.00    +0.000 HD
ENDBRANCH   4   6
BRANCH   5   9
ATOM      9  C   UNL     1       5.618   4.632  19.033  0.00  0.00    +0.000 C 
ATOM     10  O   UNL     1       6.482   5.188  19.709  0.00  0.00    +0.000 OA
BRANCH   9  11
ATOM     11  C   UNL     1       5.890   4.478  17.571  0.00  0.00    +0.000 A 
ATOM     12  C   UNL     1       4.873   3.938  16.766  0.00  0.00    +0.000 A 
ATOM     13  C   UNL     1       5.061   3.782  15.390  0.00  0.00    +0.000 A 
ATOM     14  C   UNL     1       6.269   4.162  14.812  0.00  0.00    +0.000 A 
ATOM     15 CL   UNL     1       6.495   3.995  13.115  0.00  0.00    +0.000 Cl
ATOM     16  C   UNL     1       7.297   4.675  15.601  0.00  0.00    +0.000 A 
ATOM     17  C   UNL     1       7.116   4.816  16.982  0.00  0.00    +0.000 A 
ENDBRANCH   9  11
ENDBRANCH   5   9
BRANCH   1  18
ATOM     18  C   UNL     1       3.127   6.505  19.735  0.00  0.00    +0.000 C 
BRANCH  18  20
ATOM     19  C   UNL     1       1.844   5.890  17.610  0.00  0.00    +0.000 C 
ATOM     20  C   UNL     1       2.688   6.965  18.317  0.00  0.00    +0.000 C 
ATOM     21  C   UNL     1       3.894   7.325  17.437  0.00  0.00    +0.000 C 
ATOM     22  C   UNL     1       1.815   8.229  18.478  0.00  0.00    +0.000 C 
ENDBRANCH  18  20
ENDBRANCH   1  18
TORSDOF 5
ENDMDL
MODEL 2
REMARK VINA RESULT:      -6.9      0.107      1.452
REMARK  Name = 
REMARK  8 active torsions:
REMARK  status: ('A' for Active; 'I' for Inactive)
REMARK    1  A    between atoms: C_1  and  C_2
REMARK    2  A    between atoms: C_2  and  C_3
REMARK    3  A    between atoms: C_2  and  C_4
REMARK    4  A    between atoms: C_2  and  C_5
REMARK    5  A    between atoms: C_5  and  C_6
REMARK    6  A    between atoms: C_9  and  N_10
REMARK    7  A    between atoms: C_11  and  C_12
REMARK    8  A    between atoms: C_12  and  C_14
REMARK                            x       y       z     vdW  Elec       q    Type
REMARK                         _______ _______ _______ _____ _____    ______ ____
ROOT
ATOM      1  C   UNL     1       3.262   5.023  19.936  0.00  0.00    +0.000 A 
ATOM      2  C   UNL     1       2.236   4.316  20.536  0.00  0.00    +0.000 A 
ATOM      3  S   UNL     1       2.568   2.661  20.689  0.00  0.00    +0.000 S 
ATOM      4  C   UNL     1       4.137   2.845  20.038  0.00  0.00    +0.000 A 
ATOM      5  C   UNL     1       4.383   4.145  19.606  0.00  0.00    +0.000 A 
ENDROOT
BRANCH   4   6
ATOM      6  N   UNL     1       4.946   1.762  20.014  0.00  0.00    +0.000 N 
ATOM      7  H   UNL     1       4.700   1.006  19.378  0.00  0.00    +0.000 HD
ATOM      8  H   UNL     1       5.390   1.427  20.864  0.00  0.00    +0.000 HD
ENDBRANCH   4   6
BRANCH   5   9
ATOM      9  C   UNL     1       5.631   4.598  18.969  0.00  0.00    +0.000 C 
ATOM     10  O   UNL     1       6.537   5.108  19.626  0.00  0.00    +0.000 OA
BRANCH   9  11
ATOM     11  C   UNL     1       5.845   4.472  17.495  0.00  0.00    +0.000 A 
ATOM     12  C   UNL     1       7.067   4.923  16.967  0.00  0.00    +0.000 A 
ATOM     13  C   UNL     1       7.333   4.818  15.600  0.00  0.00    +0.000 A 
ATOM     14  C   UNL     1       6.378   4.266  14.751  0.00  0.00    +0.000 A 
ATOM     15 CL   UNL     1       6.712   4.113  13.071  0.00  0.00    +0.000 Cl
ATOM     16  C   UNL     1       5.152   3.838  15.255  0.00  0.00    +0.000 A 
ATOM     17  C   UNL     1       4.876   3.957  16.623  0.00  0.00    +0.000 A 
ENDBRANCH   9  11
ENDBRANCH   5   9
BRANCH   1  18
ATOM     18  C   UNL     1       3.186   6.518  19.705  0.00  0.00    +0.000 C 
BRANCH  18  20
ATOM     19  C   UNL     1       1.779   8.228  18.425  0.00  0.00    +0.000 C 
ATOM     20  C   UNL     1       2.658   6.969  18.315  0.00  0.00    +0.000 C 
ATOM     21  C   UNL     1       1.862   5.854  17.619  0.00  0.00    +0.000 C 
ATOM     22  C   UNL     1       3.878   7.313  17.434  0.00  0.00    +0.000 C 
ENDBRANCH  18  20
ENDBRANCH   1  18
TORSDOF 5
ENDMDL
MODEL 3
REMARK VINA RESULT:      -6.5      0.972      1.797
REMARK  Name = 
REMARK  8 active torsions:
REMARK  status: ('A' for Active; 'I' for Inactive)
REMARK    1  A    between atoms: C_1  and  C_2
REMARK    2  A    between atoms: C_2  and  C_3
REMARK    3  A    between atoms: C_2  and  C_4
REMARK    4  A    between atoms: C_2  and  C_5
REMARK    5  A    between atoms: C_5  and  C_6
REMARK    6  A    between atoms: C_9  and  N_10
REMARK    7  A    between atoms: C_11  and  C_12
REMARK    8  A    between atoms: C_12  and  C_14
REMARK                            x       y       z     vdW  Elec       q    Type
REMARK                         _______ _______ _______ _____ _____    ______ ____
ROOT
ATOM      1  C   UNL     1       2.815   4.274  18.251  0.00  0.00    +0.000 A 
ATOM      2  C   UNL     1       1.767   3.497  18.711  0.00  0.00    +0.000 A 
ATOM      3  S   UNL     1       2.279   2.119  19.554  0.00  0.00    +0.000 S 
ATOM      4  C   UNL     1       3.924   2.560  19.413  0.00  0.00    +0.000 A 
ATOM      5  C   UNL     1       4.103   3.701  18.636  0.00  0.00    +0.000 A 
ENDROOT
BRANCH   4   6
ATOM      6  N   UNL     1       4.844   1.794  20.044  0.00  0.00    +0.000 N 
ATOM      7  H   UNL     1       4.568   1.356  20.920  0.00  0.00    +0.000 HD
ATOM      8  H   UNL     1       5.827   2.045  20.026  0.00  0.00    +0.000 HD
ENDBRANCH   4   6
BRANCH   5   9
ATOM      9  C   UNL     1       5.407   4.299  18.308  0.00  0.00    +0.000 C 
ATOM     10  O   UNL     1       6.156   4.726  19.185  0.00  0.00    +0.000 OA
BRANCH   9  11
ATOM     11  C   UNL     1       5.874   4.427  16.893  0.00  0.00    +0.000 A 
ATOM     12  C   UNL     1       6.982   5.252  16.638  0.00  0.00    +0.000 A 
ATOM     13  C   UNL     1       7.474   5.401  15.338  0.00  0.00    +0.000 A 
ATOM     14  C   UNL     1       6.858   4.728  14.286  0.00  0.00    +0.000 A 
ATOM     15 CL   UNL     1       7.477   4.889  12.690  0.00  0.00    +0.000 Cl
ATOM     16  C   UNL     1       5.743   3.926  14.520  0.00  0.00    +0.000 A 
ATOM     17  C   UNL     1       5.238   3.789  15.818  0.00  0.00    +0.000 A 
ENDBRANCH   9  11
ENDBRANCH   5   9
BRANCH   1  18
ATOM     18  C   UNL     1       2.591   5.557  17.478  0.00  0.00    +0.000 C 
BRANCH  18  20
ATOM     19  C   UNL     1       2.739   6.640  19.790  0.00  0.00    +0.000 C 
ATOM     20  C   UNL     1       2.795   6.878  18.271  0.00  0.00    +0.000 C 
ATOM     21  C   UNL     1       1.754   7.940  17.886  0.00  0.00    +0.000 C 
ATOM     22  C   UNL     1       4.195   7.427  17.924  0.00  0.00    +0.000 C 
ENDBRANCH  18  20
ENDBRANCH   1  18
TORSDOF 5
ENDMDL
MODEL 4
REMARK VINA RESULT:      -6.4      0.921      1.414
REMARK  Name = 
REMARK  8 active torsions:
REMARK  status: ('A' for Active; 'I' for Inactive)
REMARK    1  A    between atoms: C_1  and  C_2
REMARK    2  A    between atoms: C_2  and  C_3
REMARK    3  A    between atoms: C_2  and  C_4
REMARK    4  A    between atoms: C_2  and  C_5
REMARK    5  A    between atoms: C_5  and  C_6
REMARK    6  A    between atoms: C_9  and  N_10
REMARK    7  A    between atoms: C_11  and  C_12
REMARK    8  A    between atoms: C_12  and  C_14
REMARK                            x       y       z     vdW  Elec       q    Type
REMARK                         _______ _______ _______ _____ _____    ______ ____
ROOT
ATOM      1  C   UNL     1       2.831   4.305  18.285  0.00  0.00    +0.000 A 
ATOM      2  C   UNL     1       1.784   3.532  18.752  0.00  0.00    +0.000 A 
ATOM      3  S   UNL     1       2.296   2.161  19.607  0.00  0.00    +0.000 S 
ATOM      4  C   UNL     1       3.941   2.601  19.462  0.00  0.00    +0.000 A 
ATOM      5  C   UNL     1       4.119   3.736  18.676  0.00  0.00    +0.000 A 
ENDROOT
BRANCH   4   6
ATOM      6  N   UNL     1       4.861   1.841  20.100  0.00  0.00    +0.000 N 
ATOM      7  H   UNL     1       5.745   1.677  19.623  0.00  0.00    +0.000 HD
ATOM      8  H   UNL     1       4.575   1.054  20.674  0.00  0.00    +0.000 HD
ENDBRANCH   4   6
BRANCH   5   9
ATOM      9  C   UNL     1       5.424   4.332  18.343  0.00  0.00    +0.000 C 
ATOM     10  O   UNL     1       6.157   4.797  19.214  0.00  0.00    +0.000 OA
BRANCH   9  11
ATOM     11  C   UNL     1       5.908   4.410  16.930  0.00  0.00    +0.000 A 
ATOM     12  C   UNL     1       5.190   3.707  15.949  0.00  0.00    +0.000 A 
ATOM     13  C   UNL     1       5.584   3.753  14.609  0.00  0.00    +0.000 A 
ATOM     14  C   UNL     1       6.700   4.500  14.243  0.00  0.00    +0.000 A 
ATOM     15 CL   UNL     1       7.173   4.579  12.592  0.00  0.00    +0.000 Cl
ATOM     16  C   UNL     1       7.438   5.182  15.209  0.00  0.00    +0.000 A 
ATOM     17  C   UNL     1       7.055   5.124  16.554  0.00  0.00    +0.000 A 
ENDBRANCH   9  11
ENDBRANCH   5   9
BRANCH   1  18
ATOM     18  C   UNL     1       2.607   5.581  17.502  0.00  0.00    +0.000 C 
BRANCH  18  20
ATOM     19  C   UNL     1       2.713   6.685  19.806  0.00  0.00    +0.000 C 
ATOM     20  C   UNL     1       2.799   6.909  18.286  0.00  0.00    +0.000 C 
ATOM     21  C   UNL     1       1.769   7.970  17.871  0.00  0.00    +0.000 C 
ATOM     22  C   UNL     1       4.208   7.451  17.962  0.00  0.00    +0.000 C 
ENDBRANCH  18  20
ENDBRANCH   1  18
TORSDOF 5
ENDMDL
MODEL 5
REMARK VINA RESULT:      -6.4      2.849      4.022
REMARK  Name = 
REMARK  8 active torsions:
REMARK  status: ('A' for Active; 'I' for Inactive)
REMARK    1  A    between atoms: C_1  and  C_2
REMARK    2  A    between atoms: C_2  and  C_3
REMARK    3  A    between atoms: C_2  and  C_4
REMARK    4  A    between atoms: C_2  and  C_5
REMARK    5  A    between atoms: C_5  and  C_6
REMARK    6  A    between atoms: C_9  and  N_10
REMARK    7  A    between atoms: C_11  and  C_12
REMARK    8  A    between atoms: C_12  and  C_14
REMARK                            x       y       z     vdW  Elec       q    Type
REMARK                         _______ _______ _______ _____ _____    ______ ____
ROOT
ATOM      1  C   UNL     1       5.380   4.940  17.898  0.00  0.00    +0.000 A 
ATOM      2  C   UNL     1       6.058   4.923  19.103  0.00  0.00    +0.000 A 
ATOM      3  S   UNL     1       7.465   5.867  19.089  0.00  0.00    +0.000 S 
ATOM      4  C   UNL     1       7.170   6.407  17.494  0.00  0.00    +0.000 A 
ATOM      5  C   UNL     1       6.057   5.795  16.925  0.00  0.00    +0.000 A 
ENDROOT
BRANCH   4   6
ATOM      6  N   UNL     1       8.005   7.335  16.973  0.00  0.00    +0.000 N 
ATOM      7  H   UNL     1       8.963   7.049  16.783  0.00  0.00    +0.000 HD
ATOM      8  H   UNL     1       7.936   8.309  17.250  0.00  0.00    +0.000 HD
ENDBRANCH   4   6
BRANCH   5   9
ATOM      9  C   UNL     1       5.578   6.031  15.553  0.00  0.00    +0.000 C 
ATOM     10  O   UNL     1       4.857   6.990  15.282  0.00  0.00    +0.000 OA
BRANCH   9  11
ATOM     11  C   UNL     1       5.934   5.108  14.432  0.00  0.00    +0.000 A 
ATOM     12  C   UNL     1       7.201   5.250  13.841  0.00  0.00    +0.000 A 
ATOM     13  C   UNL     1       7.598   4.407  12.799  0.00  0.00    +0.000 A 
ATOM     14  C   UNL     1       6.730   3.421  12.340  0.00  0.00    +0.000 A 
ATOM     15 CL   UNL     1       7.225   2.367  11.075  0.00  0.00    +0.000 Cl
ATOM     16  C   UNL     1       5.461   3.285  12.899  0.00  0.00    +0.000 A 
ATOM     17  C   UNL     1       5.054   4.138  13.931  0.00  0.00    +0.000 A 
ENDBRANCH   9  11
ENDBRANCH   5   9
BRANCH   1  18
ATOM     18  C   UNL     1       4.092   4.173  17.685  0.00  0.00    +0.000 C 
BRANCH  18  20
ATOM     19  C   UNL     1       2.770   6.312  18.151  0.00  0.00    +0.000 C 
ATOM     20  C   UNL     1       2.817   4.785  18.330  0.00  0.00    +0.000 C 
ATOM     21  C   UNL     1       2.718   4.446  19.826  0.00  0.00    +0.000 C 
ATOM     22  C   UNL     1       1.588   4.181  17.617  0.00  0.00    +0.000 C 
ENDBRANCH  18  20
ENDBRANCH   1  18
TORSDOF 5
ENDMDL
MODEL 6
REMARK VINA RESULT:      -6.3      3.364      5.785
REMARK  Name = 
REMARK  8 active torsions:
REMARK  status: ('A' for Active; 'I' for Inactive)
REMARK    1  A    between atoms: C_1  and  C_2
REMARK    2  A    between atoms: C_2  and  C_3
REMARK    3  A    between atoms: C_2  and  C_4
REMARK    4  A    between atoms: C_2  and  C_5
REMARK    5  A    between atoms: C_5  and  C_6
REMARK    6  A    between atoms: C_9  and  N_10
REMARK    7  A    between atoms: C_11  and  C_12
REMARK    8  A    between atoms: C_12  and  C_14
REMARK                            x       y       z     vdW  Elec       q    Type
REMARK                         _______ _______ _______ _____ _____    ______ ____
ROOT
ATOM      1  C   UNL     1       4.705   4.681  18.958  0.00  0.00    +0.000 A 
ATOM      2  C   UNL     1       4.542   3.343  19.269  0.00  0.00    +0.000 A 
ATOM      3  S   UNL     1       3.002   2.752  18.881  0.00  0.00    +0.000 S 
ATOM      4  C   UNL     1       2.525   4.245  18.199  0.00  0.00    +0.000 A 
ATOM      5  C   UNL     1       3.495   5.232  18.353  0.00  0.00    +0.000 A 
ENDROOT
BRANCH   4   6
ATOM      6  N   UNL     1       1.313   4.313  17.602  0.00  0.00    +0.000 N 
ATOM      7  H   UNL     1       0.597   3.664  17.920  0.00  0.00    +0.000 HD
ATOM      8  H   UNL     1       1.234   4.527  16.613  0.00  0.00    +0.000 HD
ENDBRANCH   4   6
BRANCH   5   9
ATOM      9  C   UNL     1       3.355   6.625  17.900  0.00  0.00    +0.000 C 
ATOM     10  O   UNL     1       3.969   7.046  16.921  0.00  0.00    +0.000 OA
BRANCH   9  11
ATOM     11  C   UNL     1       2.471   7.595  18.618  0.00  0.00    +0.000 A 
ATOM     12  C   UNL     1       1.996   8.706  17.902  0.00  0.00    +0.000 A 
ATOM     13  C   UNL     1       1.154   9.639  18.513  0.00  0.00    +0.000 A 
ATOM     14  C   UNL     1       0.787   9.469  19.846  0.00  0.00    +0.000 A 
ATOM     15 CL   UNL     1      -0.268  10.602  20.594  0.00  0.00    +0.000 Cl
ATOM     16  C   UNL     1       1.272   8.386  20.576  0.00  0.00    +0.000 A 
ATOM     17  C   UNL     1       2.128   7.459  19.970  0.00  0.00    +0.000 A 
ENDBRANCH   9  11
ENDBRANCH   5   9
BRANCH   1  18
ATOM     18  C   UNL     1       6.005   5.416  19.211  0.00  0.00    +0.000 C 
BRANCH  18  20
ATOM     19  C   UNL     1       7.395   6.874  17.635  0.00  0.00    +0.000 C 
ATOM     20  C   UNL     1       7.019   5.436  18.034  0.00  0.00    +0.000 C 
ATOM     21  C   UNL     1       6.477   4.694  16.803  0.00  0.00    +0.000 C 
ATOM     22  C   UNL     1       8.303   4.719  18.503  0.00  0.00    +0.000 C 
ENDBRANCH  18  20
ENDBRANCH   1  18
TORSDOF 5
ENDMDL
MODEL 7
REMARK VINA RESULT:      -6.3      0.926      1.345
REMARK  Name = 
REMARK  8 active torsions:
REMARK  status: ('A' for Active; 'I' for Inactive)
REMARK    1  A    between atoms: C_1  and  C_2
REMARK    2  A    between atoms: C_2  and  C_3
REMARK    3  A    between atoms: C_2  and  C_4
REMARK    4  A    between atoms: C_2  and  C_5
REMARK    5  A    between atoms: C_5  and  C_6
REMARK    6  A    between atoms: C_9  and  N_10
REMARK    7  A    between atoms: C_11  and  C_12
REMARK    8  A    between atoms: C_12  and  C_14
REMARK                            x       y       z     vdW  Elec       q    Type
REMARK                         _______ _______ _______ _____ _____    ______ ____
ROOT
ATOM      1  C   UNL     1       2.794   4.536  19.379  0.00  0.00    +0.000 A 
ATOM      2  C   UNL     1       1.613   3.834  19.532  0.00  0.00    +0.000 A 
ATOM      3  S   UNL     1       1.757   2.192  19.139  0.00  0.00    +0.000 S 
ATOM      4  C   UNL     1       3.432   2.341  18.836  0.00  0.00    +0.000 A 
ATOM      5  C   UNL     1       3.873   3.657  18.931  0.00  0.00    +0.000 A 
ENDROOT
BRANCH   4   6
ATOM      6  N   UNL     1       4.130   1.217  18.552  0.00  0.00    +0.000 N 
ATOM      7  H   UNL     1       5.112   1.195  18.818  0.00  0.00    +0.000 HD
ATOM      8  H   UNL     1       3.943   0.691  17.704  0.00  0.00    +0.000 HD
ENDBRANCH   4   6
BRANCH   5   9
ATOM      9  C   UNL     1       5.256   4.101  18.689  0.00  0.00    +0.000 C 
ATOM     10  O   UNL     1       6.026   4.336  19.618  0.00  0.00    +0.000 OA
BRANCH   9  11
ATOM     11  C   UNL     1       5.781   4.298  17.302  0.00  0.00    +0.000 A 
ATOM     12  C   UNL     1       4.887   4.131  16.231  0.00  0.00    +0.000 A 
ATOM     13  C   UNL     1       5.313   4.317  14.914  0.00  0.00    +0.000 A 
ATOM     14  C   UNL     1       6.637   4.667  14.659  0.00  0.00    +0.000 A 
ATOM     15 CL   UNL     1       7.158   4.920  13.040  0.00  0.00    +0.000 Cl
ATOM     16  C   UNL     1       7.541   4.811  15.709  0.00  0.00    +0.000 A 
ATOM     17  C   UNL     1       7.120   4.609  17.029  0.00  0.00    +0.000 A 
ENDBRANCH   9  11
ENDBRANCH   5   9
BRANCH   1  18
ATOM     18  C   UNL     1       2.900   6.016  19.682  0.00  0.00    +0.000 C 
BRANCH  18  20
ATOM     19  C   UNL     1       1.946   8.298  19.032  0.00  0.00    +0.000 C 
ATOM     20  C   UNL     1       2.546   6.979  18.515  0.00  0.00    +0.000 C 
ATOM     21  C   UNL     1       1.571   6.333  17.519  0.00  0.00    +0.000 C 
ATOM     22  C   UNL     1       3.853   7.311  17.762  0.00  0.00    +0.000 C 
ENDBRANCH  18  20
ENDBRANCH   1  18
TORSDOF 5
ENDMDL
MODEL 8
REMARK VINA RESULT:      -6.3      3.363      5.705
REMARK  Name = 
REMARK  8 active torsions:
REMARK  status: ('A' for Active; 'I' for Inactive)
REMARK    1  A    between atoms: C_1  and  C_2
REMARK    2  A    between atoms: C_2  and  C_3
REMARK    3  A    between atoms: C_2  and  C_4
REMARK    4  A    between atoms: C_2  and  C_5
REMARK    5  A    between atoms: C_5  and  C_6
REMARK    6  A    between atoms: C_9  and  N_10
REMARK    7  A    between atoms: C_11  and  C_12
REMARK    8  A    between atoms: C_12  and  C_14
REMARK                            x       y       z     vdW  Elec       q    Type
REMARK                         _______ _______ _______ _____ _____    ______ ____
ROOT
ATOM      1  C   UNL     1       4.681   4.665  18.985  0.00  0.00    +0.000 A 
ATOM      2  C   UNL     1       4.499   3.336  19.319  0.00  0.00    +0.000 A 
ATOM      3  S   UNL     1       2.958   2.754  18.923  0.00  0.00    +0.000 S 
ATOM      4  C   UNL     1       2.506   4.238  18.206  0.00  0.00    +0.000 A 
ATOM      5  C   UNL     1       3.484   5.218  18.354  0.00  0.00    +0.000 A 
ENDROOT
BRANCH   4   6
ATOM      6  N   UNL     1       1.303   4.308  17.592  0.00  0.00    +0.000 N 
ATOM      7  H   UNL     1       0.970   5.230  17.317  0.00  0.00    +0.000 HD
ATOM      8  H   UNL     1       0.548   3.684  17.859  0.00  0.00    +0.000 HD
ENDBRANCH   4   6
BRANCH   5   9
ATOM      9  C   UNL     1       3.366   6.604  17.873  0.00  0.00    +0.000 C 
ATOM     10  O   UNL     1       3.996   6.999  16.894  0.00  0.00    +0.000 OA
BRANCH   9  11
ATOM     11  C   UNL     1       2.484   7.596  18.562  0.00  0.00    +0.000 A 
ATOM     12  C   UNL     1       2.174   7.372  19.914  0.00  0.00    +0.000 A 
ATOM     13  C   UNL     1       1.367   8.271  20.617  0.00  0.00    +0.000 A 
ATOM     14  C   UNL     1       0.864   9.398  19.971  0.00  0.00    +0.000 A 
ATOM     15 CL   UNL     1      -0.108  10.519  20.840  0.00  0.00    +0.000 Cl
ATOM     16  C   UNL     1       1.143   9.620  18.624  0.00  0.00    +0.000 A 
ATOM     17  C   UNL     1       1.936   8.712  17.913  0.00  0.00    +0.000 A 
ENDBRANCH   9  11
ENDBRANCH   5   9
BRANCH   1  18
ATOM     18  C   UNL     1       5.985   5.391  19.241  0.00  0.00    +0.000 C 
BRANCH  18  20
ATOM     19  C   UNL     1       6.466   4.647  16.842  0.00  0.00    +0.000 C 
ATOM     20  C   UNL     1       7.029   5.349  18.090  0.00  0.00    +0.000 C 
ATOM     21  C   UNL     1       8.326   4.650  18.523  0.00  0.00    +0.000 C 
ATOM     22  C   UNL     1       7.370   6.805  17.706  0.00  0.00    +0.000 C 
ENDBRANCH  18  20
ENDBRANCH   1  18
TORSDOF 5
ENDMDL
MODEL 9
REMARK VINA RESULT:      -6.3      2.868      3.838
REMARK  Name = 
REMARK  8 active torsions:
REMARK  status: ('A' for Active; 'I' for Inactive)
REMARK    1  A    between atoms: C_1  and  C_2
REMARK    2  A    between atoms: C_2  and  C_3
REMARK    3  A    between atoms: C_2  and  C_4
REMARK    4  A    between atoms: C_2  and  C_5
REMARK    5  A    between atoms: C_5  and  C_6
REMARK    6  A    between atoms: C_9  and  N_10
REMARK    7  A    between atoms: C_11  and  C_12
REMARK    8  A    between atoms: C_12  and  C_14
REMARK                            x       y       z     vdW  Elec       q    Type
REMARK                         _______ _______ _______ _____ _____    ______ ____
ROOT
ATOM      1  C   UNL     1       5.521   4.955  17.930  0.00  0.00    +0.000 A 
ATOM      2  C   UNL     1       6.213   4.966  19.128  0.00  0.00    +0.000 A 
ATOM      3  S   UNL     1       7.589   5.954  19.094  0.00  0.00    +0.000 S 
ATOM      4  C   UNL     1       7.260   6.476  17.500  0.00  0.00    +0.000 A 
ATOM      5  C   UNL     1       6.160   5.826  16.946  0.00  0.00    +0.000 A 
ENDROOT
BRANCH   4   6
ATOM      6  N   UNL     1       8.059   7.426  16.964  0.00  0.00    +0.000 N 
ATOM      7  H   UNL     1       8.645   7.156  16.177  0.00  0.00    +0.000 HD
ATOM      8  H   UNL     1       8.495   8.129  17.553  0.00  0.00    +0.000 HD
ENDBRANCH   4   6
BRANCH   5   9
ATOM      9  C   UNL     1       5.659   6.039  15.578  0.00  0.00    +0.000 C 
ATOM     10  O   UNL     1       4.895   6.966  15.313  0.00  0.00    +0.000 OA
BRANCH   9  11
ATOM     11  C   UNL     1       6.044   5.131  14.455  0.00  0.00    +0.000 A 
ATOM     12  C   UNL     1       5.120   4.152  14.055  0.00  0.00    +0.000 A 
ATOM     13  C   UNL     1       5.416   3.282  13.001  0.00  0.00    +0.000 A 
ATOM     14  C   UNL     1       6.639   3.386  12.344  0.00  0.00    +0.000 A 
ATOM     15 CL   UNL     1       6.996   2.334  11.031  0.00  0.00    +0.000 Cl
ATOM     16  C   UNL     1       7.576   4.335  12.746  0.00  0.00    +0.000 A 
ATOM     17  C   UNL     1       7.289   5.196  13.813  0.00  0.00    +0.000 A 
ENDBRANCH   9  11
ENDBRANCH   5   9
BRANCH   1  18
ATOM     18  C   UNL     1       4.255   4.147  17.736  0.00  0.00    +0.000 C 
BRANCH  18  20
ATOM     19  C   UNL     1       1.700   4.188  17.632  0.00  0.00    +0.000 C 
ATOM     20  C   UNL     1       2.952   4.768  18.312  0.00  0.00    +0.000 C 
ATOM     21  C   UNL     1       2.941   6.298  18.173  0.00  0.00    +0.000 C 
ATOM     22  C   UNL     1       2.886   4.420  19.815  0.00  0.00    +0.000 C 
ENDBRANCH  18  20
ENDBRANCH   1  18
TORSDOF 5
ENDMDL
