MODEL 1
REMARK VINA RESULT:      -8.2      0.000      0.000
REMARK  Name = 
REMARK  8 active torsions:
REMARK  status: ('A' for Active; 'I' for Inactive)
REMARK    1  A    between atoms: C_1  and  C_2
REMARK    2  A    between atoms: C_2  and  O_3
REMARK    3  A    between atoms: C_2  and  C_4
REMARK    4  A    between atoms: C_2  and  C_13
REMARK    5  A    between atoms: C_4  and  S_5
REMARK    6  A    between atoms: S_5  and  C_6
REMARK    7  A    between atoms: C_17  and  C_18
REMARK    8  A    between atoms: C_20  and  C_21
REMARK                            x       y       z     vdW  Elec       q    Type
REMARK                         _______ _______ _______ _____ _____    ______ ____
ROOT
ATOM      1  C   UNL     1       4.127   6.609  17.745  0.00  0.00    +0.000 A 
ATOM      2  C   UNL     1       3.448   7.652  17.148  0.00  0.00    +0.000 A 
ATOM      3  C   UNL     1       2.513   8.157  18.084  0.00  0.00    +0.000 A 
ATOM      4  C   UNL     1       1.584   9.205  18.041  0.00  0.00    +0.000 A 
ATOM      5  C   UNL     1       0.787   9.483  19.164  0.00  0.00    +0.000 A 
ATOM      6  C   UNL     1       0.909   8.715  20.335  0.00  0.00    +0.000 A 
ATOM      7  C   UNL     1       1.848   7.654  20.383  0.00  0.00    +0.000 A 
ATOM      8  C   UNL     1       2.631   7.401  19.248  0.00  0.00    +0.000 A 
ATOM      9  N   UNL     1       3.607   6.458  19.013  0.00  0.00    +0.000 N 
ATOM     10  H   UNL     1       3.940   5.763  19.670  0.00  0.00    +0.000 HD
ENDROOT
BRANCH   6  11
ATOM     11  C   UNL     1       0.073   8.968  21.570  0.00  0.00    +0.000 C 
ATOM     12  F   UNL     1      -0.517  10.189  21.634  0.00  0.00    +0.000 F 
ATOM     13  F   UNL     1      -0.942   8.066  21.690  0.00  0.00    +0.000 F 
ATOM     14  F   UNL     1       0.803   8.855  22.715  0.00  0.00    +0.000 F 
ENDBRANCH   6  11
BRANCH   1  16
ATOM     15  C   UNL     1       6.584   6.517  17.431  0.00  0.00    +0.000 C 
ATOM     16  C   UNL     1       5.261   5.769  17.230  0.00  0.00    +0.000 C 
BRANCH  16  17
ATOM     17  O   UNL     1       5.066   5.640  15.816  0.00  0.00    +0.000 OA
ATOM     18  H   UNL     1       5.907   5.338  15.434  0.00  0.00    +0.000 HD
ENDBRANCH  16  17
BRANCH  16  19
ATOM     19  C   UNL     1       5.303   4.373  17.918  0.00  0.00    +0.000 C 
BRANCH  19  20
ATOM     20  S   UNL     1       3.916   3.300  17.353  0.00  0.00    +0.000 S 
BRANCH  20  21
ATOM     21  C   UNL     1       2.874   3.079  18.780  0.00  0.00    +0.000 A 
ATOM     22  C   UNL     1       1.484   3.235  18.813  0.00  0.00    +0.000 A 
ATOM     23  C   UNL     1       0.787   3.080  20.019  0.00  0.00    +0.000 A 
ATOM     24  C   UNL     1       1.477   2.763  21.182  0.00  0.00    +0.000 A 
ATOM     25  F   UNL     1       0.808   2.630  22.335  0.00  0.00    +0.000 F 
ATOM     26  C   UNL     1       2.852   2.587  21.169  0.00  0.00    +0.000 A 
ATOM     27  C   UNL     1       3.545   2.743  19.968  0.00  0.00    +0.000 A 
ENDBRANCH  20  21
ENDBRANCH  19  20
ENDBRANCH  16  19
ENDBRANCH   1  16
BRANCH   5  28
ATOM     28  C   UNL     1      -0.139  10.574  19.035  0.00  0.00    +0.000 C 
ATOM     29  N   UNL     1      -0.854  11.481  18.958  0.00  0.00    +0.000 NA
ENDBRANCH   5  28
TORSDOF 7
ENDMDL
MODEL 2
REMARK VINA RESULT:      -8.2      1.566      2.223
REMARK  Name = 
REMARK  8 active torsions:
REMARK  status: ('A' for Active; 'I' for Inactive)
REMARK    1  A    between atoms: C_1  and  C_2
REMARK    2  A    between atoms: C_2  and  O_3
REMARK    3  A    between atoms: C_2  and  C_4
REMARK    4  A    between atoms: C_2  and  C_13
REMARK    5  A    between atoms: C_4  and  S_5
REMARK    6  A    between atoms: S_5  and  C_6
REMARK    7  A    between atoms: C_17  and  C_18
REMARK    8  A    between atoms: C_20  and  C_21
REMARK                            x       y       z     vdW  Elec       q    Type
REMARK                         _______ _______ _______ _____ _____    ______ ____
ROOT
ATOM      1  C   UNL     1       3.590   6.477  18.130  0.00  0.00    +0.000 A 
ATOM      2  C   UNL     1       3.103   6.314  19.411  0.00  0.00    +0.000 A 
ATOM      3  C   UNL     1       2.239   7.400  19.692  0.00  0.00    +0.000 A 
ATOM      4  C   UNL     1       1.463   7.744  20.807  0.00  0.00    +0.000 A 
ATOM      5  C   UNL     1       0.675   8.907  20.781  0.00  0.00    +0.000 A 
ATOM      6  C   UNL     1       0.660   9.736  19.645  0.00  0.00    +0.000 A 
ATOM      7  C   UNL     1       1.445   9.392  18.516  0.00  0.00    +0.000 A 
ATOM      8  C   UNL     1       2.219   8.224  18.570  0.00  0.00    +0.000 A 
ATOM      9  N   UNL     1       3.058   7.651  17.640  0.00  0.00    +0.000 N 
ATOM     10  H   UNL     1       3.249   7.999  16.708  0.00  0.00    +0.000 HD
ENDROOT
BRANCH   6  11
ATOM     11  C   UNL     1      -0.165  11.001  19.566  0.00  0.00    +0.000 C 
ATOM     12  F   UNL     1      -0.003  11.867  20.599  0.00  0.00    +0.000 F 
ATOM     13  F   UNL     1       0.112  11.719  18.442  0.00  0.00    +0.000 F 
ATOM     14  F   UNL     1      -1.502  10.739  19.517  0.00  0.00    +0.000 F 
ENDBRANCH   6  11
BRANCH   1  16
ATOM     15  C   UNL     1       5.663   5.121  18.172  0.00  0.00    +0.000 C 
ATOM     16  C   UNL     1       4.485   5.590  17.312  0.00  0.00    +0.000 C 
BRANCH  16  17
ATOM     17  O   UNL     1       5.030   6.408  16.268  0.00  0.00    +0.000 OA
ATOM     18  H   UNL     1       5.238   5.822  15.521  0.00  0.00    +0.000 HD
ENDBRANCH  16  17
BRANCH  16  19
ATOM     19  C   UNL     1       3.709   4.375  16.723  0.00  0.00    +0.000 C 
BRANCH  19  20
ATOM     20  S   UNL     1       4.117   2.817  17.617  0.00  0.00    +0.000 S 
BRANCH  20  21
ATOM     21  C   UNL     1       2.997   2.755  19.000  0.00  0.00    +0.000 A 
ATOM     22  C   UNL     1       1.608   2.912  18.939  0.00  0.00    +0.000 A 
ATOM     23  C   UNL     1       0.846   2.891  20.114  0.00  0.00    +0.000 A 
ATOM     24  C   UNL     1       1.469   2.707  21.342  0.00  0.00    +0.000 A 
ATOM     25  F   UNL     1       0.737   2.703  22.464  0.00  0.00    +0.000 F 
ATOM     26  C   UNL     1       2.842   2.532  21.424  0.00  0.00    +0.000 A 
ATOM     27  C   UNL     1       3.600   2.555  20.254  0.00  0.00    +0.000 A 
ENDBRANCH  20  21
ENDBRANCH  19  20
ENDBRANCH  16  19
ENDBRANCH   1  16
BRANCH   5  28
ATOM     28  C   UNL     1      -0.091   9.185  21.964  0.00  0.00    +0.000 C 
ATOM     29  N   UNL     1      -0.666   9.418  22.942  0.00  0.00    +0.000 NA
ENDBRANCH   5  28
TORSDOF 7
ENDMDL
MODEL 3
REMARK VINA RESULT:      -8.1      0.916      1.017
REMARK  Name = 
REMARK  8 active torsions:
REMARK  status: ('A' for Active; 'I' for Inactive)
REMARK    1  A    between atoms: C_1  and  C_2
REMARK    2  A    between atoms: C_2  and  O_3
REMARK    3  A    between atoms: C_2  and  C_4
REMARK    4  A    between atoms: C_2  and  C_13
REMARK    5  A    between atoms: C_4  and  S_5
REMARK    6  A    between atoms: S_5  and  C_6
REMARK    7  A    between atoms: C_17  and  C_18
REMARK    8  A    between atoms: C_20  and  C_21
REMARK                            x       y       z     vdW  Elec       q    Type
REMARK                         _______ _______ _______ _____ _____    ______ ____
ROOT
ATOM      1  C   UNL     1       3.353   6.864  18.259  0.00  0.00    +0.000 A 
ATOM      2  C   UNL     1       2.631   7.911  17.723  0.00  0.00    +0.000 A 
ATOM      3  C   UNL     1       1.850   8.479  18.758  0.00  0.00    +0.000 A 
ATOM      4  C   UNL     1       0.956   9.558  18.803  0.00  0.00    +0.000 A 
ATOM      5  C   UNL     1       0.331   9.899  20.014  0.00  0.00    +0.000 A 
ATOM      6  C   UNL     1       0.589   9.165  21.185  0.00  0.00    +0.000 A 
ATOM      7  C   UNL     1       1.492   8.073  21.143  0.00  0.00    +0.000 A 
ATOM      8  C   UNL     1       2.103   7.757  19.921  0.00  0.00    +0.000 A 
ATOM      9  N   UNL     1       3.008   6.773  19.590  0.00  0.00    +0.000 N 
ATOM     10  H   UNL     1       3.407   6.087  20.220  0.00  0.00    +0.000 HD
ENDROOT
BRANCH   6  11
ATOM     11  C   UNL     1      -0.061   9.486  22.512  0.00  0.00    +0.000 C 
ATOM     12  F   UNL     1      -0.464  10.774  22.666  0.00  0.00    +0.000 F 
ATOM     13  F   UNL     1      -1.172   8.728  22.731  0.00  0.00    +0.000 F 
ATOM     14  F   UNL     1       0.769   9.236  23.563  0.00  0.00    +0.000 F 
ENDBRANCH   6  11
BRANCH   1  16
ATOM     15  C   UNL     1       5.382   5.506  18.687  0.00  0.00    +0.000 C 
ATOM     16  C   UNL     1       4.379   5.969  17.625  0.00  0.00    +0.000 C 
BRANCH  16  17
ATOM     17  O   UNL     1       5.106   6.776  16.689  0.00  0.00    +0.000 OA
ATOM     18  H   UNL     1       6.019   6.445  16.670  0.00  0.00    +0.000 HD
ENDBRANCH  16  17
BRANCH  16  19
ATOM     19  C   UNL     1       3.720   4.748  16.916  0.00  0.00    +0.000 C 
BRANCH  19  20
ATOM     20  S   UNL     1       4.171   3.165  17.741  0.00  0.00    +0.000 S 
BRANCH  20  21
ATOM     21  C   UNL     1       3.029   2.991  19.096  0.00  0.00    +0.000 A 
ATOM     22  C   UNL     1       1.657   3.264  19.053  0.00  0.00    +0.000 A 
ATOM     23  C   UNL     1       0.877   3.133  20.210  0.00  0.00    +0.000 A 
ATOM     24  C   UNL     1       1.465   2.725  21.400  0.00  0.00    +0.000 A 
ATOM     25  F   UNL     1       0.718   2.617  22.506  0.00  0.00    +0.000 F 
ATOM     26  C   UNL     1       2.820   2.434  21.462  0.00  0.00    +0.000 A 
ATOM     27  C   UNL     1       3.596   2.566  20.310  0.00  0.00    +0.000 A 
ENDBRANCH  20  21
ENDBRANCH  19  20
ENDBRANCH  16  19
ENDBRANCH   1  16
BRANCH   5  28
ATOM     28  C   UNL     1      -0.570  11.018  19.973  0.00  0.00    +0.000 C 
ATOM     29  N   UNL     1      -1.262  11.945  19.914  0.00  0.00    +0.000 NA
ENDBRANCH   5  28
TORSDOF 7
ENDMDL
MODEL 4
REMARK VINA RESULT:      -8.0      1.433      2.036
REMARK  Name = 
REMARK  8 active torsions:
REMARK  status: ('A' for Active; 'I' for Inactive)
REMARK    1  A    between atoms: C_1  and  C_2
REMARK    2  A    between atoms: C_2  and  O_3
REMARK    3  A    between atoms: C_2  and  C_4
REMARK    4  A    between atoms: C_2  and  C_13
REMARK    5  A    between atoms: C_4  and  S_5
REMARK    6  A    between atoms: S_5  and  C_6
REMARK    7  A    between atoms: C_17  and  C_18
REMARK    8  A    between atoms: C_20  and  C_21
REMARK                            x       y       z     vdW  Elec       q    Type
REMARK                         _______ _______ _______ _____ _____    ______ ____
ROOT
ATOM      1  C   UNL     1       4.172   6.492  17.949  0.00  0.00    +0.000 A 
ATOM      2  C   UNL     1       3.686   6.324  19.230  0.00  0.00    +0.000 A 
ATOM      3  C   UNL     1       2.672   7.289  19.442  0.00  0.00    +0.000 A 
ATOM      4  C   UNL     1       1.832   7.573  20.528  0.00  0.00    +0.000 A 
ATOM      5  C   UNL     1       0.887   8.608  20.430  0.00  0.00    +0.000 A 
ATOM      6  C   UNL     1       0.778   9.369  19.253  0.00  0.00    +0.000 A 
ATOM      7  C   UNL     1       1.627   9.085  18.154  0.00  0.00    +0.000 A 
ATOM      8  C   UNL     1       2.558   8.044  18.279  0.00  0.00    +0.000 A 
ATOM      9  N   UNL     1       3.489   7.551  17.391  0.00  0.00    +0.000 N 
ATOM     10  H   UNL     1       3.647   7.877  16.445  0.00  0.00    +0.000 HD
ENDROOT
BRANCH   6  11
ATOM     11  C   UNL     1      -0.217  10.497  19.097  0.00  0.00    +0.000 C 
ATOM     12  F   UNL     1      -0.149  11.175  17.923  0.00  0.00    +0.000 F 
ATOM     13  F   UNL     1      -1.504  10.057  19.189  0.00  0.00    +0.000 F 
ATOM     14  F   UNL     1      -0.079  11.440  20.071  0.00  0.00    +0.000 F 
ENDBRANCH   6  11
BRANCH   1  16
ATOM     15  C   UNL     1       6.594   6.277  17.469  0.00  0.00    +0.000 C 
ATOM     16  C   UNL     1       5.201   5.702  17.191  0.00  0.00    +0.000 C 
BRANCH  16  17
ATOM     17  O   UNL     1       4.934   5.913  15.798  0.00  0.00    +0.000 OA
ATOM     18  H   UNL     1       5.792   6.001  15.350  0.00  0.00    +0.000 HD
ENDBRANCH  16  17
BRANCH  16  19
ATOM     19  C   UNL     1       5.143   4.188  17.548  0.00  0.00    +0.000 C 
BRANCH  19  20
ATOM     20  S   UNL     1       3.535   3.438  17.052  0.00  0.00    +0.000 S 
BRANCH  20  21
ATOM     21  C   UNL     1       2.652   3.158  18.573  0.00  0.00    +0.000 A 
ATOM     22  C   UNL     1       1.274   3.311  18.762  0.00  0.00    +0.000 A 
ATOM     23  C   UNL     1       0.710   3.106  20.028  0.00  0.00    +0.000 A 
ATOM     24  C   UNL     1       1.520   2.744  21.097  0.00  0.00    +0.000 A 
ATOM     25  F   UNL     1       0.978   2.564  22.309  0.00  0.00    +0.000 F 
ATOM     26  C   UNL     1       2.886   2.571  20.929  0.00  0.00    +0.000 A 
ATOM     27  C   UNL     1       3.446   2.777  19.668  0.00  0.00    +0.000 A 
ENDBRANCH  20  21
ENDBRANCH  19  20
ENDBRANCH  16  19
ENDBRANCH   1  16
BRANCH   5  28
ATOM     28  C   UNL     1       0.065   8.832  21.588  0.00  0.00    +0.000 C 
ATOM     29  N   UNL     1      -0.625   8.976  22.506  0.00  0.00    +0.000 NA
ENDBRANCH   5  28
TORSDOF 7
ENDMDL
MODEL 5
REMARK VINA RESULT:      -7.9      2.747      4.653
REMARK  Name = 
REMARK  8 active torsions:
REMARK  status: ('A' for Active; 'I' for Inactive)
REMARK    1  A    between atoms: C_1  and  C_2
REMARK    2  A    between atoms: C_2  and  O_3
REMARK    3  A    between atoms: C_2  and  C_4
REMARK    4  A    between atoms: C_2  and  C_13
REMARK    5  A    between atoms: C_4  and  S_5
REMARK    6  A    between atoms: S_5  and  C_6
REMARK    7  A    between atoms: C_17  and  C_18
REMARK    8  A    between atoms: C_20  and  C_21
REMARK                            x       y       z     vdW  Elec       q    Type
REMARK                         _______ _______ _______ _____ _____    ______ ____
ROOT
ATOM      1  C   UNL     1       3.022   5.065  18.587  0.00  0.00    +0.000 A 
ATOM      2  C   UNL     1       2.680   5.225  19.915  0.00  0.00    +0.000 A 
ATOM      3  C   UNL     1       2.193   6.543  20.084  0.00  0.00    +0.000 A 
ATOM      4  C   UNL     1       1.693   7.246  21.189  0.00  0.00    +0.000 A 
ATOM      5  C   UNL     1       1.258   8.574  21.037  0.00  0.00    +0.000 A 
ATOM      6  C   UNL     1       1.324   9.209  19.785  0.00  0.00    +0.000 A 
ATOM      7  C   UNL     1       1.830   8.502  18.665  0.00  0.00    +0.000 A 
ATOM      8  C   UNL     1       2.254   7.178  18.846  0.00  0.00    +0.000 A 
ATOM      9  N   UNL     1       2.774   6.265  17.956  0.00  0.00    +0.000 N 
ATOM     10  H   UNL     1       2.931   6.413  16.967  0.00  0.00    +0.000 HD
ENDROOT
BRANCH   6  11
ATOM     11  C   UNL     1       0.875  10.637  19.567  0.00  0.00    +0.000 C 
ATOM     12  F   UNL     1       1.463  11.560  20.371  0.00  0.00    +0.000 F 
ATOM     13  F   UNL     1       1.116  11.057  18.294  0.00  0.00    +0.000 F 
ATOM     14  F   UNL     1      -0.465  10.788  19.759  0.00  0.00    +0.000 F 
ENDBRANCH   6  11
BRANCH   1  16
ATOM     15  C   UNL     1       2.388   2.837  17.707  0.00  0.00    +0.000 C 
ATOM     16  C   UNL     1       3.525   3.853  17.855  0.00  0.00    +0.000 C 
BRANCH  16  17
ATOM     17  O   UNL     1       4.517   3.249  18.695  0.00  0.00    +0.000 OA
ATOM     18  H   UNL     1       4.051   2.675  19.326  0.00  0.00    +0.000 HD
ENDBRANCH  16  17
BRANCH  16  19
ATOM     19  C   UNL     1       4.121   4.226  16.465  0.00  0.00    +0.000 C 
BRANCH  19  20
ATOM     20  S   UNL     1       5.929   3.885  16.394  0.00  0.00    +0.000 S 
BRANCH  20  21
ATOM     21  C   UNL     1       6.710   5.307  17.131  0.00  0.00    +0.000 A 
ATOM     22  C   UNL     1       6.691   6.610  16.621  0.00  0.00    +0.000 A 
ATOM     23  C   UNL     1       7.391   7.631  17.276  0.00  0.00    +0.000 A 
ATOM     24  C   UNL     1       8.099   7.352  18.438  0.00  0.00    +0.000 A 
ATOM     25  F   UNL     1       8.780   8.329  19.052  0.00  0.00    +0.000 F 
ATOM     26  C   UNL     1       8.118   6.071  18.969  0.00  0.00    +0.000 A 
ATOM     27  C   UNL     1       7.422   5.054  18.315  0.00  0.00    +0.000 A 
ENDBRANCH  20  21
ENDBRANCH  19  20
ENDBRANCH  16  19
ENDBRANCH   1  16
BRANCH   5  28
ATOM     28  C   UNL     1       0.759   9.220  22.219  0.00  0.00    +0.000 C 
ATOM     29  N   UNL     1       0.313   9.742  23.152  0.00  0.00    +0.000 NA
ENDBRANCH   5  28
TORSDOF 7
ENDMDL
MODEL 6
REMARK VINA RESULT:      -7.9      2.938      4.720
REMARK  Name = 
REMARK  8 active torsions:
REMARK  status: ('A' for Active; 'I' for Inactive)
REMARK    1  A    between atoms: C_1  and  C_2
REMARK    2  A    between atoms: C_2  and  O_3
REMARK    3  A    between atoms: C_2  and  C_4
REMARK    4  A    between atoms: C_2  and  C_13
REMARK    5  A    between atoms: C_4  and  S_5
REMARK    6  A    between atoms: S_5  and  C_6
REMARK    7  A    between atoms: C_17  and  C_18
REMARK    8  A    between atoms: C_20  and  C_21
REMARK                            x       y       z     vdW  Elec       q    Type
REMARK                         _______ _______ _______ _____ _____    ______ ____
ROOT
ATOM      1  C   UNL     1       2.455   4.944  19.382  0.00  0.00    +0.000 A 
ATOM      2  C   UNL     1       1.939   5.468  20.551  0.00  0.00    +0.000 A 
ATOM      3  C   UNL     1       1.712   6.850  20.347  0.00  0.00    +0.000 A 
ATOM      4  C   UNL     1       1.192   7.866  21.161  0.00  0.00    +0.000 A 
ATOM      5  C   UNL     1       1.071   9.173  20.659  0.00  0.00    +0.000 A 
ATOM      6  C   UNL     1       1.471   9.475  19.345  0.00  0.00    +0.000 A 
ATOM      7  C   UNL     1       1.999   8.450  18.520  0.00  0.00    +0.000 A 
ATOM      8  C   UNL     1       2.106   7.155  19.047  0.00  0.00    +0.000 A 
ATOM      9  N   UNL     1       2.566   5.984  18.486  0.00  0.00    +0.000 N 
ATOM     10  H   UNL     1       2.911   5.867  17.541  0.00  0.00    +0.000 HD
ENDROOT
BRANCH   6  11
ATOM     11  C   UNL     1       1.368  10.865  18.757  0.00  0.00    +0.000 C 
ATOM     12  F   UNL     1       1.758  11.874  19.577  0.00  0.00    +0.000 F 
ATOM     13  F   UNL     1       2.125  10.998  17.631  0.00  0.00    +0.000 F 
ATOM     14  F   UNL     1       0.094  11.170  18.384  0.00  0.00    +0.000 F 
ENDBRANCH   6  11
BRANCH   1  16
ATOM     15  C   UNL     1       2.070   3.118  17.752  0.00  0.00    +0.000 C 
ATOM     16  C   UNL     1       2.811   3.528  19.029  0.00  0.00    +0.000 C 
BRANCH  16  17
ATOM     17  O   UNL     1       2.307   2.702  20.086  0.00  0.00    +0.000 OA
ATOM     18  H   UNL     1       1.901   1.921  19.675  0.00  0.00    +0.000 HD
ENDBRANCH  16  17
BRANCH  16  19
ATOM     19  C   UNL     1       4.349   3.345  18.861  0.00  0.00    +0.000 C 
BRANCH  19  20
ATOM     20  S   UNL     1       4.930   3.985  17.234  0.00  0.00    +0.000 S 
BRANCH  20  21
ATOM     21  C   UNL     1       6.037   5.326  17.618  0.00  0.00    +0.000 A 
ATOM     22  C   UNL     1       6.119   6.544  16.934  0.00  0.00    +0.000 A 
ATOM     23  C   UNL     1       7.073   7.499  17.310  0.00  0.00    +0.000 A 
ATOM     24  C   UNL     1       7.934   7.239  18.369  0.00  0.00    +0.000 A 
ATOM     25  F   UNL     1       8.854   8.149  18.714  0.00  0.00    +0.000 F 
ATOM     26  C   UNL     1       7.859   6.046  19.071  0.00  0.00    +0.000 A 
ATOM     27  C   UNL     1       6.910   5.095  18.695  0.00  0.00    +0.000 A 
ENDBRANCH  20  21
ENDBRANCH  19  20
ENDBRANCH  16  19
ENDBRANCH   1  16
BRANCH   5  28
ATOM     28  C   UNL     1       0.528  10.153  21.558  0.00  0.00    +0.000 C 
ATOM     29  N   UNL     1       0.072  10.967  22.244  0.00  0.00    +0.000 NA
ENDBRANCH   5  28
TORSDOF 7
ENDMDL
MODEL 7
REMARK VINA RESULT:      -7.9      4.473      7.983
REMARK  Name = 
REMARK  8 active torsions:
REMARK  status: ('A' for Active; 'I' for Inactive)
REMARK    1  A    between atoms: C_1  and  C_2
REMARK    2  A    between atoms: C_2  and  O_3
REMARK    3  A    between atoms: C_2  and  C_4
REMARK    4  A    between atoms: C_2  and  C_13
REMARK    5  A    between atoms: C_4  and  S_5
REMARK    6  A    between atoms: S_5  and  C_6
REMARK    7  A    between atoms: C_17  and  C_18
REMARK    8  A    between atoms: C_20  and  C_21
REMARK                            x       y       z     vdW  Elec       q    Type
REMARK                         _______ _______ _______ _____ _____    ______ ____
ROOT
ATOM      1  C   UNL     1       1.298   8.976  19.998  0.00  0.00    +0.000 A 
ATOM      2  C   UNL     1       1.415   7.834  20.765  0.00  0.00    +0.000 A 
ATOM      3  C   UNL     1       2.149   6.881  20.019  0.00  0.00    +0.000 A 
ATOM      4  C   UNL     1       2.581   5.576  20.293  0.00  0.00    +0.000 A 
ATOM      5  C   UNL     1       3.327   4.868  19.335  0.00  0.00    +0.000 A 
ATOM      6  C   UNL     1       3.642   5.456  18.097  0.00  0.00    +0.000 A 
ATOM      7  C   UNL     1       3.205   6.775  17.816  0.00  0.00    +0.000 A 
ATOM      8  C   UNL     1       2.465   7.457  18.792  0.00  0.00    +0.000 A 
ATOM      9  N   UNL     1       1.926   8.724  18.797  0.00  0.00    +0.000 N 
ATOM     10  H   UNL     1       1.994   9.409  18.053  0.00  0.00    +0.000 HD
ENDROOT
BRANCH   6  11
ATOM     11  C   UNL     1       4.436   4.737  17.029  0.00  0.00    +0.000 C 
ATOM     12  F   UNL     1       5.628   4.230  17.433  0.00  0.00    +0.000 F 
ATOM     13  F   UNL     1       3.749   3.682  16.508  0.00  0.00    +0.000 F 
ATOM     14  F   UNL     1       4.724   5.548  15.973  0.00  0.00    +0.000 F 
ENDBRANCH   6  11
BRANCH   1  16
ATOM     15  C   UNL     1       1.159  11.355  19.319  0.00  0.00    +0.000 C 
ATOM     16  C   UNL     1       0.679  10.305  20.325  0.00  0.00    +0.000 C 
BRANCH  16  17
ATOM     17  O   UNL     1       1.191  10.691  21.607  0.00  0.00    +0.000 OA
ATOM     18  H   UNL     1       1.082   9.931  22.203  0.00  0.00    +0.000 HD
ENDBRANCH  16  17
BRANCH  16  19
ATOM     19  C   UNL     1      -0.877  10.226  20.346  0.00  0.00    +0.000 C 
BRANCH  19  20
ATOM     20  S   UNL     1      -1.637  11.697  19.540  0.00  0.00    +0.000 S 
BRANCH  20  21
ATOM     21  C   UNL     1      -2.360  11.092  18.029  0.00  0.00    +0.000 A 
ATOM     22  C   UNL     1      -1.794  10.143  17.170  0.00  0.00    +0.000 A 
ATOM     23  C   UNL     1      -2.447   9.790  15.983  0.00  0.00    +0.000 A 
ATOM     24  C   UNL     1      -3.665  10.377  15.661  0.00  0.00    +0.000 A 
ATOM     25  F   UNL     1      -4.279  10.046  14.517  0.00  0.00    +0.000 F 
ATOM     26  C   UNL     1      -4.253  11.306  16.505  0.00  0.00    +0.000 A 
ATOM     27  C   UNL     1      -3.600  11.659  17.687  0.00  0.00    +0.000 A 
ENDBRANCH  20  21
ENDBRANCH  19  20
ENDBRANCH  16  19
ENDBRANCH   1  16
BRANCH   5  28
ATOM     28  C   UNL     1       3.731   3.538  19.697  0.00  0.00    +0.000 C 
ATOM     29  N   UNL     1       4.037   2.473  20.033  0.00  0.00    +0.000 NA
ENDBRANCH   5  28
TORSDOF 7
ENDMDL
MODEL 8
REMARK VINA RESULT:      -7.9      1.444      2.328
REMARK  Name = 
REMARK  8 active torsions:
REMARK  status: ('A' for Active; 'I' for Inactive)
REMARK    1  A    between atoms: C_1  and  C_2
REMARK    2  A    between atoms: C_2  and  O_3
REMARK    3  A    between atoms: C_2  and  C_4
REMARK    4  A    between atoms: C_2  and  C_13
REMARK    5  A    between atoms: C_4  and  S_5
REMARK    6  A    between atoms: S_5  and  C_6
REMARK    7  A    between atoms: C_17  and  C_18
REMARK    8  A    between atoms: C_20  and  C_21
REMARK                            x       y       z     vdW  Elec       q    Type
REMARK                         _______ _______ _______ _____ _____    ______ ____
ROOT
ATOM      1  C   UNL     1       4.193   6.583  17.881  0.00  0.00    +0.000 A 
ATOM      2  C   UNL     1       3.723   6.399  19.166  0.00  0.00    +0.000 A 
ATOM      3  C   UNL     1       2.694   7.344  19.394  0.00  0.00    +0.000 A 
ATOM      4  C   UNL     1       1.860   7.607  20.489  0.00  0.00    +0.000 A 
ATOM      5  C   UNL     1       0.896   8.626  20.407  0.00  0.00    +0.000 A 
ATOM      6  C   UNL     1       0.762   9.392  19.236  0.00  0.00    +0.000 A 
ATOM      7  C   UNL     1       1.605   9.130  18.126  0.00  0.00    +0.000 A 
ATOM      8  C   UNL     1       2.556   8.105  18.236  0.00  0.00    +0.000 A 
ATOM      9  N   UNL     1       3.486   7.633  17.337  0.00  0.00    +0.000 N 
ATOM     10  H   UNL     1       3.630   7.968  16.391  0.00  0.00    +0.000 HD
ENDROOT
BRANCH   6  11
ATOM     11  C   UNL     1      -0.254  10.504  19.097  0.00  0.00    +0.000 C 
ATOM     12  F   UNL     1      -1.547  10.138  19.288  0.00  0.00    +0.000 F 
ATOM     13  F   UNL     1      -0.026  11.514  19.983  0.00  0.00    +0.000 F 
ATOM     14  F   UNL     1      -0.217  11.080  17.862  0.00  0.00    +0.000 F 
ENDBRANCH   6  11
BRANCH   1  16
ATOM     15  C   UNL     1       6.604   6.456  17.321  0.00  0.00    +0.000 C 
ATOM     16  C   UNL     1       5.228   5.816  17.108  0.00  0.00    +0.000 C 
BRANCH  16  17
ATOM     17  O   UNL     1       4.905   5.976  15.721  0.00  0.00    +0.000 OA
ATOM     18  H   UNL     1       3.981   6.271  15.671  0.00  0.00    +0.000 HD
ENDBRANCH  16  17
BRANCH  16  19
ATOM     19  C   UNL     1       5.248   4.311  17.507  0.00  0.00    +0.000 C 
BRANCH  19  20
ATOM     20  S   UNL     1       3.627   3.503  17.172  0.00  0.00    +0.000 S 
BRANCH  20  21
ATOM     21  C   UNL     1       2.896   3.221  18.771  0.00  0.00    +0.000 A 
ATOM     22  C   UNL     1       3.575   2.813  19.924  0.00  0.00    +0.000 A 
ATOM     23  C   UNL     1       2.869   2.578  21.111  0.00  0.00    +0.000 A 
ATOM     24  C   UNL     1       1.492   2.759  21.145  0.00  0.00    +0.000 A 
ATOM     25  F   UNL     1       0.819   2.519  22.279  0.00  0.00    +0.000 F 
ATOM     26  C   UNL     1       0.801   3.179  20.019  0.00  0.00    +0.000 A 
ATOM     27  C   UNL     1       1.505   3.411  18.837  0.00  0.00    +0.000 A 
ENDBRANCH  20  21
ENDBRANCH  19  20
ENDBRANCH  16  19
ENDBRANCH   1  16
BRANCH   5  28
ATOM     28  C   UNL     1       0.082   8.829  21.574  0.00  0.00    +0.000 C 
ATOM     29  N   UNL     1      -0.613   8.981  22.487  0.00  0.00    +0.000 NA
ENDBRANCH   5  28
TORSDOF 7
ENDMDL
MODEL 9
REMARK VINA RESULT:      -7.9      4.551      8.013
REMARK  Name = 
REMARK  8 active torsions:
REMARK  status: ('A' for Active; 'I' for Inactive)
REMARK    1  A    between atoms: C_1  and  C_2
REMARK    2  A    between atoms: C_2  and  O_3
REMARK    3  A    between atoms: C_2  and  C_4
REMARK    4  A    between atoms: C_2  and  C_13
REMARK    5  A    between atoms: C_4  and  S_5
REMARK    6  A    between atoms: S_5  and  C_6
REMARK    7  A    between atoms: C_17  and  C_18
REMARK    8  A    between atoms: C_20  and  C_21
REMARK                            x       y       z     vdW  Elec       q    Type
REMARK                         _______ _______ _______ _____ _____    ______ ____
ROOT
ATOM      1  C   UNL     1       1.453   8.899  19.689  0.00  0.00    +0.000 A 
ATOM      2  C   UNL     1       1.653   7.770  20.458  0.00  0.00    +0.000 A 
ATOM      3  C   UNL     1       2.450   6.869  19.712  0.00  0.00    +0.000 A 
ATOM      4  C   UNL     1       2.974   5.598  19.988  0.00  0.00    +0.000 A 
ATOM      5  C   UNL     1       3.763   4.943  19.028  0.00  0.00    +0.000 A 
ATOM      6  C   UNL     1       4.031   5.547  17.787  0.00  0.00    +0.000 A 
ATOM      7  C   UNL     1       3.501   6.832  17.504  0.00  0.00    +0.000 A 
ATOM      8  C   UNL     1       2.719   7.463  18.482  0.00  0.00    +0.000 A 
ATOM      9  N   UNL     1       2.091   8.689  18.486  0.00  0.00    +0.000 N 
ATOM     10  H   UNL     1       2.108   9.374  17.740  0.00  0.00    +0.000 HD
ENDROOT
BRANCH   6  11
ATOM     11  C   UNL     1       4.869   4.883  16.717  0.00  0.00    +0.000 C 
ATOM     12  F   UNL     1       5.023   5.597  15.573  0.00  0.00    +0.000 F 
ATOM     13  F   UNL     1       6.132   4.618  17.153  0.00  0.00    +0.000 F 
ATOM     14  F   UNL     1       4.351   3.683  16.332  0.00  0.00    +0.000 F 
ENDBRANCH   6  11
BRANCH   1  16
ATOM     15  C   UNL     1       1.187  11.276  19.039  0.00  0.00    +0.000 C 
ATOM     16  C   UNL     1       0.743  10.182  20.016  0.00  0.00    +0.000 C 
BRANCH  16  17
ATOM     17  O   UNL     1       1.192  10.579  21.318  0.00  0.00    +0.000 OA
ATOM     18  H   UNL     1       0.540  11.208  21.670  0.00  0.00    +0.000 HD
ENDBRANCH  16  17
BRANCH  16  19
ATOM     19  C   UNL     1      -0.804  10.007  19.988  0.00  0.00    +0.000 C 
BRANCH  19  20
ATOM     20  S   UNL     1      -1.651  11.571  19.507  0.00  0.00    +0.000 S 
BRANCH  20  21
ATOM     21  C   UNL     1      -2.517  11.198  17.996  0.00  0.00    +0.000 A 
ATOM     22  C   UNL     1      -3.775  11.688  17.629  0.00  0.00    +0.000 A 
ATOM     23  C   UNL     1      -4.368  11.274  16.429  0.00  0.00    +0.000 A 
ATOM     24  C   UNL     1      -3.703  10.381  15.599  0.00  0.00    +0.000 A 
ATOM     25  F   UNL     1      -4.282   9.977  14.460  0.00  0.00    +0.000 F 
ATOM     26  C   UNL     1      -2.448   9.896  15.935  0.00  0.00    +0.000 A 
ATOM     27  C   UNL     1      -1.859  10.307  17.131  0.00  0.00    +0.000 A 
ENDBRANCH  20  21
ENDBRANCH  19  20
ENDBRANCH  16  19
ENDBRANCH   1  16
BRANCH   5  28
ATOM     28  C   UNL     1       4.262   3.645  19.392  0.00  0.00    +0.000 C 
ATOM     29  N   UNL     1       4.700   2.621  19.708  0.00  0.00    +0.000 NA
ENDBRANCH   5  28
TORSDOF 7
ENDMDL
