MODEL 1
REMARK VINA RESULT:      -6.8      0.000      0.000
REMARK  Name = 
REMARK  14 active torsions:
REMARK  status: ('A' for Active; 'I' for Inactive)
REMARK    1  A    between atoms: C_1  and  C_2
REMARK    2  A    between atoms: C_2  and  O_3
REMARK    3  A    between atoms: O_3  and  C_4
REMARK    4  A    between atoms: C_4  and  C_6
REMARK    5  A    between atoms: C_6  and  C_7
REMARK    6  A    between atoms: C_6  and  N_15
REMARK    7  A    between atoms: C_7  and  C_8
REMARK    8  A    between atoms: C_8  and  C_9
REMARK    9  A    between atoms: N_15  and  C_16
REMARK   10  A    between atoms: C_16  and  C_17
REMARK   11  A    between atoms: C_16  and  C_18
REMARK   12  A    between atoms: C_22  and  C_23
REMARK   13  A    between atoms: C_25  and  C_26
REMARK   14  A    between atoms: C_26  and  O_28
REMARK                            x       y       z     vdW  Elec       q    Type
REMARK                         _______ _______ _______ _____ _____    ______ ____
ROOT
ATOM      1  N   UNL     1       1.794   8.046  19.906  0.00  0.00    +0.000 NA
ATOM      2  H   UNL     1       1.230   7.260  20.239  0.00  0.00    +0.000 HD
ENDROOT
BRANCH   1   3
ATOM      3  C   UNL     1       2.029   7.897  18.436  0.00  0.00    +0.000 C 
ATOM      4  C   UNL     1       2.351   9.268  17.831  0.00  0.00    +0.000 C 
BRANCH   3   5
ATOM      5  C   UNL     1       3.202   6.873  18.171  0.00  0.00    +0.000 C 
ATOM      6  O   UNL     1       4.200   7.158  17.519  0.00  0.00    +0.000 OA
ATOM      7  N   UNL     1       3.069   5.589  18.717  0.00  0.00    +0.000 N 
ATOM      8  N   UNL     1       1.886   5.166  19.282  0.00  0.00    +0.000 NA
ATOM      9  C   UNL     1       2.075   4.064  19.955  0.00  0.00    +0.000 C 
ATOM     10  C   UNL     1       0.975   3.288  20.580  0.00  0.00    +0.000 C 
ATOM     11  S   UNL     1       3.702   3.472  20.088  0.00  0.00    +0.000 S 
ATOM     12  C   UNL     1       4.165   4.589  18.708  0.00  0.00    +0.000 C 
BRANCH  12  13
ATOM     13  C   UNL     1       4.211   3.713  17.433  0.00  0.00    +0.000 C 
ATOM     14  O   UNL     1       3.823   2.552  17.381  0.00  0.00    +0.000 OA
BRANCH  13  15
ATOM     15  O   UNL     1       4.668   4.347  16.321  0.00  0.00    +0.000 OA
ATOM     16  H   UNL     1       5.071   3.725  15.682  0.00  0.00    +0.000 HD
ENDBRANCH  13  15
ENDBRANCH  12  13
ENDBRANCH   3   5
ENDBRANCH   1   3
BRANCH   1  17
ATOM     17  C   UNL     1       1.120   9.325  20.315  0.00  0.00    +0.000 C 
BRANCH  17  18
ATOM     18  C   UNL     1       0.970   9.386  21.850  0.00  0.00    +0.000 C 
ATOM     19  O   UNL     1       1.919   9.443  22.627  0.00  0.00    +0.000 OA
BRANCH  18  20
ATOM     20  O   UNL     1      -0.334   9.242  22.235  0.00  0.00    +0.000 OA
BRANCH  20  22
ATOM     21  C   UNL     1      -1.140  11.486  22.745  0.00  0.00    +0.000 C 
ATOM     22  C   UNL     1      -0.799  10.107  23.288  0.00  0.00    +0.000 C 
ENDBRANCH  20  22
ENDBRANCH  18  20
ENDBRANCH  17  18
BRANCH  17  23
ATOM     23  C   UNL     1      -0.282   9.452  19.689  0.00  0.00    +0.000 C 
BRANCH  23  24
ATOM     24  C   UNL     1      -0.563  10.834  19.088  0.00  0.00    +0.000 C 
BRANCH  24  25
ATOM     25  C   UNL     1      -1.771  10.796  18.184  0.00  0.00    +0.000 A 
ATOM     26  C   UNL     1      -2.898  11.576  18.472  0.00  0.00    +0.000 A 
ATOM     27  C   UNL     1      -4.021  11.529  17.646  0.00  0.00    +0.000 A 
ATOM     28  C   UNL     1      -4.032  10.693  16.531  0.00  0.00    +0.000 A 
ATOM     29  C   UNL     1      -2.921   9.904  16.242  0.00  0.00    +0.000 A 
ATOM     30  C   UNL     1      -1.794   9.954  17.064  0.00  0.00    +0.000 A 
ENDBRANCH  24  25
ENDBRANCH  23  24
ENDBRANCH  17  23
ENDBRANCH   1  17
TORSDOF 11
ENDMDL
MODEL 2
REMARK VINA RESULT:      -6.7      3.087      7.779
REMARK  Name = 
REMARK  14 active torsions:
REMARK  status: ('A' for Active; 'I' for Inactive)
REMARK    1  A    between atoms: C_1  and  C_2
REMARK    2  A    between atoms: C_2  and  O_3
REMARK    3  A    between atoms: O_3  and  C_4
REMARK    4  A    between atoms: C_4  and  C_6
REMARK    5  A    between atoms: C_6  and  C_7
REMARK    6  A    between atoms: C_6  and  N_15
REMARK    7  A    between atoms: C_7  and  C_8
REMARK    8  A    between atoms: C_8  and  C_9
REMARK    9  A    between atoms: N_15  and  C_16
REMARK   10  A    between atoms: C_16  and  C_17
REMARK   11  A    between atoms: C_16  and  C_18
REMARK   12  A    between atoms: C_22  and  C_23
REMARK   13  A    between atoms: C_25  and  C_26
REMARK   14  A    between atoms: C_26  and  O_28
REMARK                            x       y       z     vdW  Elec       q    Type
REMARK                         _______ _______ _______ _____ _____    ______ ____
ROOT
ATOM      1  N   UNL     1       2.834   6.322  17.314  0.00  0.00    +0.000 NA
ATOM      2  H   UNL     1       2.236   5.546  17.023  0.00  0.00    +0.000 HD
ENDROOT
BRANCH   1   3
ATOM      3  C   UNL     1       2.224   6.997  18.501  0.00  0.00    +0.000 C 
ATOM      4  C   UNL     1       3.184   6.896  19.692  0.00  0.00    +0.000 C 
BRANCH   3   5
ATOM      5  C   UNL     1       1.898   8.506  18.165  0.00  0.00    +0.000 C 
ATOM      6  O   UNL     1       2.235   9.042  17.115  0.00  0.00    +0.000 OA
ATOM      7  N   UNL     1       1.195   9.241  19.129  0.00  0.00    +0.000 N 
ATOM      8  N   UNL     1       0.972   8.743  20.394  0.00  0.00    +0.000 NA
ATOM      9  C   UNL     1       0.081   9.465  21.014  0.00  0.00    +0.000 C 
ATOM     10  C   UNL     1      -0.290   9.264  22.437  0.00  0.00    +0.000 C 
ATOM     11  S   UNL     1      -0.679  10.747  20.121  0.00  0.00    +0.000 S 
ATOM     12  C   UNL     1       0.662  10.602  18.877  0.00  0.00    +0.000 C 
BRANCH  12  13
ATOM     13  C   UNL     1       1.665  11.741  19.181  0.00  0.00    +0.000 C 
ATOM     14  O   UNL     1       1.707  12.357  20.239  0.00  0.00    +0.000 OA
BRANCH  13  15
ATOM     15  O   UNL     1       2.566  11.986  18.194  0.00  0.00    +0.000 OA
ATOM     16  H   UNL     1       2.132  12.204  17.345  0.00  0.00    +0.000 HD
ENDBRANCH  13  15
ENDBRANCH  12  13
ENDBRANCH   3   5
ENDBRANCH   1   3
BRANCH   1  17
ATOM     17  C   UNL     1       4.226   5.801  17.525  0.00  0.00    +0.000 C 
BRANCH  17  18
ATOM     18  C   UNL     1       5.225   6.551  16.617  0.00  0.00    +0.000 C 
ATOM     19  O   UNL     1       5.298   6.389  15.402  0.00  0.00    +0.000 OA
BRANCH  18  20
ATOM     20  O   UNL     1       6.093   7.315  17.348  0.00  0.00    +0.000 OA
BRANCH  20  22
ATOM     21  C   UNL     1       7.731   6.137  18.717  0.00  0.00    +0.000 C 
ATOM     22  C   UNL     1       7.459   6.864  17.409  0.00  0.00    +0.000 C 
ENDBRANCH  20  22
ENDBRANCH  18  20
ENDBRANCH  17  18
BRANCH  17  23
ATOM     23  C   UNL     1       4.323   4.296  17.206  0.00  0.00    +0.000 C 
BRANCH  23  24
ATOM     24  C   UNL     1       2.987   3.556  17.328  0.00  0.00    +0.000 C 
BRANCH  24  25
ATOM     25  C   UNL     1       2.642   3.297  18.774  0.00  0.00    +0.000 A 
ATOM     26  C   UNL     1       3.611   2.800  19.656  0.00  0.00    +0.000 A 
ATOM     27  C   UNL     1       3.289   2.545  20.990  0.00  0.00    +0.000 A 
ATOM     28  C   UNL     1       1.994   2.772  21.451  0.00  0.00    +0.000 A 
ATOM     29  C   UNL     1       1.020   3.255  20.579  0.00  0.00    +0.000 A 
ATOM     30  C   UNL     1       1.341   3.516  19.246  0.00  0.00    +0.000 A 
ENDBRANCH  24  25
ENDBRANCH  23  24
ENDBRANCH  17  23
ENDBRANCH   1  17
TORSDOF 11
ENDMDL
MODEL 3
REMARK VINA RESULT:      -6.7      4.531      7.912
REMARK  Name = 
REMARK  14 active torsions:
REMARK  status: ('A' for Active; 'I' for Inactive)
REMARK    1  A    between atoms: C_1  and  C_2
REMARK    2  A    between atoms: C_2  and  O_3
REMARK    3  A    between atoms: O_3  and  C_4
REMARK    4  A    between atoms: C_4  and  C_6
REMARK    5  A    between atoms: C_6  and  C_7
REMARK    6  A    between atoms: C_6  and  N_15
REMARK    7  A    between atoms: C_7  and  C_8
REMARK    8  A    between atoms: C_8  and  C_9
REMARK    9  A    between atoms: N_15  and  C_16
REMARK   10  A    between atoms: C_16  and  C_17
REMARK   11  A    between atoms: C_16  and  C_18
REMARK   12  A    between atoms: C_22  and  C_23
REMARK   13  A    between atoms: C_25  and  C_26
REMARK   14  A    between atoms: C_26  and  O_28
REMARK                            x       y       z     vdW  Elec       q    Type
REMARK                         _______ _______ _______ _____ _____    ______ ____
ROOT
ATOM      1  N   UNL     1       4.329   5.474  17.831  0.00  0.00    +0.000 NA
ATOM      2  H   UNL     1       4.030   4.536  18.105  0.00  0.00    +0.000 HD
ENDROOT
BRANCH   1   3
ATOM      3  C   UNL     1       3.683   6.481  18.730  0.00  0.00    +0.000 C 
ATOM      4  C   UNL     1       3.067   7.599  17.882  0.00  0.00    +0.000 C 
BRANCH   3   5
ATOM      5  C   UNL     1       2.587   5.785  19.631  0.00  0.00    +0.000 C 
ATOM      6  O   UNL     1       1.867   6.408  20.403  0.00  0.00    +0.000 OA
ATOM      7  N   UNL     1       2.457   4.393  19.523  0.00  0.00    +0.000 N 
ATOM      8  N   UNL     1       3.371   3.636  18.824  0.00  0.00    +0.000 NA
ATOM      9  C   UNL     1       2.907   2.433  18.630  0.00  0.00    +0.000 C 
ATOM     10  C   UNL     1       3.699   1.339  18.016  0.00  0.00    +0.000 C 
ATOM     11  S   UNL     1       1.285   2.102  19.156  0.00  0.00    +0.000 S 
ATOM     12  C   UNL     1       1.355   3.634  20.163  0.00  0.00    +0.000 C 
BRANCH  12  13
ATOM     13  C   UNL     1       1.654   3.189  21.615  0.00  0.00    +0.000 C 
ATOM     14  O   UNL     1       1.046   2.302  22.202  0.00  0.00    +0.000 OA
BRANCH  13  15
ATOM     15  O   UNL     1       2.706   3.820  22.200  0.00  0.00    +0.000 OA
ATOM     16  H   UNL     1       3.554   3.370  22.014  0.00  0.00    +0.000 HD
ENDBRANCH  13  15
ENDBRANCH  12  13
ENDBRANCH   3   5
ENDBRANCH   1   3
BRANCH   1  17
ATOM     17  C   UNL     1       5.830   5.511  17.812  0.00  0.00    +0.000 C 
BRANCH  17  18
ATOM     18  C   UNL     1       6.328   6.863  17.256  0.00  0.00    +0.000 C 
ATOM     19  O   UNL     1       5.963   7.335  16.183  0.00  0.00    +0.000 OA
BRANCH  18  20
ATOM     20  O   UNL     1       7.311   7.399  18.040  0.00  0.00    +0.000 OA
BRANCH  20  22
ATOM     21  C   UNL     1       8.741   9.260  18.700  0.00  0.00    +0.000 C 
ATOM     22  C   UNL     1       7.871   8.654  17.610  0.00  0.00    +0.000 C 
ENDBRANCH  20  22
ENDBRANCH  18  20
ENDBRANCH  17  18
BRANCH  17  23
ATOM     23  C   UNL     1       6.414   4.386  16.936  0.00  0.00    +0.000 C 
BRANCH  23  24
ATOM     24  C   UNL     1       5.459   3.904  15.840  0.00  0.00    +0.000 C 
BRANCH  24  25
ATOM     25  C   UNL     1       6.081   4.060  14.473  0.00  0.00    +0.000 A 
ATOM     26  C   UNL     1       7.208   4.874  14.296  0.00  0.00    +0.000 A 
ATOM     27  C   UNL     1       7.775   5.032  13.031  0.00  0.00    +0.000 A 
ATOM     28  C   UNL     1       7.213   4.390  11.930  0.00  0.00    +0.000 A 
ATOM     29  C   UNL     1       6.084   3.588  12.093  0.00  0.00    +0.000 A 
ATOM     30  C   UNL     1       5.520   3.423  13.359  0.00  0.00    +0.000 A 
ENDBRANCH  24  25
ENDBRANCH  23  24
ENDBRANCH  17  23
ENDBRANCH   1  17
TORSDOF 11
ENDMDL
MODEL 4
REMARK VINA RESULT:      -6.7      4.539      8.382
REMARK  Name = 
REMARK  14 active torsions:
REMARK  status: ('A' for Active; 'I' for Inactive)
REMARK    1  A    between atoms: C_1  and  C_2
REMARK    2  A    between atoms: C_2  and  O_3
REMARK    3  A    between atoms: O_3  and  C_4
REMARK    4  A    between atoms: C_4  and  C_6
REMARK    5  A    between atoms: C_6  and  C_7
REMARK    6  A    between atoms: C_6  and  N_15
REMARK    7  A    between atoms: C_7  and  C_8
REMARK    8  A    between atoms: C_8  and  C_9
REMARK    9  A    between atoms: N_15  and  C_16
REMARK   10  A    between atoms: C_16  and  C_17
REMARK   11  A    between atoms: C_16  and  C_18
REMARK   12  A    between atoms: C_22  and  C_23
REMARK   13  A    between atoms: C_25  and  C_26
REMARK   14  A    between atoms: C_26  and  O_28
REMARK                            x       y       z     vdW  Elec       q    Type
REMARK                         _______ _______ _______ _____ _____    ______ ____
ROOT
ATOM      1  N   UNL     1       5.783   7.207  17.709  0.00  0.00    +0.000 NA
ATOM      2  H   UNL     1       5.806   8.219  17.855  0.00  0.00    +0.000 HD
ENDROOT
BRANCH   1   3
ATOM      3  C   UNL     1       4.582   6.853  16.889  0.00  0.00    +0.000 C 
ATOM      4  C   UNL     1       4.972   6.812  15.407  0.00  0.00    +0.000 C 
BRANCH   3   5
ATOM      5  C   UNL     1       3.992   5.465  17.357  0.00  0.00    +0.000 C 
ATOM      6  O   UNL     1       4.252   4.407  16.795  0.00  0.00    +0.000 OA
ATOM      7  N   UNL     1       3.133   5.473  18.465  0.00  0.00    +0.000 N 
ATOM      8  N   UNL     1       2.659   6.651  19.000  0.00  0.00    +0.000 NA
ATOM      9  C   UNL     1       2.114   6.431  20.165  0.00  0.00    +0.000 C 
ATOM     10  C   UNL     1       1.402   7.474  20.945  0.00  0.00    +0.000 C 
ATOM     11  S   UNL     1       2.210   4.820  20.807  0.00  0.00    +0.000 S 
ATOM     12  C   UNL     1       2.654   4.234  19.125  0.00  0.00    +0.000 C 
BRANCH  12  13
ATOM     13  C   UNL     1       1.361   3.649  18.510  0.00  0.00    +0.000 C 
ATOM     14  O   UNL     1       0.978   3.875  17.368  0.00  0.00    +0.000 OA
BRANCH  13  15
ATOM     15  O   UNL     1       0.682   2.792  19.317  0.00  0.00    +0.000 OA
ATOM     16  H   UNL     1       0.009   2.279  18.825  0.00  0.00    +0.000 HD
ENDBRANCH  13  15
ENDBRANCH  12  13
ENDBRANCH   3   5
ENDBRANCH   1   3
BRANCH   1  17
ATOM     17  C   UNL     1       7.099   6.779  17.125  0.00  0.00    +0.000 C 
BRANCH  17  18
ATOM     18  C   UNL     1       7.549   5.437  17.741  0.00  0.00    +0.000 C 
ATOM     19  O   UNL     1       7.936   5.314  18.900  0.00  0.00    +0.000 OA
BRANCH  18  20
ATOM     20  O   UNL     1       7.583   4.440  16.807  0.00  0.00    +0.000 OA
BRANCH  20  22
ATOM     21  C   UNL     1       6.620   3.865  14.642  0.00  0.00    +0.000 C 
ATOM     22  C   UNL     1       7.483   4.841  15.427  0.00  0.00    +0.000 C 
ENDBRANCH  20  22
ENDBRANCH  18  20
ENDBRANCH  17  18
BRANCH  17  23
ATOM     23  C   UNL     1       8.202   7.823  17.386  0.00  0.00    +0.000 C 
BRANCH  23  24
ATOM     24  C   UNL     1       7.681   9.124  18.005  0.00  0.00    +0.000 C 
BRANCH  24  25
ATOM     25  C   UNL     1       8.821   9.983  18.498  0.00  0.00    +0.000 A 
ATOM     26  C   UNL     1       9.027  10.168  19.871  0.00  0.00    +0.000 A 
ATOM     27  C   UNL     1      10.071  10.974  20.327  0.00  0.00    +0.000 A 
ATOM     28  C   UNL     1      10.909  11.612  19.416  0.00  0.00    +0.000 A 
ATOM     29  C   UNL     1      10.705  11.445  18.047  0.00  0.00    +0.000 A 
ATOM     30  C   UNL     1       9.665  10.634  17.589  0.00  0.00    +0.000 A 
ENDBRANCH  24  25
ENDBRANCH  23  24
ENDBRANCH  17  23
ENDBRANCH   1  17
TORSDOF 11
ENDMDL
MODEL 5
REMARK VINA RESULT:      -6.6      3.000      7.831
REMARK  Name = 
REMARK  14 active torsions:
REMARK  status: ('A' for Active; 'I' for Inactive)
REMARK    1  A    between atoms: C_1  and  C_2
REMARK    2  A    between atoms: C_2  and  O_3
REMARK    3  A    between atoms: O_3  and  C_4
REMARK    4  A    between atoms: C_4  and  C_6
REMARK    5  A    between atoms: C_6  and  C_7
REMARK    6  A    between atoms: C_6  and  N_15
REMARK    7  A    between atoms: C_7  and  C_8
REMARK    8  A    between atoms: C_8  and  C_9
REMARK    9  A    between atoms: N_15  and  C_16
REMARK   10  A    between atoms: C_16  and  C_17
REMARK   11  A    between atoms: C_16  and  C_18
REMARK   12  A    between atoms: C_22  and  C_23
REMARK   13  A    between atoms: C_25  and  C_26
REMARK   14  A    between atoms: C_26  and  O_28
REMARK                            x       y       z     vdW  Elec       q    Type
REMARK                         _______ _______ _______ _____ _____    ______ ____
ROOT
ATOM      1  N   UNL     1       1.916   6.491  18.470  0.00  0.00    +0.000 NA
ATOM      2  H   UNL     1       1.315   6.567  19.294  0.00  0.00    +0.000 HD
ENDROOT
BRANCH   1   3
ATOM      3  C   UNL     1       2.866   7.646  18.442  0.00  0.00    +0.000 C 
ATOM      4  C   UNL     1       3.930   7.403  17.366  0.00  0.00    +0.000 C 
BRANCH   3   5
ATOM      5  C   UNL     1       2.083   8.991  18.169  0.00  0.00    +0.000 C 
ATOM      6  O   UNL     1       2.141   9.589  17.101  0.00  0.00    +0.000 OA
ATOM      7  N   UNL     1       1.298   9.500  19.213  0.00  0.00    +0.000 N 
ATOM      8  N   UNL     1       1.360   8.972  20.484  0.00  0.00    +0.000 NA
ATOM      9  C   UNL     1       0.365   9.410  21.205  0.00  0.00    +0.000 C 
ATOM     10  C   UNL     1       0.215   9.126  22.654  0.00  0.00    +0.000 C 
ATOM     11  S   UNL     1      -0.821  10.405  20.417  0.00  0.00    +0.000 S 
ATOM     12  C   UNL     1       0.369  10.644  19.042  0.00  0.00    +0.000 C 
BRANCH  12  13
ATOM     13  C   UNL     1       1.024  12.028  19.265  0.00  0.00    +0.000 C 
ATOM     14  O   UNL     1       1.081  12.907  18.414  0.00  0.00    +0.000 OA
BRANCH  13  15
ATOM     15  O   UNL     1       1.494  12.241  20.522  0.00  0.00    +0.000 OA
ATOM     16  H   UNL     1       2.404  12.600  20.518  0.00  0.00    +0.000 HD
ENDBRANCH  13  15
ENDBRANCH  12  13
ENDBRANCH   3   5
ENDBRANCH   1   3
BRANCH   1  17
ATOM     17  C   UNL     1       2.563   5.136  18.474  0.00  0.00    +0.000 C 
BRANCH  17  18
ATOM     18  C   UNL     1       1.507   4.036  18.718  0.00  0.00    +0.000 C 
ATOM     19  O   UNL     1       1.034   3.334  17.828  0.00  0.00    +0.000 OA
BRANCH  18  20
ATOM     20  O   UNL     1       1.078   4.029  20.016  0.00  0.00    +0.000 OA
BRANCH  20  22
ATOM     21  C   UNL     1       2.058   2.674  21.790  0.00  0.00    +0.000 C 
ATOM     22  C   UNL     1       1.026   2.750  20.676  0.00  0.00    +0.000 C 
ENDBRANCH  20  22
ENDBRANCH  18  20
ENDBRANCH  17  18
BRANCH  17  23
ATOM     23  C   UNL     1       3.637   5.023  19.573  0.00  0.00    +0.000 C 
BRANCH  23  24
ATOM     24  C   UNL     1       4.651   3.901  19.328  0.00  0.00    +0.000 C 
BRANCH  24  25
ATOM     25  C   UNL     1       5.432   4.145  18.059  0.00  0.00    +0.000 A 
ATOM     26  C   UNL     1       6.655   4.827  18.099  0.00  0.00    +0.000 A 
ATOM     27  C   UNL     1       7.369   5.067  16.925  0.00  0.00    +0.000 A 
ATOM     28  C   UNL     1       6.862   4.639  15.699  0.00  0.00    +0.000 A 
ATOM     29  C   UNL     1       5.640   3.970  15.647  0.00  0.00    +0.000 A 
ATOM     30  C   UNL     1       4.927   3.723  16.822  0.00  0.00    +0.000 A 
ENDBRANCH  24  25
ENDBRANCH  23  24
ENDBRANCH  17  23
ENDBRANCH   1  17
TORSDOF 11
ENDMDL
MODEL 6
REMARK VINA RESULT:      -6.5      3.007      8.107
REMARK  Name = 
REMARK  14 active torsions:
REMARK  status: ('A' for Active; 'I' for Inactive)
REMARK    1  A    between atoms: C_1  and  C_2
REMARK    2  A    between atoms: C_2  and  O_3
REMARK    3  A    between atoms: O_3  and  C_4
REMARK    4  A    between atoms: C_4  and  C_6
REMARK    5  A    between atoms: C_6  and  C_7
REMARK    6  A    between atoms: C_6  and  N_15
REMARK    7  A    between atoms: C_7  and  C_8
REMARK    8  A    between atoms: C_8  and  C_9
REMARK    9  A    between atoms: N_15  and  C_16
REMARK   10  A    between atoms: C_16  and  C_17
REMARK   11  A    between atoms: C_16  and  C_18
REMARK   12  A    between atoms: C_22  and  C_23
REMARK   13  A    between atoms: C_25  and  C_26
REMARK   14  A    between atoms: C_26  and  O_28
REMARK                            x       y       z     vdW  Elec       q    Type
REMARK                         _______ _______ _______ _____ _____    ______ ____
ROOT
ATOM      1  N   UNL     1       3.037   5.676  17.373  0.00  0.00    +0.000 NA
ATOM      2  H   UNL     1       2.348   4.920  17.367  0.00  0.00    +0.000 HD
ENDROOT
BRANCH   1   3
ATOM      3  C   UNL     1       2.782   6.567  18.548  0.00  0.00    +0.000 C 
ATOM      4  C   UNL     1       4.048   6.649  19.408  0.00  0.00    +0.000 C 
BRANCH   3   5
ATOM      5  C   UNL     1       2.338   8.002  18.059  0.00  0.00    +0.000 C 
ATOM      6  O   UNL     1       2.644   8.456  16.962  0.00  0.00    +0.000 OA
ATOM      7  N   UNL     1       1.561   8.769  18.940  0.00  0.00    +0.000 N 
ATOM      8  N   UNL     1       1.363   8.383  20.247  0.00  0.00    +0.000 NA
ATOM      9  C   UNL     1       0.405   9.086  20.785  0.00  0.00    +0.000 C 
ATOM     10  C   UNL     1       0.032   8.998  22.219  0.00  0.00    +0.000 C 
ATOM     11  S   UNL     1      -0.445  10.204  19.763  0.00  0.00    +0.000 S 
ATOM     12  C   UNL     1       0.922  10.048  18.548  0.00  0.00    +0.000 C 
BRANCH  12  13
ATOM     13  C   UNL     1       1.822  11.291  18.741  0.00  0.00    +0.000 C 
ATOM     14  O   UNL     1       2.665  11.664  17.934  0.00  0.00    +0.000 OA
BRANCH  13  15
ATOM     15  O   UNL     1       1.575  12.005  19.871  0.00  0.00    +0.000 OA
ATOM     16  H   UNL     1       1.186  11.452  20.577  0.00  0.00    +0.000 HD
ENDBRANCH  13  15
ENDBRANCH  12  13
ENDBRANCH   3   5
ENDBRANCH   1   3
BRANCH   1  17
ATOM     17  C   UNL     1       4.410   5.072  17.321  0.00  0.00    +0.000 C 
BRANCH  17  18
ATOM     18  C   UNL     1       5.109   5.439  15.993  0.00  0.00    +0.000 C 
ATOM     19  O   UNL     1       5.228   6.589  15.579  0.00  0.00    +0.000 OA
BRANCH  18  20
ATOM     20  O   UNL     1       5.460   4.324  15.284  0.00  0.00    +0.000 OA
BRANCH  20  22
ATOM     21  C   UNL     1       6.213   3.728  13.043  0.00  0.00    +0.000 C 
ATOM     22  C   UNL     1       6.529   4.472  14.331  0.00  0.00    +0.000 C 
ENDBRANCH  20  22
ENDBRANCH  18  20
ENDBRANCH  17  18
BRANCH  17  23
ATOM     23  C   UNL     1       4.359   3.536  17.428  0.00  0.00    +0.000 C 
BRANCH  23  24
ATOM     24  C   UNL     1       2.936   2.974  17.519  0.00  0.00    +0.000 C 
BRANCH  24  25
ATOM     25  C   UNL     1       2.469   2.913  18.953  0.00  0.00    +0.000 A 
ATOM     26  C   UNL     1       1.127   3.162  19.273  0.00  0.00    +0.000 A 
ATOM     27  C   UNL     1       0.698   3.121  20.600  0.00  0.00    +0.000 A 
ATOM     28  C   UNL     1       1.607   2.845  21.620  0.00  0.00    +0.000 A 
ATOM     29  C   UNL     1       2.946   2.608  21.313  0.00  0.00    +0.000 A 
ATOM     30  C   UNL     1       3.376   2.642  19.986  0.00  0.00    +0.000 A 
ENDBRANCH  24  25
ENDBRANCH  23  24
ENDBRANCH  17  23
ENDBRANCH   1  17
TORSDOF 11
ENDMDL
MODEL 7
REMARK VINA RESULT:      -6.5      5.114      8.200
REMARK  Name = 
REMARK  14 active torsions:
REMARK  status: ('A' for Active; 'I' for Inactive)
REMARK    1  A    between atoms: C_1  and  C_2
REMARK    2  A    between atoms: C_2  and  O_3
REMARK    3  A    between atoms: O_3  and  C_4
REMARK    4  A    between atoms: C_4  and  C_6
REMARK    5  A    between atoms: C_6  and  C_7
REMARK    6  A    between atoms: C_6  and  N_15
REMARK    7  A    between atoms: C_7  and  C_8
REMARK    8  A    between atoms: C_8  and  C_9
REMARK    9  A    between atoms: N_15  and  C_16
REMARK   10  A    between atoms: C_16  and  C_17
REMARK   11  A    between atoms: C_16  and  C_18
REMARK   12  A    between atoms: C_22  and  C_23
REMARK   13  A    between atoms: C_25  and  C_26
REMARK   14  A    between atoms: C_26  and  O_28
REMARK                            x       y       z     vdW  Elec       q    Type
REMARK                         _______ _______ _______ _____ _____    ______ ____
ROOT
ATOM      1  N   UNL     1       6.618   6.189  18.661  0.00  0.00    +0.000 NA
ATOM      2  H   UNL     1       6.978   6.905  19.297  0.00  0.00    +0.000 HD
ENDROOT
BRANCH   1   3
ATOM      3  C   UNL     1       5.182   5.920  18.982  0.00  0.00    +0.000 C 
ATOM      4  C   UNL     1       4.301   6.426  17.835  0.00  0.00    +0.000 C 
BRANCH   3   5
ATOM      5  C   UNL     1       4.957   4.375  19.229  0.00  0.00    +0.000 C 
ATOM      6  O   UNL     1       5.833   3.538  19.044  0.00  0.00    +0.000 OA
ATOM      7  N   UNL     1       3.691   3.974  19.676  0.00  0.00    +0.000 N 
ATOM      8  N   UNL     1       2.627   4.849  19.706  0.00  0.00    +0.000 NA
ATOM      9  C   UNL     1       1.646   4.344  20.401  0.00  0.00    +0.000 C 
ATOM     10  C   UNL     1       0.312   4.985  20.521  0.00  0.00    +0.000 C 
ATOM     11  S   UNL     1       1.921   2.824  21.194  0.00  0.00    +0.000 S 
ATOM     12  C   UNL     1       3.392   2.592  20.123  0.00  0.00    +0.000 C 
BRANCH  12  13
ATOM     13  C   UNL     1       2.958   1.639  18.984  0.00  0.00    +0.000 C 
ATOM     14  O   UNL     1       3.737   1.046  18.247  0.00  0.00    +0.000 OA
BRANCH  13  15
ATOM     15  O   UNL     1       1.617   1.443  18.883  0.00  0.00    +0.000 OA
ATOM     16  H   UNL     1       1.133   2.281  18.739  0.00  0.00    +0.000 HD
ENDBRANCH  13  15
ENDBRANCH  12  13
ENDBRANCH   3   5
ENDBRANCH   1   3
BRANCH   1  17
ATOM     17  C   UNL     1       6.882   6.627  17.249  0.00  0.00    +0.000 C 
BRANCH  17  18
ATOM     18  C   UNL     1       7.516   5.476  16.439  0.00  0.00    +0.000 C 
ATOM     19  O   UNL     1       8.046   4.493  16.949  0.00  0.00    +0.000 OA
BRANCH  18  20
ATOM     20  O   UNL     1       7.525   5.749  15.099  0.00  0.00    +0.000 OA
BRANCH  20  22
ATOM     21  C   UNL     1       5.482   4.457  14.786  0.00  0.00    +0.000 C 
ATOM     22  C   UNL     1       6.858   4.806  14.240  0.00  0.00    +0.000 C 
ENDBRANCH  20  22
ENDBRANCH  18  20
ENDBRANCH  17  18
BRANCH  17  23
ATOM     23  C   UNL     1       7.838   7.834  17.199  0.00  0.00    +0.000 C 
BRANCH  23  24
ATOM     24  C   UNL     1       8.435   8.201  18.562  0.00  0.00    +0.000 C 
BRANCH  24  25
ATOM     25  C   UNL     1       8.753   9.675  18.634  0.00  0.00    +0.000 A 
ATOM     26  C   UNL     1       8.292  10.549  17.641  0.00  0.00    +0.000 A 
ATOM     27  C   UNL     1       8.599  11.909  17.698  0.00  0.00    +0.000 A 
ATOM     28  C   UNL     1       9.379  12.406  18.740  0.00  0.00    +0.000 A 
ATOM     29  C   UNL     1       9.852  11.543  19.727  0.00  0.00    +0.000 A 
ATOM     30  C   UNL     1       9.542  10.182  19.675  0.00  0.00    +0.000 A 
ENDBRANCH  24  25
ENDBRANCH  23  24
ENDBRANCH  17  23
ENDBRANCH   1  17
TORSDOF 11
ENDMDL
MODEL 8
REMARK VINA RESULT:      -6.5      3.023      8.012
REMARK  Name = 
REMARK  14 active torsions:
REMARK  status: ('A' for Active; 'I' for Inactive)
REMARK    1  A    between atoms: C_1  and  C_2
REMARK    2  A    between atoms: C_2  and  O_3
REMARK    3  A    between atoms: O_3  and  C_4
REMARK    4  A    between atoms: C_4  and  C_6
REMARK    5  A    between atoms: C_6  and  C_7
REMARK    6  A    between atoms: C_6  and  N_15
REMARK    7  A    between atoms: C_7  and  C_8
REMARK    8  A    between atoms: C_8  and  C_9
REMARK    9  A    between atoms: N_15  and  C_16
REMARK   10  A    between atoms: C_16  and  C_17
REMARK   11  A    between atoms: C_16  and  C_18
REMARK   12  A    between atoms: C_22  and  C_23
REMARK   13  A    between atoms: C_25  and  C_26
REMARK   14  A    between atoms: C_26  and  O_28
REMARK                            x       y       z     vdW  Elec       q    Type
REMARK                         _______ _______ _______ _____ _____    ______ ____
ROOT
ATOM      1  N   UNL     1       3.041   5.738  17.363  0.00  0.00    +0.000 NA
ATOM      2  H   UNL     1       2.389   4.952  17.411  0.00  0.00    +0.000 HD
ENDROOT
BRANCH   1   3
ATOM      3  C   UNL     1       2.800   6.652  18.523  0.00  0.00    +0.000 C 
ATOM      4  C   UNL     1       4.080   6.761  19.359  0.00  0.00    +0.000 C 
BRANCH   3   5
ATOM      5  C   UNL     1       2.335   8.073  18.011  0.00  0.00    +0.000 C 
ATOM      6  O   UNL     1       2.638   8.515  16.909  0.00  0.00    +0.000 OA
ATOM      7  N   UNL     1       1.546   8.841  18.879  0.00  0.00    +0.000 N 
ATOM      8  N   UNL     1       1.349   8.471  20.192  0.00  0.00    +0.000 NA
ATOM      9  C   UNL     1       0.381   9.168  20.717  0.00  0.00    +0.000 C 
ATOM     10  C   UNL     1       0.005   9.096  22.151  0.00  0.00    +0.000 C 
ATOM     11  S   UNL     1      -0.484  10.257  19.676  0.00  0.00    +0.000 S 
ATOM     12  C   UNL     1       0.888  10.104  18.466  0.00  0.00    +0.000 C 
BRANCH  12  13
ATOM     13  C   UNL     1       1.770  11.363  18.643  0.00  0.00    +0.000 C 
ATOM     14  O   UNL     1       1.763  12.074  19.641  0.00  0.00    +0.000 OA
BRANCH  13  15
ATOM     15  O   UNL     1       2.625  11.610  17.617  0.00  0.00    +0.000 OA
ATOM     16  H   UNL     1       2.930  12.539  17.607  0.00  0.00    +0.000 HD
ENDBRANCH  13  15
ENDBRANCH  12  13
ENDBRANCH   3   5
ENDBRANCH   1   3
BRANCH   1  17
ATOM     17  C   UNL     1       4.438   5.195  17.262  0.00  0.00    +0.000 C 
BRANCH  17  18
ATOM     18  C   UNL     1       5.101   5.658  15.946  0.00  0.00    +0.000 C 
ATOM     19  O   UNL     1       5.365   6.830  15.690  0.00  0.00    +0.000 OA
BRANCH  18  20
ATOM     20  O   UNL     1       5.238   4.625  15.061  0.00  0.00    +0.000 OA
BRANCH  20  22
ATOM     21  C   UNL     1       6.304   3.738  13.056  0.00  0.00    +0.000 C 
ATOM     22  C   UNL     1       6.472   4.565  14.321  0.00  0.00    +0.000 C 
ENDBRANCH  20  22
ENDBRANCH  18  20
ENDBRANCH  17  18
BRANCH  17  23
ATOM     23  C   UNL     1       4.452   3.655  17.292  0.00  0.00    +0.000 C 
BRANCH  23  24
ATOM     24  C   UNL     1       4.503   3.069  18.707  0.00  0.00    +0.000 C 
BRANCH  24  25
ATOM     25  C   UNL     1       3.129   3.040  19.330  0.00  0.00    +0.000 A 
ATOM     26  C   UNL     1       2.948   3.425  20.665  0.00  0.00    +0.000 A 
ATOM     27  C   UNL     1       1.680   3.384  21.247  0.00  0.00    +0.000 A 
ATOM     28  C   UNL     1       0.586   2.945  20.506  0.00  0.00    +0.000 A 
ATOM     29  C   UNL     1       0.757   2.548  19.180  0.00  0.00    +0.000 A 
ATOM     30  C   UNL     1       2.023   2.595  18.594  0.00  0.00    +0.000 A 
ENDBRANCH  24  25
ENDBRANCH  23  24
ENDBRANCH  17  23
ENDBRANCH   1  17
TORSDOF 11
ENDMDL
MODEL 9
REMARK VINA RESULT:      -6.5      3.522      6.883
REMARK  Name = 
REMARK  14 active torsions:
REMARK  status: ('A' for Active; 'I' for Inactive)
REMARK    1  A    between atoms: C_1  and  C_2
REMARK    2  A    between atoms: C_2  and  O_3
REMARK    3  A    between atoms: O_3  and  C_4
REMARK    4  A    between atoms: C_4  and  C_6
REMARK    5  A    between atoms: C_6  and  C_7
REMARK    6  A    between atoms: C_6  and  N_15
REMARK    7  A    between atoms: C_7  and  C_8
REMARK    8  A    between atoms: C_8  and  C_9
REMARK    9  A    between atoms: N_15  and  C_16
REMARK   10  A    between atoms: C_16  and  C_17
REMARK   11  A    between atoms: C_16  and  C_18
REMARK   12  A    between atoms: C_22  and  C_23
REMARK   13  A    between atoms: C_25  and  C_26
REMARK   14  A    between atoms: C_26  and  O_28
REMARK                            x       y       z     vdW  Elec       q    Type
REMARK                         _______ _______ _______ _____ _____    ______ ____
ROOT
ATOM      1  N   UNL     1       1.310   9.429  19.962  0.00  0.00    +0.000 NA
ATOM      2  H   UNL     1       1.509   8.721  19.250  0.00  0.00    +0.000 HD
ENDROOT
BRANCH   1   3
ATOM      3  C   UNL     1       0.529  10.545  19.344  0.00  0.00    +0.000 C 
ATOM      4  C   UNL     1       1.497  11.611  18.817  0.00  0.00    +0.000 C 
BRANCH   3   5
ATOM      5  C   UNL     1      -0.390   9.993  18.184  0.00  0.00    +0.000 C 
ATOM      6  O   UNL     1       0.007   9.193  17.344  0.00  0.00    +0.000 OA
ATOM      7  N   UNL     1      -1.712  10.457  18.137  0.00  0.00    +0.000 N 
ATOM      8  N   UNL     1      -2.139  11.498  18.932  0.00  0.00    +0.000 NA
ATOM      9  C   UNL     1      -3.441  11.572  18.919  0.00  0.00    +0.000 C 
ATOM     10  C   UNL     1      -4.206  12.660  19.577  0.00  0.00    +0.000 C 
ATOM     11  S   UNL     1      -4.308  10.340  18.053  0.00  0.00    +0.000 S 
ATOM     12  C   UNL     1      -2.734   9.891  17.224  0.00  0.00    +0.000 C 
BRANCH  12  13
ATOM     13  C   UNL     1      -2.772  10.554  15.826  0.00  0.00    +0.000 C 
ATOM     14  O   UNL     1      -3.358  10.086  14.857  0.00  0.00    +0.000 OA
BRANCH  13  15
ATOM     15  O   UNL     1      -2.145  11.757  15.749  0.00  0.00    +0.000 OA
ATOM     16  H   UNL     1      -2.627  12.455  16.236  0.00  0.00    +0.000 HD
ENDBRANCH  13  15
ENDBRANCH  12  13
ENDBRANCH   3   5
ENDBRANCH   1   3
BRANCH   1  17
ATOM     17  C   UNL     1       0.644   8.758  21.129  0.00  0.00    +0.000 C 
BRANCH  17  18
ATOM     18  C   UNL     1       1.007   9.482  22.444  0.00  0.00    +0.000 C 
ATOM     19  O   UNL     1       2.135   9.492  22.929  0.00  0.00    +0.000 OA
BRANCH  18  20
ATOM     20  O   UNL     1      -0.101   9.997  23.057  0.00  0.00    +0.000 OA
BRANCH  20  22
ATOM     21  C   UNL     1      -1.903  11.629  23.247  0.00  0.00    +0.000 C 
ATOM     22  C   UNL     1      -0.662  11.193  22.484  0.00  0.00    +0.000 C 
ENDBRANCH  20  22
ENDBRANCH  18  20
ENDBRANCH  17  18
BRANCH  17  23
ATOM     23  C   UNL     1       1.074   7.284  21.258  0.00  0.00    +0.000 C 
BRANCH  23  24
ATOM     24  C   UNL     1       2.109   6.853  20.213  0.00  0.00    +0.000 C 
BRANCH  24  25
ATOM     25  C   UNL     1       1.798   5.476  19.679  0.00  0.00    +0.000 A 
ATOM     26  C   UNL     1       1.208   4.512  20.506  0.00  0.00    +0.000 A 
ATOM     27  C   UNL     1       0.934   3.234  20.017  0.00  0.00    +0.000 A 
ATOM     28  C   UNL     1       1.259   2.904  18.703  0.00  0.00    +0.000 A 
ATOM     29  C   UNL     1       1.857   3.853  17.875  0.00  0.00    +0.000 A 
ATOM     30  C   UNL     1       2.126   5.134  18.360  0.00  0.00    +0.000 A 
ENDBRANCH  24  25
ENDBRANCH  23  24
ENDBRANCH  17  23
ENDBRANCH   1  17
TORSDOF 11
ENDMDL
