MODEL 1
REMARK VINA RESULT:      -5.9      0.000      0.000
REMARK  Name = 
REMARK  20 active torsions:
REMARK  status: ('A' for Active; 'I' for Inactive)
REMARK    1  A    between atoms: C_1  and  C_2
REMARK    2  A    between atoms: C_2  and  C_3
REMARK    3  A    between atoms: C_3  and  C_4
REMARK    4  A    between atoms: C_4  and  C_5
REMARK    5  A    between atoms: C_5  and  C_6
REMARK    6  A    between atoms: C_6  and  C_7
REMARK    7  A    between atoms: C_7  and  O_8
REMARK    8  A    between atoms: O_8  and  C_9
REMARK    9  A    between atoms: C_9  and  C_11
REMARK   10  A    between atoms: C_11  and  C_12
REMARK   11  A    between atoms: C_12  and  C_13
REMARK   12  A    between atoms: C_13  and  C_14
REMARK   13  A    between atoms: C_14  and  C_15
REMARK   14  A    between atoms: C_15  and  C_16
REMARK   15  A    between atoms: C_16  and  C_17
REMARK   16  A    between atoms: C_17  and  O_18
REMARK   17  A    between atoms: O_18  and  C_19
REMARK   18  A    between atoms: C_19  and  C_20
REMARK   19  A    between atoms: C_19  and  C_26
REMARK   20  A    between atoms: C_20  and  N_21
REMARK                            x       y       z     vdW  Elec       q    Type
REMARK                         _______ _______ _______ _____ _____    ______ ____
ROOT
ATOM      1  C   UNL     1       1.404   9.058  17.707  0.00  0.00    +0.000 C 
ENDROOT
BRANCH   1   2
ATOM      2  O   UNL     1       1.030   9.797  18.866  0.00  0.00    +0.000 OA
BRANCH   2   3
ATOM      3  C   UNL     1      -0.171  10.584  18.691  0.00  0.00    +0.000 C 
BRANCH   3   4
ATOM      4  C   UNL     1      -0.459  11.398  19.957  0.00  0.00    +0.000 A 
ATOM      5  C   UNL     1      -0.753  12.774  19.860  0.00  0.00    +0.000 A 
ATOM      6  C   UNL     1      -1.005  13.548  20.998  0.00  0.00    +0.000 A 
ATOM      7  C   UNL     1      -0.946  12.965  22.258  0.00  0.00    +0.000 A 
ATOM      8 CL   UNL     1      -1.221  13.920  23.662  0.00  0.00    +0.000 Cl
ATOM      9  C   UNL     1      -0.685  11.607  22.388  0.00  0.00    +0.000 A 
ATOM     10  C   UNL     1      -0.476  10.824  21.246  0.00  0.00    +0.000 A 
ATOM     11 CL   UNL     1      -0.305   9.125  21.505  0.00  0.00    +0.000 Cl
ENDBRANCH   3   4
BRANCH   3  12
ATOM     12  C   UNL     1      -1.352   9.708  18.202  0.00  0.00    +0.000 C 
BRANCH  12  13
ATOM     13  N   UNL     1      -2.395  10.397  17.471  0.00  0.00    +0.000 N 
ATOM     14  C   UNL     1      -2.471  10.517  16.112  0.00  0.00    +0.000 A 
ATOM     15  C   UNL     1      -3.716  11.045  15.864  0.00  0.00    +0.000 A 
ATOM     16  N   UNL     1      -4.393  11.248  17.037  0.00  0.00    +0.000 NA
ATOM     17  C   UNL     1      -3.575  10.849  17.985  0.00  0.00    +0.000 A 
ENDBRANCH  12  13
ENDBRANCH   3  12
ENDBRANCH   2   3
ENDBRANCH   1   2
BRANCH   1  18
ATOM     18  C   UNL     1       2.889   8.750  17.734  0.00  0.00    +0.000 C 
BRANCH  18  19
ATOM     19  C   UNL     1       3.071   7.237  17.810  0.00  0.00    +0.000 C 
BRANCH  19  20
ATOM     20  C   UNL     1       2.921   6.728  19.233  0.00  0.00    +0.000 C 
BRANCH  20  21
ATOM     21  C   UNL     1       1.738   5.766  19.344  0.00  0.00    +0.000 C 
BRANCH  21  22
ATOM     22  C   UNL     1       1.477   5.333  20.785  0.00  0.00    +0.000 C 
BRANCH  22  23
ATOM     23  C   UNL     1       2.348   4.148  21.185  0.00  0.00    +0.000 C 
BRANCH  23  24
ATOM     24  C   UNL     1       1.579   2.861  21.254  0.00  0.00    +0.000 C 
ATOM     25  O   UNL     1       1.336   2.215  22.262  0.00  0.00    +0.000 OA
BRANCH  24  26
ATOM     26  O   UNL     1       1.316   2.467  19.977  0.00  0.00    +0.000 OA
BRANCH  26  27
ATOM     27  C   UNL     1       2.477   2.038  19.274  0.00  0.00    +0.000 C 
BRANCH  27  28
ATOM     28  C   UNL     1       2.455   2.481  17.824  0.00  0.00    +0.000 C 
BRANCH  28  29
ATOM     29  C   UNL     1       3.688   3.342  17.567  0.00  0.00    +0.000 C 
BRANCH  29  30
ATOM     30  C   UNL     1       4.674   3.307  18.725  0.00  0.00    +0.000 C 
BRANCH  30  31
ATOM     31  C   UNL     1       5.633   4.493  18.637  0.00  0.00    +0.000 C 
BRANCH  31  33
ATOM     32  C   UNL     1       6.614   6.167  17.040  0.00  0.00    +0.000 C 
ATOM     33  C   UNL     1       6.049   4.765  17.196  0.00  0.00    +0.000 C 
ENDBRANCH  31  33
ENDBRANCH  30  31
ENDBRANCH  29  30
ENDBRANCH  28  29
ENDBRANCH  27  28
ENDBRANCH  26  27
ENDBRANCH  24  26
ENDBRANCH  23  24
ENDBRANCH  22  23
ENDBRANCH  21  22
ENDBRANCH  20  21
ENDBRANCH  19  20
ENDBRANCH  18  19
ENDBRANCH   1  18
TORSDOF 19
ENDMDL
MODEL 2
REMARK VINA RESULT:      -5.9      1.111      1.439
REMARK  Name = 
REMARK  20 active torsions:
REMARK  status: ('A' for Active; 'I' for Inactive)
REMARK    1  A    between atoms: C_1  and  C_2
REMARK    2  A    between atoms: C_2  and  C_3
REMARK    3  A    between atoms: C_3  and  C_4
REMARK    4  A    between atoms: C_4  and  C_5
REMARK    5  A    between atoms: C_5  and  C_6
REMARK    6  A    between atoms: C_6  and  C_7
REMARK    7  A    between atoms: C_7  and  O_8
REMARK    8  A    between atoms: O_8  and  C_9
REMARK    9  A    between atoms: C_9  and  C_11
REMARK   10  A    between atoms: C_11  and  C_12
REMARK   11  A    between atoms: C_12  and  C_13
REMARK   12  A    between atoms: C_13  and  C_14
REMARK   13  A    between atoms: C_14  and  C_15
REMARK   14  A    between atoms: C_15  and  C_16
REMARK   15  A    between atoms: C_16  and  C_17
REMARK   16  A    between atoms: C_17  and  O_18
REMARK   17  A    between atoms: O_18  and  C_19
REMARK   18  A    between atoms: C_19  and  C_20
REMARK   19  A    between atoms: C_19  and  C_26
REMARK   20  A    between atoms: C_20  and  N_21
REMARK                            x       y       z     vdW  Elec       q    Type
REMARK                         _______ _______ _______ _____ _____    ______ ____
ROOT
ATOM      1  C   UNL     1       1.530   9.718  17.768  0.00  0.00    +0.000 C 
ENDROOT
BRANCH   1   2
ATOM      2  O   UNL     1       1.012  10.182  19.010  0.00  0.00    +0.000 OA
BRANCH   2   3
ATOM      3  C   UNL     1      -0.238  10.901  18.887  0.00  0.00    +0.000 C 
BRANCH   3   4
ATOM      4  C   UNL     1      -0.538  11.666  20.180  0.00  0.00    +0.000 A 
ATOM      5  C   UNL     1      -0.865  13.037  20.130  0.00  0.00    +0.000 A 
ATOM      6  C   UNL     1      -1.128  13.767  21.294  0.00  0.00    +0.000 A 
ATOM      7  C   UNL     1      -1.050  13.144  22.533  0.00  0.00    +0.000 A 
ATOM      8 CL   UNL     1      -1.340  14.046  23.969  0.00  0.00    +0.000 Cl
ATOM      9  C   UNL     1      -0.757  11.789  22.618  0.00  0.00    +0.000 A 
ATOM     10  C   UNL     1      -0.536  11.050  21.449  0.00  0.00    +0.000 A 
ATOM     11 CL   UNL     1      -0.324   9.347  21.651  0.00  0.00    +0.000 Cl
ENDBRANCH   3   4
BRANCH   3  12
ATOM     12  C   UNL     1      -1.378   9.968  18.407  0.00  0.00    +0.000 C 
BRANCH  12  13
ATOM     13  N   UNL     1      -2.304  10.536  17.448  0.00  0.00    +0.000 N 
ATOM     14  C   UNL     1      -2.352  10.242  16.115  0.00  0.00    +0.000 A 
ATOM     15  C   UNL     1      -3.504  10.835  15.655  0.00  0.00    +0.000 A 
ATOM     16  N   UNL     1      -4.152  11.480  16.675  0.00  0.00    +0.000 NA
ATOM     17  C   UNL     1      -3.408  11.283  17.739  0.00  0.00    +0.000 A 
ENDBRANCH  12  13
ENDBRANCH   3  12
ENDBRANCH   2   3
ENDBRANCH   1   2
BRANCH   1  18
ATOM     18  C   UNL     1       2.555   8.625  17.999  0.00  0.00    +0.000 C 
BRANCH  18  19
ATOM     19  C   UNL     1       1.842   7.401  18.565  0.00  0.00    +0.000 C 
BRANCH  19  20
ATOM     20  C   UNL     1       2.492   6.921  19.852  0.00  0.00    +0.000 C 
BRANCH  20  21
ATOM     21  C   UNL     1       1.614   5.881  20.549  0.00  0.00    +0.000 C 
BRANCH  21  22
ATOM     22  C   UNL     1       2.232   4.485  20.513  0.00  0.00    +0.000 C 
BRANCH  22  23
ATOM     23  C   UNL     1       1.173   3.405  20.328  0.00  0.00    +0.000 C 
BRANCH  23  24
ATOM     24  C   UNL     1       0.924   3.078  18.884  0.00  0.00    +0.000 C 
ATOM     25  O   UNL     1       0.344   2.093  18.454  0.00  0.00    +0.000 OA
BRANCH  24  26
ATOM     26  O   UNL     1       1.580   4.004  18.131  0.00  0.00    +0.000 OA
BRANCH  26  27
ATOM     27  C   UNL     1       2.732   3.481  17.480  0.00  0.00    +0.000 C 
BRANCH  27  28
ATOM     28  C   UNL     1       3.697   4.578  17.072  0.00  0.00    +0.000 C 
BRANCH  28  29
ATOM     29  C   UNL     1       5.118   4.036  17.198  0.00  0.00    +0.000 C 
BRANCH  29  30
ATOM     30  C   UNL     1       5.835   4.561  18.432  0.00  0.00    +0.000 C 
BRANCH  30  31
ATOM     31  C   UNL     1       7.294   4.872  18.101  0.00  0.00    +0.000 C 
BRANCH  31  33
ATOM     32  C   UNL     1       7.473   7.313  17.533  0.00  0.00    +0.000 C 
ATOM     33  C   UNL     1       7.694   6.256  18.601  0.00  0.00    +0.000 C 
ENDBRANCH  31  33
ENDBRANCH  30  31
ENDBRANCH  29  30
ENDBRANCH  28  29
ENDBRANCH  27  28
ENDBRANCH  26  27
ENDBRANCH  24  26
ENDBRANCH  23  24
ENDBRANCH  22  23
ENDBRANCH  21  22
ENDBRANCH  20  21
ENDBRANCH  19  20
ENDBRANCH  18  19
ENDBRANCH   1  18
TORSDOF 19
ENDMDL
MODEL 3
REMARK VINA RESULT:      -5.8      3.987      9.284
REMARK  Name = 
REMARK  20 active torsions:
REMARK  status: ('A' for Active; 'I' for Inactive)
REMARK    1  A    between atoms: C_1  and  C_2
REMARK    2  A    between atoms: C_2  and  C_3
REMARK    3  A    between atoms: C_3  and  C_4
REMARK    4  A    between atoms: C_4  and  C_5
REMARK    5  A    between atoms: C_5  and  C_6
REMARK    6  A    between atoms: C_6  and  C_7
REMARK    7  A    between atoms: C_7  and  O_8
REMARK    8  A    between atoms: O_8  and  C_9
REMARK    9  A    between atoms: C_9  and  C_11
REMARK   10  A    between atoms: C_11  and  C_12
REMARK   11  A    between atoms: C_12  and  C_13
REMARK   12  A    between atoms: C_13  and  C_14
REMARK   13  A    between atoms: C_14  and  C_15
REMARK   14  A    between atoms: C_15  and  C_16
REMARK   15  A    between atoms: C_16  and  C_17
REMARK   16  A    between atoms: C_17  and  O_18
REMARK   17  A    between atoms: O_18  and  C_19
REMARK   18  A    between atoms: C_19  and  C_20
REMARK   19  A    between atoms: C_19  and  C_26
REMARK   20  A    between atoms: C_20  and  N_21
REMARK                            x       y       z     vdW  Elec       q    Type
REMARK                         _______ _______ _______ _____ _____    ______ ____
ROOT
ATOM      1  C   UNL     1       2.008   8.113  19.334  0.00  0.00    +0.000 C 
ENDROOT
BRANCH   1   2
ATOM      2  O   UNL     1       2.945   7.608  18.388  0.00  0.00    +0.000 OA
BRANCH   2   3
ATOM      3  C   UNL     1       3.227   6.198  18.545  0.00  0.00    +0.000 C 
BRANCH   3   4
ATOM      4  C   UNL     1       4.241   5.740  17.492  0.00  0.00    +0.000 A 
ATOM      5  C   UNL     1       4.507   6.550  16.368  0.00  0.00    +0.000 A 
ATOM      6  C   UNL     1       5.416   6.153  15.381  0.00  0.00    +0.000 A 
ATOM      7  C   UNL     1       6.062   4.928  15.489  0.00  0.00    +0.000 A 
ATOM      8 CL   UNL     1       7.155   4.420  14.261  0.00  0.00    +0.000 Cl
ATOM      9  C   UNL     1       5.843   4.117  16.595  0.00  0.00    +0.000 A 
ATOM     10  C   UNL     1       4.966   4.535  17.604  0.00  0.00    +0.000 A 
ATOM     11 CL   UNL     1       4.875   3.527  19.003  0.00  0.00    +0.000 Cl
ENDBRANCH   3   4
BRANCH   3  12
ATOM     12  C   UNL     1       1.921   5.364  18.592  0.00  0.00    +0.000 C 
BRANCH  12  13
ATOM     13  N   UNL     1       1.779   4.467  19.719  0.00  0.00    +0.000 N 
ATOM     14  C   UNL     1       1.388   3.159  19.654  0.00  0.00    +0.000 A 
ATOM     15  C   UNL     1       1.606   2.653  20.914  0.00  0.00    +0.000 A 
ATOM     16  N   UNL     1       2.118   3.621  21.738  0.00  0.00    +0.000 NA
ATOM     17  C   UNL     1       2.210   4.699  20.993  0.00  0.00    +0.000 A 
ENDBRANCH  12  13
ENDBRANCH   3  12
ENDBRANCH   2   3
ENDBRANCH   1   2
BRANCH   1  18
ATOM     18  C   UNL     1       1.260   9.298  18.754  0.00  0.00    +0.000 C 
BRANCH  18  19
ATOM     19  C   UNL     1       0.274   9.809  19.800  0.00  0.00    +0.000 C 
BRANCH  19  20
ATOM     20  C   UNL     1       0.761   9.531  21.211  0.00  0.00    +0.000 C 
BRANCH  20  21
ATOM     21  C   UNL     1      -0.405   9.152  22.124  0.00  0.00    +0.000 C 
BRANCH  21  22
ATOM     22  C   UNL     1      -0.514  10.072  23.338  0.00  0.00    +0.000 C 
BRANCH  22  23
ATOM     23  C   UNL     1      -1.592  11.132  23.148  0.00  0.00    +0.000 C 
BRANCH  23  24
ATOM     24  C   UNL     1      -1.037  12.448  22.687  0.00  0.00    +0.000 C 
ATOM     25  O   UNL     1      -0.435  13.260  23.372  0.00  0.00    +0.000 OA
BRANCH  24  26
ATOM     26  O   UNL     1      -1.442  12.640  21.401  0.00  0.00    +0.000 OA
BRANCH  26  27
ATOM     27  C   UNL     1      -2.836  12.904  21.288  0.00  0.00    +0.000 C 
BRANCH  27  28
ATOM     28  C   UNL     1      -3.352  12.628  19.888  0.00  0.00    +0.000 C 
BRANCH  28  29
ATOM     29  C   UNL     1      -2.451  11.579  19.245  0.00  0.00    +0.000 C 
BRANCH  29  30
ATOM     30  C   UNL     1      -1.827  12.065  17.945  0.00  0.00    +0.000 C 
BRANCH  30  31
ATOM     31  C   UNL     1      -2.630  11.551  16.751  0.00  0.00    +0.000 C 
BRANCH  31  33
ATOM     32  C   UNL     1      -2.875   9.596  15.191  0.00  0.00    +0.000 C 
ATOM     33  C   UNL     1      -2.482  10.043  16.589  0.00  0.00    +0.000 C 
ENDBRANCH  31  33
ENDBRANCH  30  31
ENDBRANCH  29  30
ENDBRANCH  28  29
ENDBRANCH  27  28
ENDBRANCH  26  27
ENDBRANCH  24  26
ENDBRANCH  23  24
ENDBRANCH  22  23
ENDBRANCH  21  22
ENDBRANCH  20  21
ENDBRANCH  19  20
ENDBRANCH  18  19
ENDBRANCH   1  18
TORSDOF 19
ENDMDL
MODEL 4
REMARK VINA RESULT:      -5.8      4.318     10.127
REMARK  Name = 
REMARK  20 active torsions:
REMARK  status: ('A' for Active; 'I' for Inactive)
REMARK    1  A    between atoms: C_1  and  C_2
REMARK    2  A    between atoms: C_2  and  C_3
REMARK    3  A    between atoms: C_3  and  C_4
REMARK    4  A    between atoms: C_4  and  C_5
REMARK    5  A    between atoms: C_5  and  C_6
REMARK    6  A    between atoms: C_6  and  C_7
REMARK    7  A    between atoms: C_7  and  O_8
REMARK    8  A    between atoms: O_8  and  C_9
REMARK    9  A    between atoms: C_9  and  C_11
REMARK   10  A    between atoms: C_11  and  C_12
REMARK   11  A    between atoms: C_12  and  C_13
REMARK   12  A    between atoms: C_13  and  C_14
REMARK   13  A    between atoms: C_14  and  C_15
REMARK   14  A    between atoms: C_15  and  C_16
REMARK   15  A    between atoms: C_16  and  C_17
REMARK   16  A    between atoms: C_17  and  O_18
REMARK   17  A    between atoms: O_18  and  C_19
REMARK   18  A    between atoms: C_19  and  C_20
REMARK   19  A    between atoms: C_19  and  C_26
REMARK   20  A    between atoms: C_20  and  N_21
REMARK                            x       y       z     vdW  Elec       q    Type
REMARK                         _______ _______ _______ _____ _____    ______ ____
ROOT
ATOM      1  C   UNL     1       2.607   6.207  18.575  0.00  0.00    +0.000 C 
ENDROOT
BRANCH   1   2
ATOM      2  O   UNL     1       3.994   5.928  18.737  0.00  0.00    +0.000 OA
BRANCH   2   3
ATOM      3  C   UNL     1       4.379   4.609  18.282  0.00  0.00    +0.000 C 
BRANCH   3   4
ATOM      4  C   UNL     1       5.211   4.714  17.000  0.00  0.00    +0.000 A 
ATOM      5  C   UNL     1       4.624   4.427  15.751  0.00  0.00    +0.000 A 
ATOM      6  C   UNL     1       5.362   4.498  14.564  0.00  0.00    +0.000 A 
ATOM      7  C   UNL     1       6.709   4.837  14.607  0.00  0.00    +0.000 A 
ATOM      8 CL   UNL     1       7.628   4.892  13.154  0.00  0.00    +0.000 Cl
ATOM      9  C   UNL     1       7.313   5.151  15.817  0.00  0.00    +0.000 A 
ATOM     10  C   UNL     1       6.562   5.122  16.999  0.00  0.00    +0.000 A 
ATOM     11 CL   UNL     1       7.365   5.669  18.427  0.00  0.00    +0.000 Cl
ENDBRANCH   3   4
BRANCH   3  12
ATOM     12  C   UNL     1       3.152   3.668  18.183  0.00  0.00    +0.000 C 
BRANCH  12  13
ATOM     13  N   UNL     1       2.625   3.175  19.438  0.00  0.00    +0.000 N 
ATOM     14  C   UNL     1       3.345   2.967  20.580  0.00  0.00    +0.000 A 
ATOM     15  C   UNL     1       2.411   2.714  21.557  0.00  0.00    +0.000 A 
ATOM     16  N   UNL     1       1.146   2.761  21.034  0.00  0.00    +0.000 NA
ATOM     17  C   UNL     1       1.306   3.040  19.760  0.00  0.00    +0.000 A 
ENDBRANCH  12  13
ENDBRANCH   3  12
ENDBRANCH   2   3
ENDBRANCH   1   2
BRANCH   1  18
ATOM     18  C   UNL     1       2.298   7.622  19.023  0.00  0.00    +0.000 C 
BRANCH  18  19
ATOM     19  C   UNL     1       2.287   8.530  17.796  0.00  0.00    +0.000 C 
BRANCH  19  20
ATOM     20  C   UNL     1       1.789   9.923  18.138  0.00  0.00    +0.000 C 
BRANCH  20  21
ATOM     21  C   UNL     1       0.536   9.853  19.011  0.00  0.00    +0.000 C 
BRANCH  21  22
ATOM     22  C   UNL     1       0.816  10.254  20.458  0.00  0.00    +0.000 C 
BRANCH  22  23
ATOM     23  C   UNL     1      -0.383   9.986  21.360  0.00  0.00    +0.000 C 
BRANCH  23  24
ATOM     24  C   UNL     1      -0.127  10.361  22.791  0.00  0.00    +0.000 C 
ATOM     25  O   UNL     1       0.284   9.621  23.671  0.00  0.00    +0.000 OA
BRANCH  24  26
ATOM     26  O   UNL     1      -0.565  11.638  22.968  0.00  0.00    +0.000 OA
BRANCH  26  27
ATOM     27  C   UNL     1      -1.905  11.835  22.533  0.00  0.00    +0.000 C 
BRANCH  27  28
ATOM     28  C   UNL     1      -2.076  13.160  21.814  0.00  0.00    +0.000 C 
BRANCH  28  29
ATOM     29  C   UNL     1      -2.917  12.921  20.564  0.00  0.00    +0.000 C 
BRANCH  29  30
ATOM     30  C   UNL     1      -4.410  12.945  20.853  0.00  0.00    +0.000 C 
BRANCH  30  31
ATOM     31  C   UNL     1      -5.183  12.327  19.688  0.00  0.00    +0.000 C 
BRANCH  31  33
ATOM     32  C   UNL     1      -6.980  12.247  21.442  0.00  0.00    +0.000 C 
ATOM     33  C   UNL     1      -6.439  11.613  20.172  0.00  0.00    +0.000 C 
ENDBRANCH  31  33
ENDBRANCH  30  31
ENDBRANCH  29  30
ENDBRANCH  28  29
ENDBRANCH  27  28
ENDBRANCH  26  27
ENDBRANCH  24  26
ENDBRANCH  23  24
ENDBRANCH  22  23
ENDBRANCH  21  22
ENDBRANCH  20  21
ENDBRANCH  19  20
ENDBRANCH  18  19
ENDBRANCH   1  18
TORSDOF 19
ENDMDL
MODEL 5
REMARK VINA RESULT:      -5.7      4.387     10.045
REMARK  Name = 
REMARK  20 active torsions:
REMARK  status: ('A' for Active; 'I' for Inactive)
REMARK    1  A    between atoms: C_1  and  C_2
REMARK    2  A    between atoms: C_2  and  C_3
REMARK    3  A    between atoms: C_3  and  C_4
REMARK    4  A    between atoms: C_4  and  C_5
REMARK    5  A    between atoms: C_5  and  C_6
REMARK    6  A    between atoms: C_6  and  C_7
REMARK    7  A    between atoms: C_7  and  O_8
REMARK    8  A    between atoms: O_8  and  C_9
REMARK    9  A    between atoms: C_9  and  C_11
REMARK   10  A    between atoms: C_11  and  C_12
REMARK   11  A    between atoms: C_12  and  C_13
REMARK   12  A    between atoms: C_13  and  C_14
REMARK   13  A    between atoms: C_14  and  C_15
REMARK   14  A    between atoms: C_15  and  C_16
REMARK   15  A    between atoms: C_16  and  C_17
REMARK   16  A    between atoms: C_17  and  O_18
REMARK   17  A    between atoms: O_18  and  C_19
REMARK   18  A    between atoms: C_19  and  C_20
REMARK   19  A    between atoms: C_19  and  C_26
REMARK   20  A    between atoms: C_20  and  N_21
REMARK                            x       y       z     vdW  Elec       q    Type
REMARK                         _______ _______ _______ _____ _____    ______ ____
ROOT
ATOM      1  C   UNL     1       4.358   6.487  18.249  0.00  0.00    +0.000 C 
ENDROOT
BRANCH   1   2
ATOM      2  O   UNL     1       4.609   5.442  19.182  0.00  0.00    +0.000 OA
BRANCH   2   3
ATOM      3  C   UNL     1       4.911   4.170  18.563  0.00  0.00    +0.000 C 
BRANCH   3   4
ATOM      4  C   UNL     1       5.597   4.389  17.210  0.00  0.00    +0.000 A 
ATOM      5  C   UNL     1       4.884   4.173  16.013  0.00  0.00    +0.000 A 
ATOM      6  C   UNL     1       5.487   4.349  14.763  0.00  0.00    +0.000 A 
ATOM      7  C   UNL     1       6.822   4.725  14.686  0.00  0.00    +0.000 A 
ATOM      8 CL   UNL     1       7.577   4.910  13.151  0.00  0.00    +0.000 Cl
ATOM      9  C   UNL     1       7.547   4.971  15.845  0.00  0.00    +0.000 A 
ATOM     10  C   UNL     1       6.930   4.837  17.095  0.00  0.00    +0.000 A 
ATOM     11 CL   UNL     1       7.871   5.307  18.465  0.00  0.00    +0.000 Cl
ENDBRANCH   3   4
BRANCH   3  12
ATOM     12  C   UNL     1       3.661   3.256  18.514  0.00  0.00    +0.000 C 
BRANCH  12  13
ATOM     13  N   UNL     1       2.887   3.171  19.735  0.00  0.00    +0.000 N 
ATOM     14  C   UNL     1       1.539   3.369  19.841  0.00  0.00    +0.000 A 
ATOM     15  C   UNL     1       1.214   2.975  21.118  0.00  0.00    +0.000 A 
ATOM     16  N   UNL     1       2.330   2.546  21.786  0.00  0.00    +0.000 NA
ATOM     17  C   UNL     1       3.319   2.675  20.931  0.00  0.00    +0.000 A 
ENDBRANCH  12  13
ENDBRANCH   3  12
ENDBRANCH   2   3
ENDBRANCH   1   2
BRANCH   1  18
ATOM     18  C   UNL     1       2.869   6.748  18.136  0.00  0.00    +0.000 C 
BRANCH  18  19
ATOM     19  C   UNL     1       2.656   8.223  17.809  0.00  0.00    +0.000 C 
BRANCH  19  20
ATOM     20  C   UNL     1       1.696   8.879  18.785  0.00  0.00    +0.000 C 
BRANCH  20  21
ATOM     21  C   UNL     1       1.012  10.087  18.145  0.00  0.00    +0.000 C 
BRANCH  21  22
ATOM     22  C   UNL     1       0.546  11.106  19.184  0.00  0.00    +0.000 C 
BRANCH  22  23
ATOM     23  C   UNL     1      -0.520  12.038  18.621  0.00  0.00    +0.000 C 
BRANCH  23  24
ATOM     24  C   UNL     1      -0.134  13.486  18.718  0.00  0.00    +0.000 C 
ATOM     25  O   UNL     1       0.839  14.012  18.201  0.00  0.00    +0.000 OA
BRANCH  24  26
ATOM     26  O   UNL     1      -0.984  14.082  19.599  0.00  0.00    +0.000 OA
BRANCH  26  27
ATOM     27  C   UNL     1      -0.453  14.169  20.917  0.00  0.00    +0.000 C 
BRANCH  27  28
ATOM     28  C   UNL     1      -1.523  13.961  21.972  0.00  0.00    +0.000 C 
BRANCH  28  29
ATOM     29  C   UNL     1      -1.003  12.950  22.988  0.00  0.00    +0.000 C 
BRANCH  29  30
ATOM     30  C   UNL     1      -0.601  11.631  22.345  0.00  0.00    +0.000 C 
BRANCH  30  31
ATOM     31  C   UNL     1      -1.157  10.459  23.152  0.00  0.00    +0.000 C 
BRANCH  31  33
ATOM     32  C   UNL     1       1.024   9.505  22.347  0.00  0.00    +0.000 C 
ATOM     33  C   UNL     1      -0.104   9.376  23.357  0.00  0.00    +0.000 C 
ENDBRANCH  31  33
ENDBRANCH  30  31
ENDBRANCH  29  30
ENDBRANCH  28  29
ENDBRANCH  27  28
ENDBRANCH  26  27
ENDBRANCH  24  26
ENDBRANCH  23  24
ENDBRANCH  22  23
ENDBRANCH  21  22
ENDBRANCH  20  21
ENDBRANCH  19  20
ENDBRANCH  18  19
ENDBRANCH   1  18
TORSDOF 19
ENDMDL
MODEL 6
REMARK VINA RESULT:      -5.7      2.341      3.927
REMARK  Name = 
REMARK  20 active torsions:
REMARK  status: ('A' for Active; 'I' for Inactive)
REMARK    1  A    between atoms: C_1  and  C_2
REMARK    2  A    between atoms: C_2  and  C_3
REMARK    3  A    between atoms: C_3  and  C_4
REMARK    4  A    between atoms: C_4  and  C_5
REMARK    5  A    between atoms: C_5  and  C_6
REMARK    6  A    between atoms: C_6  and  C_7
REMARK    7  A    between atoms: C_7  and  O_8
REMARK    8  A    between atoms: O_8  and  C_9
REMARK    9  A    between atoms: C_9  and  C_11
REMARK   10  A    between atoms: C_11  and  C_12
REMARK   11  A    between atoms: C_12  and  C_13
REMARK   12  A    between atoms: C_13  and  C_14
REMARK   13  A    between atoms: C_14  and  C_15
REMARK   14  A    between atoms: C_15  and  C_16
REMARK   15  A    between atoms: C_16  and  C_17
REMARK   16  A    between atoms: C_17  and  O_18
REMARK   17  A    between atoms: O_18  and  C_19
REMARK   18  A    between atoms: C_19  and  C_20
REMARK   19  A    between atoms: C_19  and  C_26
REMARK   20  A    between atoms: C_20  and  N_21
REMARK                            x       y       z     vdW  Elec       q    Type
REMARK                         _______ _______ _______ _____ _____    ______ ____
ROOT
ATOM      1  C   UNL     1       2.458   7.901  18.607  0.00  0.00    +0.000 C 
ENDROOT
BRANCH   1   2
ATOM      2  O   UNL     1       1.473   8.708  17.969  0.00  0.00    +0.000 OA
BRANCH   2   3
ATOM      3  C   UNL     1       1.156   9.919  18.692  0.00  0.00    +0.000 C 
BRANCH   3   4
ATOM      4  C   UNL     1      -0.327  10.265  18.521  0.00  0.00    +0.000 A 
ATOM      5  C   UNL     1      -0.987   9.968  17.311  0.00  0.00    +0.000 A 
ATOM      6  C   UNL     1      -2.336  10.286  17.117  0.00  0.00    +0.000 A 
ATOM      7  C   UNL     1      -3.046  10.926  18.125  0.00  0.00    +0.000 A 
ATOM      8 CL   UNL     1      -4.695  11.349  17.879  0.00  0.00    +0.000 Cl
ATOM      9  C   UNL     1      -2.435  11.210  19.339  0.00  0.00    +0.000 A 
ATOM     10  C   UNL     1      -1.097  10.853  19.547  0.00  0.00    +0.000 A 
ATOM     11 CL   UNL     1      -0.474  11.116  21.136  0.00  0.00    +0.000 Cl
ENDBRANCH   3   4
BRANCH   3  12
ATOM     12  C   UNL     1       2.134  11.065  18.330  0.00  0.00    +0.000 C 
BRANCH  12  13
ATOM     13  N   UNL     1       1.830  12.364  18.892  0.00  0.00    +0.000 N 
ATOM     14  C   UNL     1       2.324  12.861  20.065  0.00  0.00    +0.000 A 
ATOM     15  C   UNL     1       1.947  14.184  20.085  0.00  0.00    +0.000 A 
ATOM     16  N   UNL     1       1.238  14.498  18.955  0.00  0.00    +0.000 NA
ATOM     17  C   UNL     1       1.184  13.385  18.259  0.00  0.00    +0.000 A 
ENDBRANCH  12  13
ENDBRANCH   3  12
ENDBRANCH   2   3
ENDBRANCH   1   2
BRANCH   1  18
ATOM     18  C   UNL     1       1.941   7.394  19.939  0.00  0.00    +0.000 C 
BRANCH  18  19
ATOM     19  C   UNL     1       1.635   5.905  19.807  0.00  0.00    +0.000 C 
BRANCH  19  20
ATOM     20  C   UNL     1       2.253   5.106  20.941  0.00  0.00    +0.000 C 
BRANCH  20  21
ATOM     21  C   UNL     1       1.497   3.794  21.156  0.00  0.00    +0.000 C 
BRANCH  21  22
ATOM     22  C   UNL     1       0.851   3.281  19.871  0.00  0.00    +0.000 C 
BRANCH  22  23
ATOM     23  C   UNL     1       1.716   2.230  19.186  0.00  0.00    +0.000 C 
BRANCH  23  24
ATOM     24  C   UNL     1       2.400   2.755  17.957  0.00  0.00    +0.000 C 
ATOM     25  O   UNL     1       1.873   3.356  17.035  0.00  0.00    +0.000 OA
BRANCH  24  26
ATOM     26  O   UNL     1       3.692   2.323  17.987  0.00  0.00    +0.000 OA
BRANCH  26  27
ATOM     27  C   UNL     1       4.445   2.886  19.055  0.00  0.00    +0.000 C 
BRANCH  27  28
ATOM     28  C   UNL     1       4.963   4.270  18.713  0.00  0.00    +0.000 C 
BRANCH  28  29
ATOM     29  C   UNL     1       5.470   4.249  17.274  0.00  0.00    +0.000 C 
BRANCH  29  30
ATOM     30  C   UNL     1       6.949   4.592  17.172  0.00  0.00    +0.000 C 
BRANCH  30  31
ATOM     31  C   UNL     1       7.131   5.938  16.472  0.00  0.00    +0.000 C 
BRANCH  31  33
ATOM     32  C   UNL     1       7.937   6.494  18.786  0.00  0.00    +0.000 C 
ATOM     33  C   UNL     1       7.411   7.051  17.475  0.00  0.00    +0.000 C 
ENDBRANCH  31  33
ENDBRANCH  30  31
ENDBRANCH  29  30
ENDBRANCH  28  29
ENDBRANCH  27  28
ENDBRANCH  26  27
ENDBRANCH  24  26
ENDBRANCH  23  24
ENDBRANCH  22  23
ENDBRANCH  21  22
ENDBRANCH  20  21
ENDBRANCH  19  20
ENDBRANCH  18  19
ENDBRANCH   1  18
TORSDOF 19
ENDMDL
MODEL 7
REMARK VINA RESULT:      -5.7      2.536      3.621
REMARK  Name = 
REMARK  20 active torsions:
REMARK  status: ('A' for Active; 'I' for Inactive)
REMARK    1  A    between atoms: C_1  and  C_2
REMARK    2  A    between atoms: C_2  and  C_3
REMARK    3  A    between atoms: C_3  and  C_4
REMARK    4  A    between atoms: C_4  and  C_5
REMARK    5  A    between atoms: C_5  and  C_6
REMARK    6  A    between atoms: C_6  and  C_7
REMARK    7  A    between atoms: C_7  and  O_8
REMARK    8  A    between atoms: O_8  and  C_9
REMARK    9  A    between atoms: C_9  and  C_11
REMARK   10  A    between atoms: C_11  and  C_12
REMARK   11  A    between atoms: C_12  and  C_13
REMARK   12  A    between atoms: C_13  and  C_14
REMARK   13  A    between atoms: C_14  and  C_15
REMARK   14  A    between atoms: C_15  and  C_16
REMARK   15  A    between atoms: C_16  and  C_17
REMARK   16  A    between atoms: C_17  and  O_18
REMARK   17  A    between atoms: O_18  and  C_19
REMARK   18  A    between atoms: C_19  and  C_20
REMARK   19  A    between atoms: C_19  and  C_26
REMARK   20  A    between atoms: C_20  and  N_21
REMARK                            x       y       z     vdW  Elec       q    Type
REMARK                         _______ _______ _______ _____ _____    ______ ____
ROOT
ATOM      1  C   UNL     1       1.710   8.430  18.616  0.00  0.00    +0.000 C 
ENDROOT
BRANCH   1   2
ATOM      2  O   UNL     1       1.674   9.787  19.042  0.00  0.00    +0.000 OA
BRANCH   2   3
ATOM      3  C   UNL     1       0.440  10.468  18.714  0.00  0.00    +0.000 C 
BRANCH   3   4
ATOM      4  C   UNL     1       0.645  11.986  18.757  0.00  0.00    +0.000 A 
ATOM      5  C   UNL     1       1.934  12.519  18.961  0.00  0.00    +0.000 A 
ATOM      6  C   UNL     1       2.151  13.900  19.022  0.00  0.00    +0.000 A 
ATOM      7  C   UNL     1       1.079  14.775  18.900  0.00  0.00    +0.000 A 
ATOM      8 CL   UNL     1       1.336  16.472  19.007  0.00  0.00    +0.000 Cl
ATOM      9  C   UNL     1      -0.201  14.284  18.672  0.00  0.00    +0.000 A 
ATOM     10  C   UNL     1      -0.410  12.903  18.568  0.00  0.00    +0.000 A 
ATOM     11 CL   UNL     1      -2.006  12.403  18.139  0.00  0.00    +0.000 Cl
ENDBRANCH   3   4
BRANCH   3  12
ATOM     12  C   UNL     1      -0.736   9.948  19.578  0.00  0.00    +0.000 C 
BRANCH  12  13
ATOM     13  N   UNL     1      -0.521   9.945  21.010  0.00  0.00    +0.000 N 
ATOM     14  C   UNL     1      -0.058   8.891  21.746  0.00  0.00    +0.000 A 
ATOM     15  C   UNL     1       0.192   9.404  22.997  0.00  0.00    +0.000 A 
ATOM     16  N   UNL     1      -0.110  10.739  23.037  0.00  0.00    +0.000 NA
ATOM     17  C   UNL     1      -0.536  11.036  21.830  0.00  0.00    +0.000 A 
ENDBRANCH  12  13
ENDBRANCH   3  12
ENDBRANCH   2   3
ENDBRANCH   1   2
BRANCH   1  18
ATOM     18  C   UNL     1       2.999   8.144  17.871  0.00  0.00    +0.000 C 
BRANCH  18  19
ATOM     19  C   UNL     1       3.399   6.694  18.129  0.00  0.00    +0.000 C 
BRANCH  19  20
ATOM     20  C   UNL     1       2.411   5.997  19.048  0.00  0.00    +0.000 C 
BRANCH  20  21
ATOM     21  C   UNL     1       3.138   5.076  20.028  0.00  0.00    +0.000 C 
BRANCH  21  22
ATOM     22  C   UNL     1       2.194   4.072  20.687  0.00  0.00    +0.000 C 
BRANCH  22  23
ATOM     23  C   UNL     1       2.435   2.655  20.181  0.00  0.00    +0.000 C 
BRANCH  23  24
ATOM     24  C   UNL     1       1.948   2.451  18.776  0.00  0.00    +0.000 C 
ATOM     25  O   UNL     1       0.784   2.447  18.406  0.00  0.00    +0.000 OA
BRANCH  24  26
ATOM     26  O   UNL     1       3.026   2.136  18.005  0.00  0.00    +0.000 OA
BRANCH  26  27
ATOM     27  C   UNL     1       3.317   3.121  17.020  0.00  0.00    +0.000 C 
BRANCH  27  28
ATOM     28  C   UNL     1       4.774   3.540  17.052  0.00  0.00    +0.000 C 
BRANCH  28  29
ATOM     29  C   UNL     1       5.081   4.304  15.768  0.00  0.00    +0.000 C 
BRANCH  29  30
ATOM     30  C   UNL     1       6.500   4.850  15.740  0.00  0.00    +0.000 C 
BRANCH  30  31
ATOM     31  C   UNL     1       7.164   4.662  17.104  0.00  0.00    +0.000 C 
BRANCH  31  33
ATOM     32  C   UNL     1       7.788   5.808  19.251  0.00  0.00    +0.000 C 
ATOM     33  C   UNL     1       7.403   6.000  17.794  0.00  0.00    +0.000 C 
ENDBRANCH  31  33
ENDBRANCH  30  31
ENDBRANCH  29  30
ENDBRANCH  28  29
ENDBRANCH  27  28
ENDBRANCH  26  27
ENDBRANCH  24  26
ENDBRANCH  23  24
ENDBRANCH  22  23
ENDBRANCH  21  22
ENDBRANCH  20  21
ENDBRANCH  19  20
ENDBRANCH  18  19
ENDBRANCH   1  18
TORSDOF 19
ENDMDL
MODEL 8
REMARK VINA RESULT:      -5.7      2.740      4.793
REMARK  Name = 
REMARK  20 active torsions:
REMARK  status: ('A' for Active; 'I' for Inactive)
REMARK    1  A    between atoms: C_1  and  C_2
REMARK    2  A    between atoms: C_2  and  C_3
REMARK    3  A    between atoms: C_3  and  C_4
REMARK    4  A    between atoms: C_4  and  C_5
REMARK    5  A    between atoms: C_5  and  C_6
REMARK    6  A    between atoms: C_6  and  C_7
REMARK    7  A    between atoms: C_7  and  O_8
REMARK    8  A    between atoms: O_8  and  C_9
REMARK    9  A    between atoms: C_9  and  C_11
REMARK   10  A    between atoms: C_11  and  C_12
REMARK   11  A    between atoms: C_12  and  C_13
REMARK   12  A    between atoms: C_13  and  C_14
REMARK   13  A    between atoms: C_14  and  C_15
REMARK   14  A    between atoms: C_15  and  C_16
REMARK   15  A    between atoms: C_16  and  C_17
REMARK   16  A    between atoms: C_17  and  O_18
REMARK   17  A    between atoms: O_18  and  C_19
REMARK   18  A    between atoms: C_19  and  C_20
REMARK   19  A    between atoms: C_19  and  C_26
REMARK   20  A    between atoms: C_20  and  N_21
REMARK                            x       y       z     vdW  Elec       q    Type
REMARK                         _______ _______ _______ _____ _____    ______ ____
ROOT
ATOM      1  C   UNL     1       1.079   9.494  21.530  0.00  0.00    +0.000 C 
ENDROOT
BRANCH   1   2
ATOM      2  O   UNL     1       0.845  10.457  20.509  0.00  0.00    +0.000 OA
BRANCH   2   3
ATOM      3  C   UNL     1      -0.409  11.165  20.653  0.00  0.00    +0.000 C 
BRANCH   3   4
ATOM      4  C   UNL     1      -1.234  11.047  19.368  0.00  0.00    +0.000 A 
ATOM      5  C   UNL     1      -0.790  10.219  18.316  0.00  0.00    +0.000 A 
ATOM      6  C   UNL     1      -1.513  10.103  17.124  0.00  0.00    +0.000 A 
ATOM      7  C   UNL     1      -2.684  10.829  16.952  0.00  0.00    +0.000 A 
ATOM      8 CL   UNL     1      -3.559  10.716  15.475  0.00  0.00    +0.000 Cl
ATOM      9  C   UNL     1      -3.164  11.634  17.977  0.00  0.00    +0.000 A 
ATOM     10  C   UNL     1      -2.463  11.716  19.186  0.00  0.00    +0.000 A 
ATOM     11 CL   UNL     1      -3.217  12.625  20.447  0.00  0.00    +0.000 Cl
ENDBRANCH   3   4
BRANCH   3  12
ATOM     12  C   UNL     1      -0.183  12.616  21.148  0.00  0.00    +0.000 C 
BRANCH  12  13
ATOM     13  N   UNL     1       0.584  13.475  20.270  0.00  0.00    +0.000 N 
ATOM     14  C   UNL     1       1.890  13.290  19.912  0.00  0.00    +0.000 A 
ATOM     15  C   UNL     1       2.125  14.205  18.914  0.00  0.00    +0.000 A 
ATOM     16  N   UNL     1       0.997  14.939  18.660  0.00  0.00    +0.000 NA
ATOM     17  C   UNL     1       0.088  14.478  19.490  0.00  0.00    +0.000 A 
ENDBRANCH  12  13
ENDBRANCH   3  12
ENDBRANCH   2   3
ENDBRANCH   1   2
BRANCH   1  18
ATOM     18  C   UNL     1       0.816   8.095  21.007  0.00  0.00    +0.000 C 
BRANCH  18  19
ATOM     19  C   UNL     1       2.156   7.416  20.738  0.00  0.00    +0.000 C 
BRANCH  19  20
ATOM     20  C   UNL     1       2.132   6.632  19.438  0.00  0.00    +0.000 C 
BRANCH  20  21
ATOM     21  C   UNL     1       2.344   7.558  18.240  0.00  0.00    +0.000 C 
BRANCH  21  22
ATOM     22  C   UNL     1       3.738   7.412  17.634  0.00  0.00    +0.000 C 
BRANCH  22  23
ATOM     23  C   UNL     1       4.057   5.961  17.295  0.00  0.00    +0.000 C 
BRANCH  23  24
ATOM     24  C   UNL     1       5.187   5.410  18.114  0.00  0.00    +0.000 C 
ATOM     25  O   UNL     1       6.261   5.952  18.326  0.00  0.00    +0.000 OA
BRANCH  24  26
ATOM     26  O   UNL     1       4.858   4.136  18.469  0.00  0.00    +0.000 OA
BRANCH  26  27
ATOM     27  C   UNL     1       3.746   3.624  17.744  0.00  0.00    +0.000 C 
BRANCH  27  28
ATOM     28  C   UNL     1       3.569   2.133  17.960  0.00  0.00    +0.000 C 
BRANCH  28  29
ATOM     29  C   UNL     1       2.179   1.895  18.543  0.00  0.00    +0.000 C 
BRANCH  29  30
ATOM     30  C   UNL     1       1.289   3.125  18.446  0.00  0.00    +0.000 C 
BRANCH  30  31
ATOM     31  C   UNL     1       0.681   3.445  19.811  0.00  0.00    +0.000 C 
BRANCH  31  33
ATOM     32  C   UNL     1       2.284   3.644  21.735  0.00  0.00    +0.000 C 
ATOM     33  C   UNL     1       1.405   2.704  20.929  0.00  0.00    +0.000 C 
ENDBRANCH  31  33
ENDBRANCH  30  31
ENDBRANCH  29  30
ENDBRANCH  28  29
ENDBRANCH  27  28
ENDBRANCH  26  27
ENDBRANCH  24  26
ENDBRANCH  23  24
ENDBRANCH  22  23
ENDBRANCH  21  22
ENDBRANCH  20  21
ENDBRANCH  19  20
ENDBRANCH  18  19
ENDBRANCH   1  18
TORSDOF 19
ENDMDL
MODEL 9
REMARK VINA RESULT:      -5.6      4.119      9.355
REMARK  Name = 
REMARK  20 active torsions:
REMARK  status: ('A' for Active; 'I' for Inactive)
REMARK    1  A    between atoms: C_1  and  C_2
REMARK    2  A    between atoms: C_2  and  C_3
REMARK    3  A    between atoms: C_3  and  C_4
REMARK    4  A    between atoms: C_4  and  C_5
REMARK    5  A    between atoms: C_5  and  C_6
REMARK    6  A    between atoms: C_6  and  C_7
REMARK    7  A    between atoms: C_7  and  O_8
REMARK    8  A    between atoms: O_8  and  C_9
REMARK    9  A    between atoms: C_9  and  C_11
REMARK   10  A    between atoms: C_11  and  C_12
REMARK   11  A    between atoms: C_12  and  C_13
REMARK   12  A    between atoms: C_13  and  C_14
REMARK   13  A    between atoms: C_14  and  C_15
REMARK   14  A    between atoms: C_15  and  C_16
REMARK   15  A    between atoms: C_16  and  C_17
REMARK   16  A    between atoms: C_17  and  O_18
REMARK   17  A    between atoms: O_18  and  C_19
REMARK   18  A    between atoms: C_19  and  C_20
REMARK   19  A    between atoms: C_19  and  C_26
REMARK   20  A    between atoms: C_20  and  N_21
REMARK                            x       y       z     vdW  Elec       q    Type
REMARK                         _______ _______ _______ _____ _____    ______ ____
ROOT
ATOM      1  C   UNL     1       2.054   7.640  19.079  0.00  0.00    +0.000 C 
ENDROOT
BRANCH   1   2
ATOM      2  O   UNL     1       3.205   7.249  18.339  0.00  0.00    +0.000 OA
BRANCH   2   3
ATOM      3  C   UNL     1       3.430   5.820  18.326  0.00  0.00    +0.000 C 
BRANCH   3   4
ATOM      4  C   UNL     1       4.308   5.433  17.131  0.00  0.00    +0.000 A 
ATOM      5  C   UNL     1       4.807   6.431  16.269  0.00  0.00    +0.000 A 
ATOM      6  C   UNL     1       5.598   6.108  15.161  0.00  0.00    +0.000 A 
ATOM      7  C   UNL     1       5.888   4.779  14.881  0.00  0.00    +0.000 A 
ATOM      8 CL   UNL     1       6.832   4.375  13.501  0.00  0.00    +0.000 Cl
ATOM      9  C   UNL     1       5.434   3.773  15.725  0.00  0.00    +0.000 A 
ATOM     10  C   UNL     1       4.679   4.100  16.858  0.00  0.00    +0.000 A 
ATOM     11 CL   UNL     1       4.289   2.794  17.918  0.00  0.00    +0.000 Cl
ENDBRANCH   3   4
BRANCH   3  12
ATOM     12  C   UNL     1       2.096   5.039  18.429  0.00  0.00    +0.000 C 
BRANCH  12  13
ATOM     13  N   UNL     1       1.945   4.187  19.590  0.00  0.00    +0.000 N 
ATOM     14  C   UNL     1       2.538   4.380  20.805  0.00  0.00    +0.000 A 
ATOM     15  C   UNL     1       1.945   3.470  21.648  0.00  0.00    +0.000 A 
ATOM     16  N   UNL     1       1.010   2.730  20.973  0.00  0.00    +0.000 NA
ATOM     17  C   UNL     1       1.032   3.183  19.740  0.00  0.00    +0.000 A 
ENDBRANCH  12  13
ENDBRANCH   3  12
ENDBRANCH   2   3
ENDBRANCH   1   2
BRANCH   1  18
ATOM     18  C   UNL     1       1.523   8.965  18.567  0.00  0.00    +0.000 C 
BRANCH  18  19
ATOM     19  C   UNL     1       1.273   9.884  19.760  0.00  0.00    +0.000 C 
BRANCH  19  20
ATOM     20  C   UNL     1       1.095   9.094  21.045  0.00  0.00    +0.000 C 
BRANCH  20  21
ATOM     21  C   UNL     1      -0.264   9.390  21.681  0.00  0.00    +0.000 C 
BRANCH  21  22
ATOM     22  C   UNL     1      -0.216  10.599  22.612  0.00  0.00    +0.000 C 
BRANCH  22  23
ATOM     23  C   UNL     1      -1.612  11.126  22.923  0.00  0.00    +0.000 C 
BRANCH  23  24
ATOM     24  C   UNL     1      -1.929  12.395  22.187  0.00  0.00    +0.000 C 
ATOM     25  O   UNL     1      -2.026  13.511  22.674  0.00  0.00    +0.000 OA
BRANCH  24  26
ATOM     26  O   UNL     1      -2.226  12.064  20.899  0.00  0.00    +0.000 OA
BRANCH  26  27
ATOM     27  C   UNL     1      -1.520  12.848  19.944  0.00  0.00    +0.000 C 
BRANCH  27  28
ATOM     28  C   UNL     1      -1.564  12.226  18.561  0.00  0.00    +0.000 C 
BRANCH  28  29
ATOM     29  C   UNL     1      -1.886  10.743  18.712  0.00  0.00    +0.000 C 
BRANCH  29  30
ATOM     30  C   UNL     1      -3.105  10.326  17.903  0.00  0.00    +0.000 C 
BRANCH  30  31
ATOM     31  C   UNL     1      -3.519  11.452  16.957  0.00  0.00    +0.000 C 
BRANCH  31  33
ATOM     32  C   UNL     1      -2.869   9.608  15.378  0.00  0.00    +0.000 C 
ATOM     33  C   UNL     1      -3.325  11.053  15.499  0.00  0.00    +0.000 C 
ENDBRANCH  31  33
ENDBRANCH  30  31
ENDBRANCH  29  30
ENDBRANCH  28  29
ENDBRANCH  27  28
ENDBRANCH  26  27
ENDBRANCH  24  26
ENDBRANCH  23  24
ENDBRANCH  22  23
ENDBRANCH  21  22
ENDBRANCH  20  21
ENDBRANCH  19  20
ENDBRANCH  18  19
ENDBRANCH   1  18
TORSDOF 19
ENDMDL
