MODEL 1
REMARK VINA RESULT:      -7.9      0.000      0.000
REMARK  Name = 
REMARK  3 active torsions:
REMARK  status: ('A' for Active; 'I' for Inactive)
REMARK    1  A    between atoms: C_1  and  C_2
REMARK    2  A    between atoms: C_5  and  C_7
REMARK    3  A    between atoms: C_9  and  C_10
REMARK                            x       y       z     vdW  Elec       q    Type
REMARK                         _______ _______ _______ _____ _____    ______ ____
ROOT
ATOM      1  C   UNL     1       2.809   5.276  17.952  0.00  0.00    +0.000 C 
ATOM      2  C   UNL     1       2.197   5.013  19.313  0.00  0.00    +0.000 C 
ATOM      3  C   UNL     1       3.000   6.268  19.093  0.00  0.00    +0.000 C 
ENDROOT
BRANCH   1   8
ATOM      4  C   UNL     1       7.526   4.569  18.182  0.00  0.00    +0.000 C 
ATOM      5  C   UNL     1       7.332   4.842  16.688  0.00  0.00    +0.000 C 
ATOM      6  C   UNL     1       6.021   4.206  16.152  0.00  0.00    +0.000 C 
ATOM      7  N   UNL     1       4.842   4.984  16.540  0.00  0.00    +0.000 N 
ATOM      8  C   UNL     1       3.981   4.461  17.496  0.00  0.00    +0.000 C 
ATOM      9  O   UNL     1       4.148   3.349  17.990  0.00  0.00    +0.000 OA
ATOM     10  C   UNL     1       4.941   6.388  16.135  0.00  0.00    +0.000 C 
ATOM     11  C   UNL     1       6.207   7.024  16.742  0.00  0.00    +0.000 C 
ATOM     12  N   UNL     1       7.437   6.290  16.387  0.00  0.00    +0.000 NA
ATOM     13  H   UNL     1       8.226   6.689  16.896  0.00  0.00    +0.000 HD
ENDBRANCH   1   8
BRANCH   3  14
ATOM     14  C   UNL     1       2.318   7.619  19.078  0.00  0.00    +0.000 A 
ATOM     15  C   UNL     1       2.345   8.442  17.932  0.00  0.00    +0.000 A 
ATOM     16  C   UNL     1       1.644   9.659  17.889  0.00  0.00    +0.000 A 
ATOM     17  C   UNL     1       0.904  10.078  18.991  0.00  0.00    +0.000 A 
ATOM     18  C   UNL     1       0.877   9.283  20.130  0.00  0.00    +0.000 A 
ATOM     19  F   UNL     1       0.165   9.684  21.193  0.00  0.00    +0.000 F 
ATOM     20  C   UNL     1       1.567   8.075  20.171  0.00  0.00    +0.000 A 
ATOM     21  F   UNL     1       1.499   7.326  21.283  0.00  0.00    +0.000 F 
ENDBRANCH   3  14
TORSDOF 2
ENDMDL
MODEL 2
REMARK VINA RESULT:      -7.5      4.067      5.866
REMARK  Name = 
REMARK  3 active torsions:
REMARK  status: ('A' for Active; 'I' for Inactive)
REMARK    1  A    between atoms: C_1  and  C_2
REMARK    2  A    between atoms: C_5  and  C_7
REMARK    3  A    between atoms: C_9  and  C_10
REMARK                            x       y       z     vdW  Elec       q    Type
REMARK                         _______ _______ _______ _____ _____    ______ ____
ROOT
ATOM      1  C   UNL     1       4.375   3.757  17.175  0.00  0.00    +0.000 C 
ATOM      2  C   UNL     1       4.551   4.490  15.861  0.00  0.00    +0.000 C 
ATOM      3  C   UNL     1       4.598   5.264  17.152  0.00  0.00    +0.000 C 
ENDROOT
BRANCH   1   8
ATOM      4  C   UNL     1       0.703   3.973  20.221  0.00  0.00    +0.000 C 
ATOM      5  C   UNL     1       1.146   2.515  20.381  0.00  0.00    +0.000 C 
ATOM      6  C   UNL     1       1.580   1.894  19.026  0.00  0.00    +0.000 C 
ATOM      7  N   UNL     1       2.913   2.349  18.623  0.00  0.00    +0.000 N 
ATOM      8  C   UNL     1       3.024   3.230  17.554  0.00  0.00    +0.000 C 
ATOM      9  O   UNL     1       2.048   3.599  16.906  0.00  0.00    +0.000 OA
ATOM     10  C   UNL     1       3.924   2.104  19.654  0.00  0.00    +0.000 C 
ATOM     11  C   UNL     1       3.513   2.795  20.970  0.00  0.00    +0.000 C 
ATOM     12  N   UNL     1       2.177   2.378  21.438  0.00  0.00    +0.000 NA
ATOM     13  H   UNL     1       1.914   2.939  22.248  0.00  0.00    +0.000 HD
ENDBRANCH   1   8
BRANCH   3  14
ATOM     14  C   UNL     1       5.899   5.869  17.633  0.00  0.00    +0.000 A 
ATOM     15  C   UNL     1       6.476   6.981  16.985  0.00  0.00    +0.000 A 
ATOM     16  C   UNL     1       7.640   7.594  17.479  0.00  0.00    +0.000 A 
ATOM     17  C   UNL     1       8.250   7.105  18.631  0.00  0.00    +0.000 A 
ATOM     18  C   UNL     1       7.700   6.004  19.274  0.00  0.00    +0.000 A 
ATOM     19  F   UNL     1       8.285   5.532  20.384  0.00  0.00    +0.000 F 
ATOM     20  C   UNL     1       6.544   5.400  18.787  0.00  0.00    +0.000 A 
ATOM     21  F   UNL     1       6.031   4.351  19.449  0.00  0.00    +0.000 F 
ENDBRANCH   3  14
TORSDOF 2
ENDMDL
MODEL 3
REMARK VINA RESULT:      -7.3      4.132      5.995
REMARK  Name = 
REMARK  3 active torsions:
REMARK  status: ('A' for Active; 'I' for Inactive)
REMARK    1  A    between atoms: C_1  and  C_2
REMARK    2  A    between atoms: C_5  and  C_7
REMARK    3  A    between atoms: C_9  and  C_10
REMARK                            x       y       z     vdW  Elec       q    Type
REMARK                         _______ _______ _______ _____ _____    ______ ____
ROOT
ATOM      1  C   UNL     1       4.483   3.620  17.368  0.00  0.00    +0.000 C 
ATOM      2  C   UNL     1       4.692   4.310  16.035  0.00  0.00    +0.000 C 
ATOM      3  C   UNL     1       4.627   5.136  17.293  0.00  0.00    +0.000 C 
ENDROOT
BRANCH   1   8
ATOM      4  C   UNL     1       0.558   3.875  20.075  0.00  0.00    +0.000 C 
ATOM      5  C   UNL     1       1.084   2.481  20.432  0.00  0.00    +0.000 C 
ATOM      6  C   UNL     1       1.674   1.755  19.193  0.00  0.00    +0.000 C 
ATOM      7  N   UNL     1       3.003   2.266  18.847  0.00  0.00    +0.000 N 
ATOM      8  C   UNL     1       3.144   3.034  17.698  0.00  0.00    +0.000 C 
ATOM      9  O   UNL     1       2.204   3.256  16.938  0.00  0.00    +0.000 OA
ATOM     10  C   UNL     1       3.935   2.211  19.974  0.00  0.00    +0.000 C 
ATOM     11  C   UNL     1       3.367   3.004  21.168  0.00  0.00    +0.000 C 
ATOM     12  N   UNL     1       2.027   2.537  21.574  0.00  0.00    +0.000 NA
ATOM     13  H   UNL     1       1.658   3.159  22.293  0.00  0.00    +0.000 HD
ENDBRANCH   1   8
BRANCH   3  14
ATOM     14  C   UNL     1       5.864   5.831  17.815  0.00  0.00    +0.000 A 
ATOM     15  C   UNL     1       6.630   5.278  18.863  0.00  0.00    +0.000 A 
ATOM     16  C   UNL     1       7.824   5.881  19.294  0.00  0.00    +0.000 A 
ATOM     17  C   UNL     1       8.274   7.050  18.687  0.00  0.00    +0.000 A 
ATOM     18  C   UNL     1       7.525   7.613  17.661  0.00  0.00    +0.000 A 
ATOM     19  F   UNL     1       7.957   8.738  17.074  0.00  0.00    +0.000 F 
ATOM     20  C   UNL     1       6.345   7.013  17.231  0.00  0.00    +0.000 A 
ATOM     21  F   UNL     1       5.660   7.575  16.223  0.00  0.00    +0.000 F 
ENDBRANCH   3  14
TORSDOF 2
ENDMDL
MODEL 4
REMARK VINA RESULT:      -7.3      1.361      1.741
REMARK  Name = 
REMARK  3 active torsions:
REMARK  status: ('A' for Active; 'I' for Inactive)
REMARK    1  A    between atoms: C_1  and  C_2
REMARK    2  A    between atoms: C_5  and  C_7
REMARK    3  A    between atoms: C_9  and  C_10
REMARK                            x       y       z     vdW  Elec       q    Type
REMARK                         _______ _______ _______ _____ _____    ______ ____
ROOT
ATOM      1  C   UNL     1       2.854   4.941  18.280  0.00  0.00    +0.000 C 
ATOM      2  C   UNL     1       2.309   4.536  19.635  0.00  0.00    +0.000 C 
ATOM      3  C   UNL     1       3.015   5.857  19.487  0.00  0.00    +0.000 C 
ENDROOT
BRANCH   1   8
ATOM      4  C   UNL     1       7.619   4.629  18.236  0.00  0.00    +0.000 C 
ATOM      5  C   UNL     1       7.321   4.942  16.767  0.00  0.00    +0.000 C 
ATOM      6  C   UNL     1       6.040   4.217  16.272  0.00  0.00    +0.000 C 
ATOM      7  N   UNL     1       4.823   4.877  16.753  0.00  0.00    +0.000 N 
ATOM      8  C   UNL     1       4.062   4.246  17.730  0.00  0.00    +0.000 C 
ATOM      9  O   UNL     1       4.348   3.134  18.166  0.00  0.00    +0.000 OA
ATOM     10  C   UNL     1       4.783   6.299  16.406  0.00  0.00    +0.000 C 
ATOM     11  C   UNL     1       6.023   7.016  16.973  0.00  0.00    +0.000 C 
ATOM     12  N   UNL     1       7.289   6.404  16.523  0.00  0.00    +0.000 NA
ATOM     13  H   UNL     1       8.068   6.849  17.007  0.00  0.00    +0.000 HD
ENDBRANCH   1   8
BRANCH   3  14
ATOM     14  C   UNL     1       2.243   7.153  19.594  0.00  0.00    +0.000 A 
ATOM     15  C   UNL     1       1.572   7.513  20.782  0.00  0.00    +0.000 A 
ATOM     16  C   UNL     1       0.923   8.753  20.909  0.00  0.00    +0.000 A 
ATOM     17  C   UNL     1       0.930   9.656  19.850  0.00  0.00    +0.000 A 
ATOM     18  C   UNL     1       1.577   9.312  18.670  0.00  0.00    +0.000 A 
ATOM     19  F   UNL     1       1.587  10.180  17.649  0.00  0.00    +0.000 F 
ATOM     20  C   UNL     1       2.224   8.086  18.546  0.00  0.00    +0.000 A 
ATOM     21  F   UNL     1       2.856   7.799  17.397  0.00  0.00    +0.000 F 
ENDBRANCH   3  14
TORSDOF 2
ENDMDL
MODEL 5
REMARK VINA RESULT:      -7.3      4.220      6.836
REMARK  Name = 
REMARK  3 active torsions:
REMARK  status: ('A' for Active; 'I' for Inactive)
REMARK    1  A    between atoms: C_1  and  C_2
REMARK    2  A    between atoms: C_5  and  C_7
REMARK    3  A    between atoms: C_9  and  C_10
REMARK                            x       y       z     vdW  Elec       q    Type
REMARK                         _______ _______ _______ _____ _____    ______ ____
ROOT
ATOM      1  C   UNL     1       5.981   5.818  17.291  0.00  0.00    +0.000 C 
ATOM      2  C   UNL     1       7.436   6.234  17.214  0.00  0.00    +0.000 C 
ATOM      3  C   UNL     1       7.003   4.939  16.579  0.00  0.00    +0.000 C 
ENDROOT
BRANCH   1   8
ATOM      4  C   UNL     1       4.380   2.139  19.881  0.00  0.00    +0.000 C 
ATOM      5  C   UNL     1       3.144   3.043  19.840  0.00  0.00    +0.000 C 
ATOM      6  C   UNL     1       3.526   4.544  19.947  0.00  0.00    +0.000 C 
ATOM      7  N   UNL     1       4.057   5.060  18.683  0.00  0.00    +0.000 N 
ATOM      8  C   UNL     1       5.412   5.354  18.598  0.00  0.00    +0.000 C 
ATOM      9  O   UNL     1       6.168   5.243  19.560  0.00  0.00    +0.000 OA
ATOM     10  C   UNL     1       3.146   4.835  17.559  0.00  0.00    +0.000 C 
ATOM     11  C   UNL     1       2.841   3.331  17.420  0.00  0.00    +0.000 C 
ATOM     12  N   UNL     1       2.297   2.744  18.660  0.00  0.00    +0.000 NA
ATOM     13  H   UNL     1       2.212   1.734  18.546  0.00  0.00    +0.000 HD
ENDBRANCH   1   8
BRANCH   3  14
ATOM     14  C   UNL     1       6.993   4.792  15.073  0.00  0.00    +0.000 A 
ATOM     15  C   UNL     1       7.881   5.523  14.257  0.00  0.00    +0.000 A 
ATOM     16  C   UNL     1       7.928   5.327  12.867  0.00  0.00    +0.000 A 
ATOM     17  C   UNL     1       7.086   4.397  12.265  0.00  0.00    +0.000 A 
ATOM     18  C   UNL     1       6.197   3.677  13.053  0.00  0.00    +0.000 A 
ATOM     19  F   UNL     1       5.386   2.779  12.476  0.00  0.00    +0.000 F 
ATOM     20  C   UNL     1       6.155   3.868  14.431  0.00  0.00    +0.000 A 
ATOM     21  F   UNL     1       5.297   3.137  15.162  0.00  0.00    +0.000 F 
ENDBRANCH   3  14
TORSDOF 2
ENDMDL
MODEL 6
REMARK VINA RESULT:      -7.2      4.090      6.668
REMARK  Name = 
REMARK  3 active torsions:
REMARK  status: ('A' for Active; 'I' for Inactive)
REMARK    1  A    between atoms: C_1  and  C_2
REMARK    2  A    between atoms: C_5  and  C_7
REMARK    3  A    between atoms: C_9  and  C_10
REMARK                            x       y       z     vdW  Elec       q    Type
REMARK                         _______ _______ _______ _____ _____    ______ ____
ROOT
ATOM      1  C   UNL     1       4.045   5.827  17.448  0.00  0.00    +0.000 C 
ATOM      2  C   UNL     1       5.410   6.414  17.746  0.00  0.00    +0.000 C 
ATOM      3  C   UNL     1       5.309   5.007  17.219  0.00  0.00    +0.000 C 
ENDROOT
BRANCH   1   8
ATOM      4  C   UNL     1       3.004   2.675  20.880  0.00  0.00    +0.000 C 
ATOM      5  C   UNL     1       1.722   2.648  20.043  0.00  0.00    +0.000 C 
ATOM      6  C   UNL     1       1.346   4.060  19.520  0.00  0.00    +0.000 C 
ATOM      7  N   UNL     1       2.184   4.461  18.387  0.00  0.00    +0.000 N 
ATOM      8  C   UNL     1       3.135   5.456  18.578  0.00  0.00    +0.000 C 
ATOM      9  O   UNL     1       3.260   6.045  19.649  0.00  0.00    +0.000 OA
ATOM     10  C   UNL     1       2.161   3.481  17.299  0.00  0.00    +0.000 C 
ATOM     11  C   UNL     1       2.613   2.103  17.821  0.00  0.00    +0.000 C 
ATOM     12  N   UNL     1       1.805   1.634  18.963  0.00  0.00    +0.000 NA
ATOM     13  H   UNL     1       2.210   0.774  19.332  0.00  0.00    +0.000 HD
ENDBRANCH   1   8
BRANCH   3  14
ATOM     14  C   UNL     1       5.786   4.678  15.821  0.00  0.00    +0.000 A 
ATOM     15  C   UNL     1       5.044   3.831  14.972  0.00  0.00    +0.000 A 
ATOM     16  C   UNL     1       5.444   3.591  13.647  0.00  0.00    +0.000 A 
ATOM     17  C   UNL     1       6.595   4.192  13.145  0.00  0.00    +0.000 A 
ATOM     18  C   UNL     1       7.343   5.020  13.973  0.00  0.00    +0.000 A 
ATOM     19  F   UNL     1       8.451   5.600  13.492  0.00  0.00    +0.000 F 
ATOM     20  C   UNL     1       6.944   5.262  15.284  0.00  0.00    +0.000 A 
ATOM     21  F   UNL     1       7.681   6.085  16.046  0.00  0.00    +0.000 F 
ENDBRANCH   3  14
TORSDOF 2
ENDMDL
MODEL 7
REMARK VINA RESULT:      -7.2      4.059      7.006
REMARK  Name = 
REMARK  3 active torsions:
REMARK  status: ('A' for Active; 'I' for Inactive)
REMARK    1  A    between atoms: C_1  and  C_2
REMARK    2  A    between atoms: C_5  and  C_7
REMARK    3  A    between atoms: C_9  and  C_10
REMARK                            x       y       z     vdW  Elec       q    Type
REMARK                         _______ _______ _______ _____ _____    ______ ____
ROOT
ATOM      1  C   UNL     1       4.169   4.041  16.648  0.00  0.00    +0.000 C 
ATOM      2  C   UNL     1       4.900   5.353  16.846  0.00  0.00    +0.000 C 
ATOM      3  C   UNL     1       5.649   4.164  16.304  0.00  0.00    +0.000 C 
ENDROOT
BRANCH   1   8
ATOM      4  C   UNL     1       0.880   3.225  20.012  0.00  0.00    +0.000 C 
ATOM      5  C   UNL     1       2.102   3.586  20.862  0.00  0.00    +0.000 C 
ATOM      6  C   UNL     1       3.412   3.008  20.262  0.00  0.00    +0.000 C 
ATOM      7  N   UNL     1       3.871   3.787  19.109  0.00  0.00    +0.000 N 
ATOM      8  C   UNL     1       3.768   3.228  17.841  0.00  0.00    +0.000 C 
ATOM      9  O   UNL     1       3.352   2.087  17.660  0.00  0.00    +0.000 OA
ATOM     10  C   UNL     1       4.026   5.209  19.421  0.00  0.00    +0.000 C 
ATOM     11  C   UNL     1       2.693   5.783  19.941  0.00  0.00    +0.000 C 
ATOM     12  N   UNL     1       2.174   5.046  21.109  0.00  0.00    +0.000 NA
ATOM     13  H   UNL     1       1.247   5.400  21.345  0.00  0.00    +0.000 HD
ENDBRANCH   1   8
BRANCH   3  14
ATOM     14  C   UNL     1       6.122   4.149  14.867  0.00  0.00    +0.000 A 
ATOM     15  C   UNL     1       5.459   3.385  13.883  0.00  0.00    +0.000 A 
ATOM     16  C   UNL     1       5.847   3.434  12.534  0.00  0.00    +0.000 A 
ATOM     17  C   UNL     1       6.908   4.247  12.142  0.00  0.00    +0.000 A 
ATOM     18  C   UNL     1       7.577   4.996  13.100  0.00  0.00    +0.000 A 
ATOM     19  F   UNL     1       8.597   5.781  12.725  0.00  0.00    +0.000 F 
ATOM     20  C   UNL     1       7.189   4.952  14.436  0.00  0.00    +0.000 A 
ATOM     21  F   UNL     1       7.848   5.707  15.329  0.00  0.00    +0.000 F 
ENDBRANCH   3  14
TORSDOF 2
ENDMDL
MODEL 8
REMARK VINA RESULT:      -7.0      2.348      3.899
REMARK  Name = 
REMARK  3 active torsions:
REMARK  status: ('A' for Active; 'I' for Inactive)
REMARK    1  A    between atoms: C_1  and  C_2
REMARK    2  A    between atoms: C_5  and  C_7
REMARK    3  A    between atoms: C_9  and  C_10
REMARK                            x       y       z     vdW  Elec       q    Type
REMARK                         _______ _______ _______ _____ _____    ______ ____
ROOT
ATOM      1  C   UNL     1       3.878   6.317  18.791  0.00  0.00    +0.000 C 
ATOM      2  C   UNL     1       4.024   7.000  17.447  0.00  0.00    +0.000 C 
ATOM      3  C   UNL     1       2.678   6.979  18.123  0.00  0.00    +0.000 C 
ENDROOT
BRANCH   1   8
ATOM      4  C   UNL     1       1.521   2.196  18.275  0.00  0.00    +0.000 C 
ATOM      5  C   UNL     1       1.920   2.135  19.753  0.00  0.00    +0.000 C 
ATOM      6  C   UNL     1       3.341   2.714  19.989  0.00  0.00    +0.000 C 
ATOM      7  N   UNL     1       3.343   4.179  19.956  0.00  0.00    +0.000 N 
ATOM      8  C   UNL     1       3.929   4.822  18.872  0.00  0.00    +0.000 C 
ATOM      9  O   UNL     1       4.488   4.205  17.969  0.00  0.00    +0.000 OA
ATOM     10  C   UNL     1       2.383   4.761  20.894  0.00  0.00    +0.000 C 
ATOM     11  C   UNL     1       0.965   4.235  20.594  0.00  0.00    +0.000 C 
ATOM     12  N   UNL     1       0.889   2.762  20.615  0.00  0.00    +0.000 NA
ATOM     13  H   UNL     1      -0.038   2.468  20.310  0.00  0.00    +0.000 HD
ENDBRANCH   1   8
BRANCH   3  14
ATOM     14  C   UNL     1       2.080   8.254  18.676  0.00  0.00    +0.000 A 
ATOM     15  C   UNL     1       1.976   9.419  17.887  0.00  0.00    +0.000 A 
ATOM     16  C   UNL     1       1.347  10.578  18.372  0.00  0.00    +0.000 A 
ATOM     17  C   UNL     1       0.811  10.594  19.657  0.00  0.00    +0.000 A 
ATOM     18  C   UNL     1       0.916   9.459  20.450  0.00  0.00    +0.000 A 
ATOM     19  F   UNL     1       0.399   9.472  21.687  0.00  0.00    +0.000 F 
ATOM     20  C   UNL     1       1.534   8.309  19.967  0.00  0.00    +0.000 A 
ATOM     21  F   UNL     1       1.596   7.225  20.756  0.00  0.00    +0.000 F 
ENDBRANCH   3  14
TORSDOF 2
ENDMDL
MODEL 9
REMARK VINA RESULT:      -6.9      2.591      4.007
REMARK  Name = 
REMARK  3 active torsions:
REMARK  status: ('A' for Active; 'I' for Inactive)
REMARK    1  A    between atoms: C_1  and  C_2
REMARK    2  A    between atoms: C_5  and  C_7
REMARK    3  A    between atoms: C_9  and  C_10
REMARK                            x       y       z     vdW  Elec       q    Type
REMARK                         _______ _______ _______ _____ _____    ______ ____
ROOT
ATOM      1  C   UNL     1       3.894   6.499  18.867  0.00  0.00    +0.000 C 
ATOM      2  C   UNL     1       3.743   7.342  17.617  0.00  0.00    +0.000 C 
ATOM      3  C   UNL     1       2.525   7.015  18.440  0.00  0.00    +0.000 C 
ENDROOT
BRANCH   1   8
ATOM      4  C   UNL     1       2.249   2.169  17.705  0.00  0.00    +0.000 C 
ATOM      5  C   UNL     1       2.636   1.964  19.173  0.00  0.00    +0.000 C 
ATOM      6  C   UNL     1       3.940   2.723  19.535  0.00  0.00    +0.000 C 
ATOM      7  N   UNL     1       3.703   4.159  19.705  0.00  0.00    +0.000 N 
ATOM      8  C   UNL     1       4.188   5.035  18.742  0.00  0.00    +0.000 C 
ATOM      9  O   UNL     1       4.851   4.650  17.781  0.00  0.00    +0.000 OA
ATOM     10  C   UNL     1       2.649   4.441  20.682  0.00  0.00    +0.000 C 
ATOM     11  C   UNL     1       1.341   3.743  20.262  0.00  0.00    +0.000 C 
ATOM     12  N   UNL     1       1.506   2.288  20.078  0.00  0.00    +0.000 NA
ATOM     13  H   UNL     1       0.643   1.896  19.702  0.00  0.00    +0.000 HD
ENDBRANCH   1   8
BRANCH   3  14
ATOM     14  C   UNL     1       1.818   8.099  19.224  0.00  0.00    +0.000 A 
ATOM     15  C   UNL     1       1.577   7.966  20.607  0.00  0.00    +0.000 A 
ATOM     16  C   UNL     1       0.994   9.005  21.352  0.00  0.00    +0.000 A 
ATOM     17  C   UNL     1       0.640  10.197  20.727  0.00  0.00    +0.000 A 
ATOM     18  C   UNL     1       0.861  10.339  19.363  0.00  0.00    +0.000 A 
ATOM     19  F   UNL     1       0.521  11.486  18.759  0.00  0.00    +0.000 F 
ATOM     20  C   UNL     1       1.442   9.311  18.626  0.00  0.00    +0.000 A 
ATOM     21  F   UNL     1       1.659   9.495  17.314  0.00  0.00    +0.000 F 
ENDBRANCH   3  14
TORSDOF 2
ENDMDL
