MODEL 1
REMARK VINA RESULT:      -7.6      0.000      0.000
REMARK  Name = 
REMARK  12 active torsions:
REMARK  status: ('A' for Active; 'I' for Inactive)
REMARK    1  A    between atoms: C_1  and  C_2
REMARK    2  A    between atoms: C_2  and  C_3
REMARK    3  A    between atoms: C_3  and  N_4
REMARK    4  A    between atoms: C_5  and  O_6
REMARK    5  A    between atoms: C_9  and  S_10
REMARK    6  A    between atoms: S_10  and  C_11
REMARK    7  A    between atoms: C_11  and  C_12
REMARK    8  A    between atoms: N_14  and  C_15
REMARK    9  A    between atoms: C_18  and  C_19
REMARK   10  A    between atoms: N_21  and  C_22
REMARK   11  A    between atoms: C_27  and  O_28
REMARK   12  A    between atoms: O_28  and  C_29
REMARK                            x       y       z     vdW  Elec       q    Type
REMARK                         _______ _______ _______ _____ _____    ______ ____
ROOT
ATOM      1  C   UNL     1       0.745   9.638  19.817  0.00  0.00    +0.000 A 
ATOM      2  C   UNL     1       1.078   9.668  18.462  0.00  0.00    +0.000 A 
ATOM      3  C   UNL     1       1.847   8.648  17.900  0.00  0.00    +0.000 A 
ATOM      4  C   UNL     1       2.284   7.582  18.688  0.00  0.00    +0.000 A 
ATOM      5  C   UNL     1       1.972   7.547  20.049  0.00  0.00    +0.000 A 
ATOM      6  C   UNL     1       1.213   8.581  20.612  0.00  0.00    +0.000 A 
ENDROOT
BRANCH   1   9
ATOM      7  C   UNL     1       0.441  11.763  21.084  0.00  0.00    +0.000 C 
ATOM      8  O   UNL     1       1.621  12.097  21.174  0.00  0.00    +0.000 OA
ATOM      9  N   UNL     1      -0.037  10.633  20.439  0.00  0.00    +0.000 N 
ATOM     10  H   UNL     1      -1.035  10.620  20.222  0.00  0.00    +0.000 HD
BRANCH   7  11
ATOM     11  C   UNL     1      -0.653  12.649  21.660  0.00  0.00    +0.000 C 
BRANCH  11  12
ATOM     12  S   UNL     1      -2.120  12.609  20.583  0.00  0.00    +0.000 S 
BRANCH  12  17
ATOM     13  N   UNL     1      -4.672  13.012  21.516  0.00  0.00    +0.000 N 
ATOM     14  C   UNL     1      -5.316  12.842  22.717  0.00  0.00    +0.000 A 
ATOM     15  N   UNL     1      -4.485  12.362  23.609  0.00  0.00    +0.000 NA
ATOM     16  N   UNL     1      -3.259  12.225  23.009  0.00  0.00    +0.000 NA
ATOM     17  C   UNL     1      -3.382  12.620  21.762  0.00  0.00    +0.000 A 
BRANCH  14  18
ATOM     18  O   UNL     1      -6.586  13.106  22.980  0.00  0.00    +0.000 OA
ATOM     19  H   UNL     1      -6.798  12.860  23.892  0.00  0.00    +0.000 HD
ENDBRANCH  14  18
BRANCH  13  20
ATOM     20  C   UNL     1      -5.228  13.507  20.282  0.00  0.00    +0.000 C 
BRANCH  20  22
ATOM     21  C   UNL     1      -6.545  11.366  19.819  0.00  0.00    +0.000 C 
ATOM     22  C   UNL     1      -5.593  12.418  19.269  0.00  0.00    +0.000 C 
ENDBRANCH  20  22
ENDBRANCH  13  20
ENDBRANCH  12  17
ENDBRANCH  11  12
ENDBRANCH   7  11
ENDBRANCH   1   9
BRANCH   4  23
ATOM     23  C   UNL     1       3.156   6.562  18.063  0.00  0.00    +0.000 C 
ATOM     24  O   UNL     1       2.799   5.389  18.103  0.00  0.00    +0.000 OA
ATOM     25  N   UNL     1       4.362   7.016  17.550  0.00  0.00    +0.000 N 
ATOM     26  H   UNL     1       4.737   7.880  17.915  0.00  0.00    +0.000 HD
BRANCH  25  27
ATOM     27  C   UNL     1       5.264   6.131  16.921  0.00  0.00    +0.000 A 
ATOM     28  C   UNL     1       5.196   5.988  15.525  0.00  0.00    +0.000 A 
ATOM     29  C   UNL     1       6.096   5.175  14.839  0.00  0.00    +0.000 A 
ATOM     30  C   UNL     1       7.066   4.474  15.546  0.00  0.00    +0.000 A 
ATOM     31  C   UNL     1       7.149   4.613  16.934  0.00  0.00    +0.000 A 
ATOM     32  C   UNL     1       6.260   5.444  17.631  0.00  0.00    +0.000 A 
BRANCH  32  33
ATOM     33  O   UNL     1       6.483   5.514  18.981  0.00  0.00    +0.000 OA
ATOM     34  C   UNL     1       7.832   5.748  19.379  0.00  0.00    +0.000 C 
ENDBRANCH  32  33
ENDBRANCH  25  27
ENDBRANCH   4  23
TORSDOF 10
ENDMDL
MODEL 2
REMARK VINA RESULT:      -7.5      3.094     11.244
REMARK  Name = 
REMARK  12 active torsions:
REMARK  status: ('A' for Active; 'I' for Inactive)
REMARK    1  A    between atoms: C_1  and  C_2
REMARK    2  A    between atoms: C_2  and  C_3
REMARK    3  A    between atoms: C_3  and  N_4
REMARK    4  A    between atoms: C_5  and  O_6
REMARK    5  A    between atoms: C_9  and  S_10
REMARK    6  A    between atoms: S_10  and  C_11
REMARK    7  A    between atoms: C_11  and  C_12
REMARK    8  A    between atoms: N_14  and  C_15
REMARK    9  A    between atoms: C_18  and  C_19
REMARK   10  A    between atoms: N_21  and  C_22
REMARK   11  A    between atoms: C_27  and  O_28
REMARK   12  A    between atoms: O_28  and  C_29
REMARK                            x       y       z     vdW  Elec       q    Type
REMARK                         _______ _______ _______ _____ _____    ______ ____
ROOT
ATOM      1  C   UNL     1       2.255   7.057  19.179  0.00  0.00    +0.000 A 
ATOM      2  C   UNL     1       1.802   7.435  20.444  0.00  0.00    +0.000 A 
ATOM      3  C   UNL     1       1.202   8.680  20.638  0.00  0.00    +0.000 A 
ATOM      4  C   UNL     1       1.043   9.558  19.563  0.00  0.00    +0.000 A 
ATOM      5  C   UNL     1       1.506   9.199  18.296  0.00  0.00    +0.000 A 
ATOM      6  C   UNL     1       2.122   7.955  18.110  0.00  0.00    +0.000 A 
ENDROOT
BRANCH   1   9
ATOM      7  C   UNL     1       2.271   4.566  19.091  0.00  0.00    +0.000 C 
ATOM      8  O   UNL     1       1.113   4.360  19.452  0.00  0.00    +0.000 OA
ATOM      9  N   UNL     1       2.859   5.810  18.920  0.00  0.00    +0.000 N 
ATOM     10  H   UNL     1       3.724   5.834  18.377  0.00  0.00    +0.000 HD
BRANCH   7  11
ATOM     11  C   UNL     1       3.180   3.403  18.728  0.00  0.00    +0.000 C 
BRANCH  11  12
ATOM     12  S   UNL     1       4.920   3.861  19.004  0.00  0.00    +0.000 S 
BRANCH  12  17
ATOM     13  N   UNL     1       6.659   4.683  17.042  0.00  0.00    +0.000 N 
ATOM     14  C   UNL     1       6.593   4.852  15.680  0.00  0.00    +0.000 A 
ATOM     15  N   UNL     1       5.402   4.525  15.243  0.00  0.00    +0.000 NA
ATOM     16  N   UNL     1       4.647   4.149  16.325  0.00  0.00    +0.000 NA
ATOM     17  C   UNL     1       5.406   4.252  17.393  0.00  0.00    +0.000 A 
BRANCH  14  18
ATOM     18  O   UNL     1       7.564   5.274  14.886  0.00  0.00    +0.000 OA
ATOM     19  H   UNL     1       8.279   4.622  14.855  0.00  0.00    +0.000 HD
ENDBRANCH  14  18
BRANCH  13  20
ATOM     20  C   UNL     1       7.788   4.922  17.904  0.00  0.00    +0.000 C 
BRANCH  20  22
ATOM     21  C   UNL     1       7.836   7.476  17.848  0.00  0.00    +0.000 C 
ATOM     22  C   UNL     1       7.710   6.226  18.704  0.00  0.00    +0.000 C 
ENDBRANCH  20  22
ENDBRANCH  13  20
ENDBRANCH  12  17
ENDBRANCH  11  12
ENDBRANCH   7  11
ENDBRANCH   1   9
BRANCH   4  23
ATOM     23  C   UNL     1       0.467  10.894  19.833  0.00  0.00    +0.000 C 
ATOM     24  O   UNL     1       0.922  11.856  19.222  0.00  0.00    +0.000 OA
ATOM     25  N   UNL     1      -0.497  10.959  20.828  0.00  0.00    +0.000 N 
ATOM     26  H   UNL     1      -0.508  10.229  21.526  0.00  0.00    +0.000 HD
BRANCH  25  27
ATOM     27  C   UNL     1      -1.121  12.182  21.157  0.00  0.00    +0.000 A 
ATOM     28  C   UNL     1      -0.550  12.972  22.169  0.00  0.00    +0.000 A 
ATOM     29  C   UNL     1      -1.084  14.216  22.500  0.00  0.00    +0.000 A 
ATOM     30  C   UNL     1      -2.215  14.677  21.835  0.00  0.00    +0.000 A 
ATOM     31  C   UNL     1      -2.788  13.905  20.822  0.00  0.00    +0.000 A 
ATOM     32  C   UNL     1      -2.246  12.660  20.468  0.00  0.00    +0.000 A 
BRANCH  32  33
ATOM     33  O   UNL     1      -2.886  12.031  19.433  0.00  0.00    +0.000 OA
ATOM     34  C   UNL     1      -4.293  12.245  19.349  0.00  0.00    +0.000 C 
ENDBRANCH  32  33
ENDBRANCH  25  27
ENDBRANCH   4  23
TORSDOF 10
ENDMDL
MODEL 3
REMARK VINA RESULT:      -7.5      2.941      3.634
REMARK  Name = 
REMARK  12 active torsions:
REMARK  status: ('A' for Active; 'I' for Inactive)
REMARK    1  A    between atoms: C_1  and  C_2
REMARK    2  A    between atoms: C_2  and  C_3
REMARK    3  A    between atoms: C_3  and  N_4
REMARK    4  A    between atoms: C_5  and  O_6
REMARK    5  A    between atoms: C_9  and  S_10
REMARK    6  A    between atoms: S_10  and  C_11
REMARK    7  A    between atoms: C_11  and  C_12
REMARK    8  A    between atoms: N_14  and  C_15
REMARK    9  A    between atoms: C_18  and  C_19
REMARK   10  A    between atoms: N_21  and  C_22
REMARK   11  A    between atoms: C_27  and  O_28
REMARK   12  A    between atoms: O_28  and  C_29
REMARK                            x       y       z     vdW  Elec       q    Type
REMARK                         _______ _______ _______ _____ _____    ______ ____
ROOT
ATOM      1  C   UNL     1       0.684   8.885  20.576  0.00  0.00    +0.000 A 
ATOM      2  C   UNL     1       1.070   7.646  21.089  0.00  0.00    +0.000 A 
ATOM      3  C   UNL     1       1.926   6.816  20.363  0.00  0.00    +0.000 A 
ATOM      4  C   UNL     1       2.411   7.223  19.119  0.00  0.00    +0.000 A 
ATOM      5  C   UNL     1       2.021   8.453  18.587  0.00  0.00    +0.000 A 
ATOM      6  C   UNL     1       1.148   9.276  19.312  0.00  0.00    +0.000 A 
ENDROOT
BRANCH   1   9
ATOM      7  C   UNL     1      -0.076  10.118  22.605  0.00  0.00    +0.000 C 
ATOM      8  O   UNL     1       0.795   9.742  23.389  0.00  0.00    +0.000 OA
ATOM      9  N   UNL     1      -0.169   9.771  21.267  0.00  0.00    +0.000 N 
ATOM     10  H   UNL     1      -0.777  10.352  20.687  0.00  0.00    +0.000 HD
BRANCH   7  11
ATOM     11  C   UNL     1      -1.147  11.096  23.061  0.00  0.00    +0.000 C 
BRANCH  11  12
ATOM     12  S   UNL     1      -1.532  12.269  21.723  0.00  0.00    +0.000 S 
BRANCH  12  17
ATOM     13  N   UNL     1       0.785  13.676  21.277  0.00  0.00    +0.000 N 
ATOM     14  C   UNL     1       1.406  14.755  21.859  0.00  0.00    +0.000 A 
ATOM     15  N   UNL     1       0.688  15.201  22.861  0.00  0.00    +0.000 NA
ATOM     16  N   UNL     1      -0.422  14.400  22.970  0.00  0.00    +0.000 NA
ATOM     17  C   UNL     1      -0.351  13.493  22.022  0.00  0.00    +0.000 A 
BRANCH  14  18
ATOM     18  O   UNL     1       2.555  15.301  21.494  0.00  0.00    +0.000 OA
ATOM     19  H   UNL     1       2.543  16.253  21.666  0.00  0.00    +0.000 HD
ENDBRANCH  14  18
BRANCH  13  20
ATOM     20  C   UNL     1       1.238  12.905  20.147  0.00  0.00    +0.000 C 
BRANCH  20  22
ATOM     21  C   UNL     1      -0.447  13.113  18.237  0.00  0.00    +0.000 C 
ATOM     22  C   UNL     1       0.911  13.524  18.785  0.00  0.00    +0.000 C 
ENDBRANCH  20  22
ENDBRANCH  13  20
ENDBRANCH  12  17
ENDBRANCH  11  12
ENDBRANCH   7  11
ENDBRANCH   1   9
BRANCH   4  23
ATOM     23  C   UNL     1       3.258   6.278  18.356  0.00  0.00    +0.000 C 
ATOM     24  O   UNL     1       2.918   5.100  18.312  0.00  0.00    +0.000 OA
ATOM     25  N   UNL     1       4.425   6.797  17.817  0.00  0.00    +0.000 N 
ATOM     26  H   UNL     1       4.810   7.632  18.234  0.00  0.00    +0.000 HD
BRANCH  25  27
ATOM     27  C   UNL     1       5.299   5.986  17.060  0.00  0.00    +0.000 A 
ATOM     28  C   UNL     1       5.171   5.991  15.661  0.00  0.00    +0.000 A 
ATOM     29  C   UNL     1       6.041   5.259  14.855  0.00  0.00    +0.000 A 
ATOM     30  C   UNL     1       7.040   4.491  15.442  0.00  0.00    +0.000 A 
ATOM     31  C   UNL     1       7.182   4.483  16.833  0.00  0.00    +0.000 A 
ATOM     32  C   UNL     1       6.324   5.233  17.651  0.00  0.00    +0.000 A 
BRANCH  32  33
ATOM     33  O   UNL     1       6.605   5.161  18.990  0.00  0.00    +0.000 OA
ATOM     34  C   UNL     1       7.856   5.711  19.395  0.00  0.00    +0.000 C 
ENDBRANCH  32  33
ENDBRANCH  25  27
ENDBRANCH   4  23
TORSDOF 10
ENDMDL
MODEL 4
REMARK VINA RESULT:      -7.5      1.718      2.225
REMARK  Name = 
REMARK  12 active torsions:
REMARK  status: ('A' for Active; 'I' for Inactive)
REMARK    1  A    between atoms: C_1  and  C_2
REMARK    2  A    between atoms: C_2  and  C_3
REMARK    3  A    between atoms: C_3  and  N_4
REMARK    4  A    between atoms: C_5  and  O_6
REMARK    5  A    between atoms: C_9  and  S_10
REMARK    6  A    between atoms: S_10  and  C_11
REMARK    7  A    between atoms: C_11  and  C_12
REMARK    8  A    between atoms: N_14  and  C_15
REMARK    9  A    between atoms: C_18  and  C_19
REMARK   10  A    between atoms: N_21  and  C_22
REMARK   11  A    between atoms: C_27  and  O_28
REMARK   12  A    between atoms: O_28  and  C_29
REMARK                            x       y       z     vdW  Elec       q    Type
REMARK                         _______ _______ _______ _____ _____    ______ ____
ROOT
ATOM      1  C   UNL     1       0.389   9.496  20.235  0.00  0.00    +0.000 A 
ATOM      2  C   UNL     1       0.824   8.443  21.040  0.00  0.00    +0.000 A 
ATOM      3  C   UNL     1       1.785   7.545  20.572  0.00  0.00    +0.000 A 
ATOM      4  C   UNL     1       2.325   7.698  19.293  0.00  0.00    +0.000 A 
ATOM      5  C   UNL     1       1.887   8.738  18.471  0.00  0.00    +0.000 A 
ATOM      6  C   UNL     1       0.911   9.627  18.940  0.00  0.00    +0.000 A 
ENDROOT
BRANCH   1   9
ATOM      7  C   UNL     1      -0.312  11.614  21.348  0.00  0.00    +0.000 C 
ATOM      8  O   UNL     1       0.799  12.037  21.660  0.00  0.00    +0.000 OA
ATOM      9  N   UNL     1      -0.570  10.440  20.657  0.00  0.00    +0.000 N 
ATOM     10  H   UNL     1      -1.501  10.348  20.246  0.00  0.00    +0.000 HD
BRANCH   7  11
ATOM     11  C   UNL     1      -1.559  12.424  21.665  0.00  0.00    +0.000 C 
BRANCH  11  12
ATOM     12  S   UNL     1      -2.278  13.092  20.132  0.00  0.00    +0.000 S 
BRANCH  12  17
ATOM     13  N   UNL     1      -4.648  11.968  19.316  0.00  0.00    +0.000 N 
ATOM     14  C   UNL     1      -5.873  11.734  19.892  0.00  0.00    +0.000 A 
ATOM     15  N   UNL     1      -5.873  12.152  21.134  0.00  0.00    +0.000 NA
ATOM     16  N   UNL     1      -4.640  12.694  21.394  0.00  0.00    +0.000 NA
ATOM     17  C   UNL     1      -3.919  12.583  20.301  0.00  0.00    +0.000 A 
BRANCH  14  18
ATOM     18  O   UNL     1      -6.923  11.168  19.319  0.00  0.00    +0.000 OA
ATOM     19  H   UNL     1      -7.062  10.280  19.677  0.00  0.00    +0.000 HD
ENDBRANCH  14  18
BRANCH  13  20
ATOM     20  C   UNL     1      -4.233  11.652  17.973  0.00  0.00    +0.000 C 
BRANCH  20  22
ATOM     21  C   UNL     1      -2.420   9.992  17.275  0.00  0.00    +0.000 C 
ATOM     22  C   UNL     1      -3.849  10.185  17.757  0.00  0.00    +0.000 C 
ENDBRANCH  20  22
ENDBRANCH  13  20
ENDBRANCH  12  17
ENDBRANCH  11  12
ENDBRANCH   7  11
ENDBRANCH   1   9
BRANCH   4  23
ATOM     23  C   UNL     1       3.287   6.680  18.815  0.00  0.00    +0.000 C 
ATOM     24  O   UNL     1       3.615   5.784  19.586  0.00  0.00    +0.000 OA
ATOM     25  N   UNL     1       3.807   6.874  17.544  0.00  0.00    +0.000 N 
ATOM     26  H   UNL     1       3.798   7.811  17.167  0.00  0.00    +0.000 HD
BRANCH  25  27
ATOM     27  C   UNL     1       4.722   5.957  16.984  0.00  0.00    +0.000 A 
ATOM     28  C   UNL     1       4.272   4.658  16.692  0.00  0.00    +0.000 A 
ATOM     29  C   UNL     1       5.110   3.724  16.085  0.00  0.00    +0.000 A 
ATOM     30  C   UNL     1       6.421   4.072  15.782  0.00  0.00    +0.000 A 
ATOM     31  C   UNL     1       6.879   5.363  16.061  0.00  0.00    +0.000 A 
ATOM     32  C   UNL     1       6.037   6.316  16.653  0.00  0.00    +0.000 A 
BRANCH  32  33
ATOM     33  O   UNL     1       6.607   7.548  16.833  0.00  0.00    +0.000 OA
ATOM     34  C   UNL     1       7.691   7.605  17.756  0.00  0.00    +0.000 C 
ENDBRANCH  32  33
ENDBRANCH  25  27
ENDBRANCH   4  23
TORSDOF 10
ENDMDL
MODEL 5
REMARK VINA RESULT:      -7.4      3.899     10.447
REMARK  Name = 
REMARK  12 active torsions:
REMARK  status: ('A' for Active; 'I' for Inactive)
REMARK    1  A    between atoms: C_1  and  C_2
REMARK    2  A    between atoms: C_2  and  C_3
REMARK    3  A    between atoms: C_3  and  N_4
REMARK    4  A    between atoms: C_5  and  O_6
REMARK    5  A    between atoms: C_9  and  S_10
REMARK    6  A    between atoms: S_10  and  C_11
REMARK    7  A    between atoms: C_11  and  C_12
REMARK    8  A    between atoms: N_14  and  C_15
REMARK    9  A    between atoms: C_18  and  C_19
REMARK   10  A    between atoms: N_21  and  C_22
REMARK   11  A    between atoms: C_27  and  O_28
REMARK   12  A    between atoms: O_28  and  C_29
REMARK                            x       y       z     vdW  Elec       q    Type
REMARK                         _______ _______ _______ _____ _____    ______ ____
ROOT
ATOM      1  C   UNL     1       2.123   6.269  19.515  0.00  0.00    +0.000 A 
ATOM      2  C   UNL     1       1.532   6.799  20.663  0.00  0.00    +0.000 A 
ATOM      3  C   UNL     1       1.223   8.159  20.735  0.00  0.00    +0.000 A 
ATOM      4  C   UNL     1       1.495   8.999  19.654  0.00  0.00    +0.000 A 
ATOM      5  C   UNL     1       2.101   8.485  18.506  0.00  0.00    +0.000 A 
ATOM      6  C   UNL     1       2.424   7.123  18.444  0.00  0.00    +0.000 A 
ENDROOT
BRANCH   1   9
ATOM      7  C   UNL     1       1.942   4.033  18.427  0.00  0.00    +0.000 C 
ATOM      8  O   UNL     1       1.164   4.330  17.521  0.00  0.00    +0.000 OA
ATOM      9  N   UNL     1       2.449   4.903  19.380  0.00  0.00    +0.000 N 
ATOM     10  H   UNL     1       3.269   4.584  19.898  0.00  0.00    +0.000 HD
BRANCH   7  11
ATOM     11  C   UNL     1       2.484   2.617  18.540  0.00  0.00    +0.000 C 
BRANCH  11  12
ATOM     12  S   UNL     1       3.930   2.413  17.454  0.00  0.00    +0.000 S 
BRANCH  12  17
ATOM     13  N   UNL     1       5.484   4.672  17.285  0.00  0.00    +0.000 N 
ATOM     14  C   UNL     1       6.211   5.432  18.169  0.00  0.00    +0.000 A 
ATOM     15  N   UNL     1       6.111   4.935  19.378  0.00  0.00    +0.000 NA
ATOM     16  N   UNL     1       5.322   3.814  19.306  0.00  0.00    +0.000 NA
ATOM     17  C   UNL     1       4.958   3.665  18.052  0.00  0.00    +0.000 A 
BRANCH  14  18
ATOM     18  O   UNL     1       6.918   6.514  17.889  0.00  0.00    +0.000 OA
ATOM     19  H   UNL     1       7.732   6.528  18.414  0.00  0.00    +0.000 HD
ENDBRANCH  14  18
BRANCH  13  20
ATOM     20  C   UNL     1       5.325   4.882  15.868  0.00  0.00    +0.000 C 
BRANCH  20  22
ATOM     21  C   UNL     1       6.020   3.898  13.615  0.00  0.00    +0.000 C 
ATOM     22  C   UNL     1       6.458   4.309  15.012  0.00  0.00    +0.000 C 
ENDBRANCH  20  22
ENDBRANCH  13  20
ENDBRANCH  12  17
ENDBRANCH  11  12
ENDBRANCH   7  11
ENDBRANCH   1   9
BRANCH   4  23
ATOM     23  C   UNL     1       1.216  10.445  19.805  0.00  0.00    +0.000 C 
ATOM     24  O   UNL     1       0.811  10.847  20.891  0.00  0.00    +0.000 OA
ATOM     25  N   UNL     1       1.359  11.222  18.665  0.00  0.00    +0.000 N 
ATOM     26  H   UNL     1       1.295  10.762  17.768  0.00  0.00    +0.000 HD
BRANCH  25  27
ATOM     27  C   UNL     1       1.129  12.614  18.701  0.00  0.00    +0.000 A 
ATOM     28  C   UNL     1       2.235  13.470  18.841  0.00  0.00    +0.000 A 
ATOM     29  C   UNL     1       2.081  14.855  18.824  0.00  0.00    +0.000 A 
ATOM     30  C   UNL     1       0.811  15.404  18.688  0.00  0.00    +0.000 A 
ATOM     31  C   UNL     1      -0.296  14.564  18.540  0.00  0.00    +0.000 A 
ATOM     32  C   UNL     1      -0.148  13.169  18.536  0.00  0.00    +0.000 A 
BRANCH  32  33
ATOM     33  O   UNL     1      -1.312  12.472  18.344  0.00  0.00    +0.000 OA
ATOM     34  C   UNL     1      -2.153  12.336  19.487  0.00  0.00    +0.000 C 
ENDBRANCH  32  33
ENDBRANCH  25  27
ENDBRANCH   4  23
TORSDOF 10
ENDMDL
MODEL 6
REMARK VINA RESULT:      -7.4      3.879     10.810
REMARK  Name = 
REMARK  12 active torsions:
REMARK  status: ('A' for Active; 'I' for Inactive)
REMARK    1  A    between atoms: C_1  and  C_2
REMARK    2  A    between atoms: C_2  and  C_3
REMARK    3  A    between atoms: C_3  and  N_4
REMARK    4  A    between atoms: C_5  and  O_6
REMARK    5  A    between atoms: C_9  and  S_10
REMARK    6  A    between atoms: S_10  and  C_11
REMARK    7  A    between atoms: C_11  and  C_12
REMARK    8  A    between atoms: N_14  and  C_15
REMARK    9  A    between atoms: C_18  and  C_19
REMARK   10  A    between atoms: N_21  and  C_22
REMARK   11  A    between atoms: C_27  and  O_28
REMARK   12  A    between atoms: O_28  and  C_29
REMARK                            x       y       z     vdW  Elec       q    Type
REMARK                         _______ _______ _______ _____ _____    ______ ____
ROOT
ATOM      1  C   UNL     1       2.043   7.344  19.969  0.00  0.00    +0.000 A 
ATOM      2  C   UNL     1       2.128   8.180  18.855  0.00  0.00    +0.000 A 
ATOM      3  C   UNL     1       1.552   9.451  18.880  0.00  0.00    +0.000 A 
ATOM      4  C   UNL     1       0.892   9.901  20.025  0.00  0.00    +0.000 A 
ATOM      5  C   UNL     1       0.785   9.069  21.141  0.00  0.00    +0.000 A 
ATOM      6  C   UNL     1       1.351   7.788  21.105  0.00  0.00    +0.000 A 
ENDROOT
BRANCH   1   9
ATOM      7  C   UNL     1       2.462   5.065  19.049  0.00  0.00    +0.000 C 
ATOM      8  O   UNL     1       1.842   5.174  17.992  0.00  0.00    +0.000 OA
ATOM      9  N   UNL     1       2.614   6.055  20.007  0.00  0.00    +0.000 N 
ATOM     10  H   UNL     1       3.355   5.913  20.695  0.00  0.00    +0.000 HD
BRANCH   7  11
ATOM     11  C   UNL     1       3.200   3.776  19.376  0.00  0.00    +0.000 C 
BRANCH  11  12
ATOM     12  S   UNL     1       4.187   3.241  17.944  0.00  0.00    +0.000 S 
BRANCH  12  17
ATOM     13  N   UNL     1       5.929   5.077  16.875  0.00  0.00    +0.000 N 
ATOM     14  C   UNL     1       6.907   5.905  17.370  0.00  0.00    +0.000 A 
ATOM     15  N   UNL     1       7.001   5.765  18.669  0.00  0.00    +0.000 NA
ATOM     16  N   UNL     1       6.087   4.817  19.055  0.00  0.00    +0.000 NA
ATOM     17  C   UNL     1       5.457   4.410  17.977  0.00  0.00    +0.000 A 
BRANCH  14  18
ATOM     18  O   UNL     1       7.665   6.739  16.675  0.00  0.00    +0.000 OA
ATOM     19  H   UNL     1       7.727   7.591  17.129  0.00  0.00    +0.000 HD
ENDBRANCH  14  18
BRANCH  13  20
ATOM     20  C   UNL     1       5.507   4.934  15.505  0.00  0.00    +0.000 C 
BRANCH  20  22
ATOM     21  C   UNL     1       5.992   3.775  13.279  0.00  0.00    +0.000 C 
ATOM     22  C   UNL     1       6.563   4.326  14.577  0.00  0.00    +0.000 C 
ENDBRANCH  20  22
ENDBRANCH  13  20
ENDBRANCH  12  17
ENDBRANCH  11  12
ENDBRANCH   7  11
ENDBRANCH   1   9
BRANCH   4  23
ATOM     23  C   UNL     1       0.235  11.227  19.977  0.00  0.00    +0.000 C 
ATOM     24  O   UNL     1      -0.975  11.269  19.784  0.00  0.00    +0.000 OA
ATOM     25  N   UNL     1       1.070  12.330  20.075  0.00  0.00    +0.000 N 
ATOM     26  H   UNL     1       2.042  12.212  19.825  0.00  0.00    +0.000 HD
BRANCH  25  27
ATOM     27  C   UNL     1       0.548  13.642  20.053  0.00  0.00    +0.000 A 
ATOM     28  C   UNL     1       0.400  14.281  18.811  0.00  0.00    +0.000 A 
ATOM     29  C   UNL     1      -0.164  15.553  18.718  0.00  0.00    +0.000 A 
ATOM     30  C   UNL     1      -0.567  16.212  19.873  0.00  0.00    +0.000 A 
ATOM     31  C   UNL     1      -0.432  15.584  21.114  0.00  0.00    +0.000 A 
ATOM     32  C   UNL     1       0.116  14.296  21.216  0.00  0.00    +0.000 A 
BRANCH  32  33
ATOM     33  O   UNL     1       0.152  13.790  22.489  0.00  0.00    +0.000 OA
ATOM     34  C   UNL     1      -1.096  13.355  23.022  0.00  0.00    +0.000 C 
ENDBRANCH  32  33
ENDBRANCH  25  27
ENDBRANCH   4  23
TORSDOF 10
ENDMDL
MODEL 7
REMARK VINA RESULT:      -7.3      3.633     10.923
REMARK  Name = 
REMARK  12 active torsions:
REMARK  status: ('A' for Active; 'I' for Inactive)
REMARK    1  A    between atoms: C_1  and  C_2
REMARK    2  A    between atoms: C_2  and  C_3
REMARK    3  A    between atoms: C_3  and  N_4
REMARK    4  A    between atoms: C_5  and  O_6
REMARK    5  A    between atoms: C_9  and  S_10
REMARK    6  A    between atoms: S_10  and  C_11
REMARK    7  A    between atoms: C_11  and  C_12
REMARK    8  A    between atoms: N_14  and  C_15
REMARK    9  A    between atoms: C_18  and  C_19
REMARK   10  A    between atoms: N_21  and  C_22
REMARK   11  A    between atoms: C_27  and  O_28
REMARK   12  A    between atoms: O_28  and  C_29
REMARK                            x       y       z     vdW  Elec       q    Type
REMARK                         _______ _______ _______ _____ _____    ______ ____
ROOT
ATOM      1  C   UNL     1       2.350   6.950  18.684  0.00  0.00    +0.000 A 
ATOM      2  C   UNL     1       2.075   8.006  17.814  0.00  0.00    +0.000 A 
ATOM      3  C   UNL     1       1.460   9.167  18.285  0.00  0.00    +0.000 A 
ATOM      4  C   UNL     1       1.121   9.286  19.634  0.00  0.00    +0.000 A 
ATOM      5  C   UNL     1       1.376   8.231  20.512  0.00  0.00    +0.000 A 
ATOM      6  C   UNL     1       1.979   7.061  20.032  0.00  0.00    +0.000 A 
ENDROOT
BRANCH   1   9
ATOM      7  C   UNL     1       2.345   4.632  17.766  0.00  0.00    +0.000 C 
ATOM      8  O   UNL     1       1.138   4.517  17.558  0.00  0.00    +0.000 OA
ATOM      9  N   UNL     1       2.978   5.757  18.270  0.00  0.00    +0.000 N 
ATOM     10  H   UNL     1       3.991   5.803  18.147  0.00  0.00    +0.000 HD
BRANCH   7  11
ATOM     11  C   UNL     1       3.296   3.500  17.411  0.00  0.00    +0.000 C 
BRANCH  11  12
ATOM     12  S   UNL     1       4.608   3.370  18.666  0.00  0.00    +0.000 S 
BRANCH  12  17
ATOM     13  N   UNL     1       6.244   4.640  16.862  0.00  0.00    +0.000 N 
ATOM     14  C   UNL     1       7.020   5.773  16.869  0.00  0.00    +0.000 A 
ATOM     15  N   UNL     1       6.929   6.374  18.030  0.00  0.00    +0.000 NA
ATOM     16  N   UNL     1       6.096   5.626  18.824  0.00  0.00    +0.000 NA
ATOM     17  C   UNL     1       5.697   4.593  18.118  0.00  0.00    +0.000 A 
BRANCH  14  18
ATOM     18  O   UNL     1       7.763   6.232  15.874  0.00  0.00    +0.000 OA
ATOM     19  H   UNL     1       8.664   5.886  15.942  0.00  0.00    +0.000 HD
ENDBRANCH  14  18
BRANCH  13  20
ATOM     20  C   UNL     1       6.061   3.706  15.779  0.00  0.00    +0.000 C 
BRANCH  20  22
ATOM     21  C   UNL     1       6.313   3.878  13.242  0.00  0.00    +0.000 C 
ATOM     22  C   UNL     1       5.553   4.335  14.478  0.00  0.00    +0.000 C 
ENDBRANCH  20  22
ENDBRANCH  13  20
ENDBRANCH  12  17
ENDBRANCH  11  12
ENDBRANCH   7  11
ENDBRANCH   1   9
BRANCH   4  23
ATOM     23  C   UNL     1       0.406  10.506  20.070  0.00  0.00    +0.000 C 
ATOM     24  O   UNL     1       0.009  11.285  19.210  0.00  0.00    +0.000 OA
ATOM     25  N   UNL     1       0.316  10.710  21.439  0.00  0.00    +0.000 N 
ATOM     26  H   UNL     1       0.997  10.257  22.031  0.00  0.00    +0.000 HD
BRANCH  25  27
ATOM     27  C   UNL     1      -0.356  11.835  21.964  0.00  0.00    +0.000 A 
ATOM     28  C   UNL     1      -1.600  11.639  22.587  0.00  0.00    +0.000 A 
ATOM     29  C   UNL     1      -2.285  12.700  23.177  0.00  0.00    +0.000 A 
ATOM     30  C   UNL     1      -1.743  13.979  23.131  0.00  0.00    +0.000 A 
ATOM     31  C   UNL     1      -0.503  14.186  22.520  0.00  0.00    +0.000 A 
ATOM     32  C   UNL     1       0.204  13.121  21.941  0.00  0.00    +0.000 A 
BRANCH  32  33
ATOM     33  O   UNL     1       1.421  13.463  21.414  0.00  0.00    +0.000 OA
ATOM     34  C   UNL     1       1.560  14.818  20.993  0.00  0.00    +0.000 C 
ENDBRANCH  32  33
ENDBRANCH  25  27
ENDBRANCH   4  23
TORSDOF 10
ENDMDL
MODEL 8
REMARK VINA RESULT:      -7.3      3.209     11.151
REMARK  Name = 
REMARK  12 active torsions:
REMARK  status: ('A' for Active; 'I' for Inactive)
REMARK    1  A    between atoms: C_1  and  C_2
REMARK    2  A    between atoms: C_2  and  C_3
REMARK    3  A    between atoms: C_3  and  N_4
REMARK    4  A    between atoms: C_5  and  O_6
REMARK    5  A    between atoms: C_9  and  S_10
REMARK    6  A    between atoms: S_10  and  C_11
REMARK    7  A    between atoms: C_11  and  C_12
REMARK    8  A    between atoms: N_14  and  C_15
REMARK    9  A    between atoms: C_18  and  C_19
REMARK   10  A    between atoms: N_21  and  C_22
REMARK   11  A    between atoms: C_27  and  O_28
REMARK   12  A    between atoms: O_28  and  C_29
REMARK                            x       y       z     vdW  Elec       q    Type
REMARK                         _______ _______ _______ _____ _____    ______ ____
ROOT
ATOM      1  C   UNL     1       2.254   7.565  19.324  0.00  0.00    +0.000 A 
ATOM      2  C   UNL     1       2.042   8.480  18.292  0.00  0.00    +0.000 A 
ATOM      3  C   UNL     1       1.342   9.664  18.529  0.00  0.00    +0.000 A 
ATOM      4  C   UNL     1       0.853   9.947  19.806  0.00  0.00    +0.000 A 
ATOM      5  C   UNL     1       1.043   9.033  20.844  0.00  0.00    +0.000 A 
ATOM      6  C   UNL     1       1.733   7.838  20.597  0.00  0.00    +0.000 A 
ENDROOT
BRANCH   1   9
ATOM      7  C   UNL     1       2.416   5.084  19.139  0.00  0.00    +0.000 C 
ATOM      8  O   UNL     1       1.221   4.811  19.238  0.00  0.00    +0.000 OA
ATOM      9  N   UNL     1       2.962   6.358  19.148  0.00  0.00    +0.000 N 
ATOM     10  H   UNL     1       3.919   6.446  18.802  0.00  0.00    +0.000 HD
BRANCH   7  11
ATOM     11  C   UNL     1       3.441   3.980  18.930  0.00  0.00    +0.000 C 
BRANCH  11  12
ATOM     12  S   UNL     1       5.123   4.641  19.144  0.00  0.00    +0.000 S 
BRANCH  12  17
ATOM     13  N   UNL     1       6.761   5.291  17.037  0.00  0.00    +0.000 N 
ATOM     14  C   UNL     1       6.874   4.902  15.724  0.00  0.00    +0.000 A 
ATOM     15  N   UNL     1       5.972   3.993  15.446  0.00  0.00    +0.000 NA
ATOM     16  N   UNL     1       5.227   3.781  16.579  0.00  0.00    +0.000 NA
ATOM     17  C   UNL     1       5.705   4.564  17.520  0.00  0.00    +0.000 A 
BRANCH  14  18
ATOM     18  O   UNL     1       7.750   5.346  14.838  0.00  0.00    +0.000 OA
ATOM     19  H   UNL     1       7.392   5.264  13.943  0.00  0.00    +0.000 HD
ENDBRANCH  14  18
BRANCH  13  20
ATOM     20  C   UNL     1       7.566   6.259  17.739  0.00  0.00    +0.000 C 
BRANCH  20  22
ATOM     21  C   UNL     1       8.207   8.715  18.040  0.00  0.00    +0.000 C 
ATOM     22  C   UNL     1       7.299   7.713  17.342  0.00  0.00    +0.000 C 
ENDBRANCH  20  22
ENDBRANCH  13  20
ENDBRANCH  12  17
ENDBRANCH  11  12
ENDBRANCH   7  11
ENDBRANCH   1   9
BRANCH   4  23
ATOM     23  C   UNL     1       0.055  11.180  19.991  0.00  0.00    +0.000 C 
ATOM     24  O   UNL     1      -0.002  11.979  19.062  0.00  0.00    +0.000 OA
ATOM     25  N   UNL     1      -0.502  11.369  21.247  0.00  0.00    +0.000 N 
ATOM     26  H   UNL     1      -0.079  10.891  22.030  0.00  0.00    +0.000 HD
BRANCH  25  27
ATOM     27  C   UNL     1      -1.292  12.505  21.529  0.00  0.00    +0.000 A 
ATOM     28  C   UNL     1      -2.680  12.420  21.324  0.00  0.00    +0.000 A 
ATOM     29  C   UNL     1      -3.521  13.486  21.639  0.00  0.00    +0.000 A 
ATOM     30  C   UNL     1      -2.979  14.663  22.143  0.00  0.00    +0.000 A 
ATOM     31  C   UNL     1      -1.601  14.758  22.358  0.00  0.00    +0.000 A 
ATOM     32  C   UNL     1      -0.749  13.683  22.063  0.00  0.00    +0.000 A 
BRANCH  32  33
ATOM     33  O   UNL     1       0.570  13.902  22.360  0.00  0.00    +0.000 OA
ATOM     34  C   UNL     1       1.263  14.797  21.494  0.00  0.00    +0.000 C 
ENDBRANCH  32  33
ENDBRANCH  25  27
ENDBRANCH   4  23
TORSDOF 10
ENDMDL
MODEL 9
REMARK VINA RESULT:      -7.3      3.259     11.204
REMARK  Name = 
REMARK  12 active torsions:
REMARK  status: ('A' for Active; 'I' for Inactive)
REMARK    1  A    between atoms: C_1  and  C_2
REMARK    2  A    between atoms: C_2  and  C_3
REMARK    3  A    between atoms: C_3  and  N_4
REMARK    4  A    between atoms: C_5  and  O_6
REMARK    5  A    between atoms: C_9  and  S_10
REMARK    6  A    between atoms: S_10  and  C_11
REMARK    7  A    between atoms: C_11  and  C_12
REMARK    8  A    between atoms: N_14  and  C_15
REMARK    9  A    between atoms: C_18  and  C_19
REMARK   10  A    between atoms: N_21  and  C_22
REMARK   11  A    between atoms: C_27  and  O_28
REMARK   12  A    between atoms: O_28  and  C_29
REMARK                            x       y       z     vdW  Elec       q    Type
REMARK                         _______ _______ _______ _____ _____    ______ ____
ROOT
ATOM      1  C   UNL     1       2.362   6.915  18.766  0.00  0.00    +0.000 A 
ATOM      2  C   UNL     1       2.200   8.000  17.903  0.00  0.00    +0.000 A 
ATOM      3  C   UNL     1       1.663   9.201  18.371  0.00  0.00    +0.000 A 
ATOM      4  C   UNL     1       1.291   9.330  19.710  0.00  0.00    +0.000 A 
ATOM      5  C   UNL     1       1.433   8.247  20.581  0.00  0.00    +0.000 A 
ATOM      6  C   UNL     1       1.957   7.039  20.103  0.00  0.00    +0.000 A 
ENDROOT
BRANCH   1   9
ATOM      7  C   UNL     1       2.214   4.638  17.762  0.00  0.00    +0.000 C 
ATOM      8  O   UNL     1       1.021   4.645  17.460  0.00  0.00    +0.000 OA
ATOM      9  N   UNL     1       2.908   5.682  18.355  0.00  0.00    +0.000 N 
ATOM     10  H   UNL     1       3.927   5.635  18.309  0.00  0.00    +0.000 HD
BRANCH   7  11
ATOM     11  C   UNL     1       3.081   3.433  17.436  0.00  0.00    +0.000 C 
BRANCH  11  12
ATOM     12  S   UNL     1       4.755   3.667  18.110  0.00  0.00    +0.000 S 
BRANCH  12  17
ATOM     13  N   UNL     1       6.251   5.206  16.395  0.00  0.00    +0.000 N 
ATOM     14  C   UNL     1       6.832   5.021  15.164  0.00  0.00    +0.000 A 
ATOM     15  N   UNL     1       6.606   3.803  14.737  0.00  0.00    +0.000 NA
ATOM     16  N   UNL     1       5.845   3.163  15.683  0.00  0.00    +0.000 NA
ATOM     17  C   UNL     1       5.636   4.011  16.665  0.00  0.00    +0.000 A 
BRANCH  14  18
ATOM     18  O   UNL     1       7.530   5.911  14.476  0.00  0.00    +0.000 OA
ATOM     19  H   UNL     1       6.935   6.491  13.979  0.00  0.00    +0.000 HD
ENDBRANCH  14  18
BRANCH  13  20
ATOM     20  C   UNL     1       6.272   6.395  17.208  0.00  0.00    +0.000 C 
BRANCH  20  22
ATOM     21  C   UNL     1       7.963   8.240  17.728  0.00  0.00    +0.000 C 
ATOM     22  C   UNL     1       7.650   6.752  17.773  0.00  0.00    +0.000 C 
ENDBRANCH  20  22
ENDBRANCH  13  20
ENDBRANCH  12  17
ENDBRANCH  11  12
ENDBRANCH   7  11
ENDBRANCH   1   9
BRANCH   4  23
ATOM     23  C   UNL     1       0.660  10.598  20.142  0.00  0.00    +0.000 C 
ATOM     24  O   UNL     1       1.268  11.645  19.943  0.00  0.00    +0.000 OA
ATOM     25  N   UNL     1      -0.545  10.486  20.818  0.00  0.00    +0.000 N 
ATOM     26  H   UNL     1      -0.751   9.611  21.278  0.00  0.00    +0.000 HD
BRANCH  25  27
ATOM     27  C   UNL     1      -1.238  11.632  21.263  0.00  0.00    +0.000 A 
ATOM     28  C   UNL     1      -1.183  11.959  22.628  0.00  0.00    +0.000 A 
ATOM     29  C   UNL     1      -1.797  13.110  23.120  0.00  0.00    +0.000 A 
ATOM     30  C   UNL     1      -2.496  13.939  22.252  0.00  0.00    +0.000 A 
ATOM     31  C   UNL     1      -2.553  13.630  20.890  0.00  0.00    +0.000 A 
ATOM     32  C   UNL     1      -1.921  12.485  20.383  0.00  0.00    +0.000 A 
BRANCH  32  33
ATOM     33  O   UNL     1      -2.027  12.328  19.026  0.00  0.00    +0.000 OA
ATOM     34  C   UNL     1      -3.163  11.599  18.569  0.00  0.00    +0.000 C 
ENDBRANCH  32  33
ENDBRANCH  25  27
ENDBRANCH   4  23
TORSDOF 10
ENDMDL
