MODEL 1
REMARK VINA RESULT:      -8.0      0.000      0.000
REMARK  Name = 
REMARK  3 active torsions:
REMARK  status: ('A' for Active; 'I' for Inactive)
REMARK    1  A    between atoms: C_13  and  N_14
REMARK    2  A    between atoms: N_14  and  C_15
REMARK    3  A    between atoms: C_15  and  C_16
REMARK                            x       y       z     vdW  Elec       q    Type
REMARK                         _______ _______ _______ _____ _____    ______ ____
ROOT
ATOM      1  C   UNL     1      -0.985  10.833  23.002  0.00  0.00    +0.000 A 
ATOM      2  C   UNL     1      -0.813  11.555  21.827  0.00  0.00    +0.000 A 
ATOM      3  C   UNL     1      -0.094  10.991  20.771  0.00  0.00    +0.000 A 
ATOM      4  C   UNL     1       0.424   9.702  20.925  0.00  0.00    +0.000 A 
ATOM      5  N   UNL     1       1.152   9.109  19.841  0.00  0.00    +0.000 N 
ATOM      6  N   UNL     1       1.434   9.814  18.701  0.00  0.00    +0.000 NA
ATOM      7  C   UNL     1       2.148   8.964  17.949  0.00  0.00    +0.000 A 
ATOM      8  C   UNL     1       2.314   7.712  18.551  0.00  0.00    +0.000 A 
ATOM      9  C   UNL     1       1.647   7.816  19.754  0.00  0.00    +0.000 A 
ATOM     10  C   UNL     1       1.441   6.734  20.744  0.00  0.00    +0.000 C 
ATOM     11  C   UNL     1       2.089   5.408  20.310  0.00  0.00    +0.000 C 
ATOM     12  C   UNL     1       2.408   5.236  18.812  0.00  0.00    +0.000 C 
ATOM     13  C   UNL     1       2.994   6.469  18.074  0.00  0.00    +0.000 C 
ATOM     14  N   UNL     1       0.250   8.985  22.072  0.00  0.00    +0.000 NA
ATOM     15  C   UNL     1      -0.436   9.567  23.079  0.00  0.00    +0.000 A 
ENDROOT
BRANCH  13  16
ATOM     16  N   UNL     1       4.437   6.661  18.274  0.00  0.00    +0.000 NA
ATOM     17  H   UNL     1       4.795   7.217  17.498  0.00  0.00    +0.000 HD
BRANCH  16  18
ATOM     18  C   UNL     1       5.177   5.396  18.289  0.00  0.00    +0.000 C 
BRANCH  18  19
ATOM     19  C   UNL     1       5.801   5.106  16.950  0.00  0.00    +0.000 A 
ATOM     20  C   UNL     1       5.317   4.084  16.127  0.00  0.00    +0.000 A 
ATOM     21  C   UNL     1       5.915   3.846  14.892  0.00  0.00    +0.000 A 
ATOM     22  C   UNL     1       6.980   4.647  14.517  0.00  0.00    +0.000 A 
ATOM     23  N   UNL     1       7.467   5.654  15.272  0.00  0.00    +0.000 NA
ATOM     24  C   UNL     1       6.867   5.860  16.468  0.00  0.00    +0.000 A 
ENDBRANCH  18  19
ENDBRANCH  16  18
ENDBRANCH  13  16
TORSDOF 3
ENDMDL
MODEL 2
REMARK VINA RESULT:      -7.9      1.014      1.244
REMARK  Name = 
REMARK  3 active torsions:
REMARK  status: ('A' for Active; 'I' for Inactive)
REMARK    1  A    between atoms: C_13  and  N_14
REMARK    2  A    between atoms: N_14  and  C_15
REMARK    3  A    between atoms: C_15  and  C_16
REMARK                            x       y       z     vdW  Elec       q    Type
REMARK                         _______ _______ _______ _____ _____    ______ ____
ROOT
ATOM      1  C   UNL     1      -0.518  11.552  20.996  0.00  0.00    +0.000 A 
ATOM      2  C   UNL     1       0.000  11.826  19.736  0.00  0.00    +0.000 A 
ATOM      3  C   UNL     1       0.767  10.859  19.082  0.00  0.00    +0.000 A 
ATOM      4  C   UNL     1       0.980   9.631  19.714  0.00  0.00    +0.000 A 
ATOM      5  N   UNL     1       1.754   8.627  19.044  0.00  0.00    +0.000 N 
ATOM      6  N   UNL     1       2.369   8.882  17.847  0.00  0.00    +0.000 NA
ATOM      7  C   UNL     1       3.019   7.746  17.555  0.00  0.00    +0.000 A 
ATOM      8  C   UNL     1       2.822   6.744  18.513  0.00  0.00    +0.000 A 
ATOM      9  C   UNL     1       1.987   7.320  19.447  0.00  0.00    +0.000 A 
ATOM     10  C   UNL     1       1.397   6.654  20.631  0.00  0.00    +0.000 C 
ATOM     11  C   UNL     1       1.832   5.184  20.757  0.00  0.00    +0.000 C 
ATOM     12  C   UNL     1       2.369   4.496  19.487  0.00  0.00    +0.000 C 
ATOM     13  C   UNL     1       3.312   5.334  18.583  0.00  0.00    +0.000 C 
ATOM     14  N   UNL     1       0.466   9.353  20.946  0.00  0.00    +0.000 NA
ATOM     15  C   UNL     1      -0.256  10.316  21.558  0.00  0.00    +0.000 A 
ENDROOT
BRANCH  13  16
ATOM     16  N   UNL     1       4.705   5.382  19.045  0.00  0.00    +0.000 NA
ATOM     17  H   UNL     1       5.137   6.227  18.672  0.00  0.00    +0.000 HD
BRANCH  16  18
ATOM     18  C   UNL     1       5.495   4.239  18.576  0.00  0.00    +0.000 C 
BRANCH  18  19
ATOM     19  C   UNL     1       5.983   4.448  17.167  0.00  0.00    +0.000 A 
ATOM     20  C   UNL     1       5.364   3.819  16.082  0.00  0.00    +0.000 A 
ATOM     21  C   UNL     1       5.838   4.038  14.791  0.00  0.00    +0.000 A 
ATOM     22  C   UNL     1       6.918   4.889  14.627  0.00  0.00    +0.000 A 
ATOM     23  N   UNL     1       7.534   5.528  15.644  0.00  0.00    +0.000 NA
ATOM     24  C   UNL     1       7.052   5.294  16.887  0.00  0.00    +0.000 A 
ENDBRANCH  18  19
ENDBRANCH  16  18
ENDBRANCH  13  16
TORSDOF 3
ENDMDL
MODEL 3
REMARK VINA RESULT:      -7.6      1.957      8.279
REMARK  Name = 
REMARK  3 active torsions:
REMARK  status: ('A' for Active; 'I' for Inactive)
REMARK    1  A    between atoms: C_13  and  N_14
REMARK    2  A    between atoms: N_14  and  C_15
REMARK    3  A    between atoms: C_15  and  C_16
REMARK                            x       y       z     vdW  Elec       q    Type
REMARK                         _______ _______ _______ _____ _____    ______ ____
ROOT
ATOM      1  C   UNL     1       6.568   3.955  11.788  0.00  0.00    +0.000 A 
ATOM      2  C   UNL     1       7.588   4.753  12.292  0.00  0.00    +0.000 A 
ATOM      3  C   UNL     1       7.586   5.099  13.645  0.00  0.00    +0.000 A 
ATOM      4  C   UNL     1       6.558   4.618  14.460  0.00  0.00    +0.000 A 
ATOM      5  N   UNL     1       6.556   4.956  15.854  0.00  0.00    +0.000 N 
ATOM      6  N   UNL     1       7.481   5.818  16.379  0.00  0.00    +0.000 NA
ATOM      7  C   UNL     1       7.145   5.921  17.674  0.00  0.00    +0.000 A 
ATOM      8  C   UNL     1       6.045   5.127  18.016  0.00  0.00    +0.000 A 
ATOM      9  C   UNL     1       5.696   4.495  16.840  0.00  0.00    +0.000 A 
ATOM     10  C   UNL     1       4.641   3.470  16.670  0.00  0.00    +0.000 C 
ATOM     11  C   UNL     1       3.903   3.161  17.984  0.00  0.00    +0.000 C 
ATOM     12  C   UNL     1       4.614   3.541  19.298  0.00  0.00    +0.000 C 
ATOM     13  C   UNL     1       5.357   4.903  19.324  0.00  0.00    +0.000 C 
ATOM     14  N   UNL     1       5.560   3.826  13.973  0.00  0.00    +0.000 NA
ATOM     15  C   UNL     1       5.582   3.525  12.656  0.00  0.00    +0.000 A 
ENDROOT
BRANCH  13  16
ATOM     16  N   UNL     1       4.485   6.061  19.559  0.00  0.00    +0.000 NA
ATOM     17  H   UNL     1       4.210   6.060  20.541  0.00  0.00    +0.000 HD
BRANCH  16  18
ATOM     18  C   UNL     1       3.258   6.015  18.757  0.00  0.00    +0.000 C 
BRANCH  18  19
ATOM     19  C   UNL     1       2.489   7.305  18.852  0.00  0.00    +0.000 A 
ATOM     20  C   UNL     1       2.325   8.140  17.742  0.00  0.00    +0.000 A 
ATOM     21  C   UNL     1       1.603   9.324  17.865  0.00  0.00    +0.000 A 
ATOM     22  C   UNL     1       1.061   9.634  19.101  0.00  0.00    +0.000 A 
ATOM     23  N   UNL     1       1.181   8.850  20.193  0.00  0.00    +0.000 NA
ATOM     24  C   UNL     1       1.889   7.706  20.043  0.00  0.00    +0.000 A 
ENDBRANCH  18  19
ENDBRANCH  16  18
ENDBRANCH  13  16
TORSDOF 3
ENDMDL
MODEL 4
REMARK VINA RESULT:      -7.6      1.686      2.443
REMARK  Name = 
REMARK  3 active torsions:
REMARK  status: ('A' for Active; 'I' for Inactive)
REMARK    1  A    between atoms: C_13  and  N_14
REMARK    2  A    between atoms: N_14  and  C_15
REMARK    3  A    between atoms: C_15  and  C_16
REMARK                            x       y       z     vdW  Elec       q    Type
REMARK                         _______ _______ _______ _____ _____    ______ ____
ROOT
ATOM      1  C   UNL     1       0.118  10.441  21.854  0.00  0.00    +0.000 A 
ATOM      2  C   UNL     1       0.525  10.772  20.567  0.00  0.00    +0.000 A 
ATOM      3  C   UNL     1       1.174   9.815  19.783  0.00  0.00    +0.000 A 
ATOM      4  C   UNL     1       1.385   8.541  20.317  0.00  0.00    +0.000 A 
ATOM      5  N   UNL     1       2.037   7.548  19.515  0.00  0.00    +0.000 N 
ATOM      6  N   UNL     1       2.545   7.850  18.279  0.00  0.00    +0.000 NA
ATOM      7  C   UNL     1       3.105   6.707  17.857  0.00  0.00    +0.000 A 
ATOM      8  C   UNL     1       2.950   5.656  18.769  0.00  0.00    +0.000 A 
ATOM      9  C   UNL     1       2.241   6.209  19.815  0.00  0.00    +0.000 A 
ATOM     10  C   UNL     1       1.735   5.496  21.011  0.00  0.00    +0.000 C 
ATOM     11  C   UNL     1       2.105   4.002  21.005  0.00  0.00    +0.000 C 
ATOM     12  C   UNL     1       2.480   3.374  19.649  0.00  0.00    +0.000 C 
ATOM     13  C   UNL     1       3.372   4.224  18.706  0.00  0.00    +0.000 C 
ATOM     14  N   UNL     1       0.979   8.208  21.576  0.00  0.00    +0.000 NA
ATOM     15  C   UNL     1       0.370   9.162  22.313  0.00  0.00    +0.000 A 
ENDROOT
BRANCH  13  16
ATOM     16  N   UNL     1       4.804   4.179  19.029  0.00  0.00    +0.000 NA
ATOM     17  H   UNL     1       5.021   4.974  19.630  0.00  0.00    +0.000 HD
BRANCH  16  18
ATOM     18  C   UNL     1       5.654   4.281  17.838  0.00  0.00    +0.000 C 
BRANCH  18  19
ATOM     19  C   UNL     1       6.510   5.519  17.876  0.00  0.00    +0.000 A 
ATOM     20  C   UNL     1       7.426   5.739  18.910  0.00  0.00    +0.000 A 
ATOM     21  C   UNL     1       8.206   6.893  18.911  0.00  0.00    +0.000 A 
ATOM     22  C   UNL     1       8.046   7.791  17.869  0.00  0.00    +0.000 A 
ATOM     23  N   UNL     1       7.186   7.609  16.845  0.00  0.00    +0.000 NA
ATOM     24  C   UNL     1       6.441   6.479  16.871  0.00  0.00    +0.000 A 
ENDBRANCH  18  19
ENDBRANCH  16  18
ENDBRANCH  13  16
TORSDOF 3
ENDMDL
MODEL 5
REMARK VINA RESULT:      -7.4      3.921      6.165
REMARK  Name = 
REMARK  3 active torsions:
REMARK  status: ('A' for Active; 'I' for Inactive)
REMARK    1  A    between atoms: C_13  and  N_14
REMARK    2  A    between atoms: N_14  and  C_15
REMARK    3  A    between atoms: C_15  and  C_16
REMARK                            x       y       z     vdW  Elec       q    Type
REMARK                         _______ _______ _______ _____ _____    ______ ____
ROOT
ATOM      1  C   UNL     1       1.666   2.605  21.231  0.00  0.00    +0.000 A 
ATOM      2  C   UNL     1       0.868   3.522  20.557  0.00  0.00    +0.000 A 
ATOM      3  C   UNL     1       1.463   4.475  19.728  0.00  0.00    +0.000 A 
ATOM      4  C   UNL     1       2.854   4.471  19.591  0.00  0.00    +0.000 A 
ATOM      5  N   UNL     1       3.472   5.438  18.732  0.00  0.00    +0.000 N 
ATOM      6  N   UNL     1       2.741   6.423  18.124  0.00  0.00    +0.000 NA
ATOM      7  C   UNL     1       3.647   7.145  17.448  0.00  0.00    +0.000 A 
ATOM      8  C   UNL     1       4.947   6.640  17.571  0.00  0.00    +0.000 A 
ATOM      9  C   UNL     1       4.811   5.530  18.379  0.00  0.00    +0.000 A 
ATOM     10  C   UNL     1       5.880   4.577  18.753  0.00  0.00    +0.000 C 
ATOM     11  C   UNL     1       7.244   4.956  18.151  0.00  0.00    +0.000 C 
ATOM     12  C   UNL     1       7.240   5.903  16.934  0.00  0.00    +0.000 C 
ATOM     13  C   UNL     1       6.242   7.091  16.976  0.00  0.00    +0.000 C 
ATOM     14  N   UNL     1       3.642   3.568  20.242  0.00  0.00    +0.000 NA
ATOM     15  C   UNL     1       3.036   2.671  21.049  0.00  0.00    +0.000 A 
ENDROOT
BRANCH  13  16
ATOM     16  N   UNL     1       6.705   8.240  17.764  0.00  0.00    +0.000 NA
ATOM     17  H   UNL     1       6.303   9.087  17.361  0.00  0.00    +0.000 HD
BRANCH  16  18
ATOM     18  C   UNL     1       8.163   8.390  17.740  0.00  0.00    +0.000 C 
BRANCH  18  19
ATOM     19  C   UNL     1       8.588   9.734  18.268  0.00  0.00    +0.000 A 
ATOM     20  C   UNL     1       9.284   9.856  19.475  0.00  0.00    +0.000 A 
ATOM     21  C   UNL     1       9.666  11.115  19.931  0.00  0.00    +0.000 A 
ATOM     22  C   UNL     1       9.341  12.217  19.157  0.00  0.00    +0.000 A 
ATOM     23  N   UNL     1       8.685  12.143  17.980  0.00  0.00    +0.000 NA
ATOM     24  C   UNL     1       8.326  10.906  17.563  0.00  0.00    +0.000 A 
ENDBRANCH  18  19
ENDBRANCH  16  18
ENDBRANCH  13  16
TORSDOF 3
ENDMDL
MODEL 6
REMARK VINA RESULT:      -7.4      2.992      7.629
REMARK  Name = 
REMARK  3 active torsions:
REMARK  status: ('A' for Active; 'I' for Inactive)
REMARK    1  A    between atoms: C_13  and  N_14
REMARK    2  A    between atoms: N_14  and  C_15
REMARK    3  A    between atoms: C_15  and  C_16
REMARK                            x       y       z     vdW  Elec       q    Type
REMARK                         _______ _______ _______ _____ _____    ______ ____
ROOT
ATOM      1  C   UNL     1       4.172   4.063  18.608  0.00  0.00    +0.000 A 
ATOM      2  C   UNL     1       4.311   4.902  17.509  0.00  0.00    +0.000 A 
ATOM      3  C   UNL     1       3.685   6.151  17.514  0.00  0.00    +0.000 A 
ATOM      4  C   UNL     1       2.943   6.526  18.636  0.00  0.00    +0.000 A 
ATOM      5  N   UNL     1       2.308   7.811  18.655  0.00  0.00    +0.000 N 
ATOM      6  N   UNL     1       2.331   8.634  17.561  0.00  0.00    +0.000 NA
ATOM      7  C   UNL     1       1.615   9.706  17.932  0.00  0.00    +0.000 A 
ATOM      8  C   UNL     1       1.150   9.621  19.249  0.00  0.00    +0.000 A 
ATOM      9  C   UNL     1       1.626   8.409  19.705  0.00  0.00    +0.000 A 
ATOM     10  C   UNL     1       1.489   7.869  21.077  0.00  0.00    +0.000 C 
ATOM     11  C   UNL     1       0.708   8.814  22.007  0.00  0.00    +0.000 C 
ATOM     12  C   UNL     1       0.607  10.294  21.585  0.00  0.00    +0.000 C 
ATOM     13  C   UNL     1       0.357  10.578  20.080  0.00  0.00    +0.000 C 
ATOM     14  N   UNL     1       2.811   5.710  19.722  0.00  0.00    +0.000 NA
ATOM     15  C   UNL     1       3.415   4.503  19.678  0.00  0.00    +0.000 A 
ENDROOT
BRANCH  13  16
ATOM     16  N   UNL     1      -1.046  10.451  19.667  0.00  0.00    +0.000 NA
ATOM     17  H   UNL     1      -1.129   9.632  19.064  0.00  0.00    +0.000 HD
BRANCH  16  18
ATOM     18  C   UNL     1      -1.517  11.611  18.904  0.00  0.00    +0.000 C 
BRANCH  18  19
ATOM     19  C   UNL     1      -2.404  11.196  17.761  0.00  0.00    +0.000 A 
ATOM     20  C   UNL     1      -3.738  11.607  17.687  0.00  0.00    +0.000 A 
ATOM     21  C   UNL     1      -4.528  11.208  16.613  0.00  0.00    +0.000 A 
ATOM     22  C   UNL     1      -3.952  10.410  15.638  0.00  0.00    +0.000 A 
ATOM     23  N   UNL     1      -2.666  10.005  15.662  0.00  0.00    +0.000 NA
ATOM     24  C   UNL     1      -1.923  10.407  16.719  0.00  0.00    +0.000 A 
ENDBRANCH  18  19
ENDBRANCH  16  18
ENDBRANCH  13  16
TORSDOF 3
ENDMDL
MODEL 7
REMARK VINA RESULT:      -7.3      1.546      8.487
REMARK  Name = 
REMARK  3 active torsions:
REMARK  status: ('A' for Active; 'I' for Inactive)
REMARK    1  A    between atoms: C_13  and  N_14
REMARK    2  A    between atoms: N_14  and  C_15
REMARK    3  A    between atoms: C_15  and  C_16
REMARK                            x       y       z     vdW  Elec       q    Type
REMARK                         _______ _______ _______ _____ _____    ______ ____
ROOT
ATOM      1  C   UNL     1       7.090   3.892  11.939  0.00  0.00    +0.000 A 
ATOM      2  C   UNL     1       7.837   4.937  12.470  0.00  0.00    +0.000 A 
ATOM      3  C   UNL     1       7.510   5.448  13.727  0.00  0.00    +0.000 A 
ATOM      4  C   UNL     1       6.440   4.881  14.425  0.00  0.00    +0.000 A 
ATOM      5  N   UNL     1       6.106   5.390  15.723  0.00  0.00    +0.000 N 
ATOM      6  N   UNL     1       6.746   6.481  16.248  0.00  0.00    +0.000 NA
ATOM      7  C   UNL     1       6.149   6.682  17.432  0.00  0.00    +0.000 A 
ATOM      8  C   UNL     1       5.158   5.734  17.711  0.00  0.00    +0.000 A 
ATOM      9  C   UNL     1       5.162   4.898  16.614  0.00  0.00    +0.000 A 
ATOM     10  C   UNL     1       4.354   3.669  16.440  0.00  0.00    +0.000 C 
ATOM     11  C   UNL     1       3.438   3.392  17.644  0.00  0.00    +0.000 C 
ATOM     12  C   UNL     1       3.799   4.074  18.978  0.00  0.00    +0.000 C 
ATOM     13  C   UNL     1       4.275   5.549  18.903  0.00  0.00    +0.000 C 
ATOM     14  N   UNL     1       5.710   3.848  13.914  0.00  0.00    +0.000 NA
ATOM     15  C   UNL     1       6.042   3.389  12.688  0.00  0.00    +0.000 A 
ENDROOT
BRANCH  13  16
ATOM     16  N   UNL     1       3.187   6.529  18.793  0.00  0.00    +0.000 NA
ATOM     17  H   UNL     1       3.599   7.445  18.612  0.00  0.00    +0.000 HD
BRANCH  16  18
ATOM     18  C   UNL     1       2.398   6.636  20.024  0.00  0.00    +0.000 C 
BRANCH  18  19
ATOM     19  C   UNL     1       1.667   7.950  20.098  0.00  0.00    +0.000 A 
ATOM     20  C   UNL     1       0.978   8.337  21.252  0.00  0.00    +0.000 A 
ATOM     21  C   UNL     1       0.317   9.561  21.287  0.00  0.00    +0.000 A 
ATOM     22  C   UNL     1       0.373  10.367  20.162  0.00  0.00    +0.000 A 
ATOM     23  N   UNL     1       1.039  10.040  19.035  0.00  0.00    +0.000 NA
ATOM     24  C   UNL     1       1.671   8.843  19.030  0.00  0.00    +0.000 A 
ENDBRANCH  18  19
ENDBRANCH  16  18
ENDBRANCH  13  16
TORSDOF 3
ENDMDL
MODEL 8
REMARK VINA RESULT:      -7.3      3.924      6.236
REMARK  Name = 
REMARK  3 active torsions:
REMARK  status: ('A' for Active; 'I' for Inactive)
REMARK    1  A    between atoms: C_13  and  N_14
REMARK    2  A    between atoms: N_14  and  C_15
REMARK    3  A    between atoms: C_15  and  C_16
REMARK                            x       y       z     vdW  Elec       q    Type
REMARK                         _______ _______ _______ _____ _____    ______ ____
ROOT
ATOM      1  C   UNL     1       1.826   2.471  21.149  0.00  0.00    +0.000 A 
ATOM      2  C   UNL     1       1.001   3.407  20.536  0.00  0.00    +0.000 A 
ATOM      3  C   UNL     1       1.566   4.399  19.731  0.00  0.00    +0.000 A 
ATOM      4  C   UNL     1       2.952   4.412  19.555  0.00  0.00    +0.000 A 
ATOM      5  N   UNL     1       3.539   5.419  18.718  0.00  0.00    +0.000 N 
ATOM      6  N   UNL     1       2.783   6.422  18.172  0.00  0.00    +0.000 NA
ATOM      7  C   UNL     1       3.664   7.178  17.501  0.00  0.00    +0.000 A 
ATOM      8  C   UNL     1       4.970   6.681  17.567  0.00  0.00    +0.000 A 
ATOM      9  C   UNL     1       4.866   5.537  18.332  0.00  0.00    +0.000 A 
ATOM     10  C   UNL     1       5.953   4.578  18.636  0.00  0.00    +0.000 C 
ATOM     11  C   UNL     1       7.296   4.994  18.012  0.00  0.00    +0.000 C 
ATOM     12  C   UNL     1       7.250   5.990  16.837  0.00  0.00    +0.000 C 
ATOM     13  C   UNL     1       6.245   7.166  16.955  0.00  0.00    +0.000 C 
ATOM     14  N   UNL     1       3.765   3.490  20.145  0.00  0.00    +0.000 NA
ATOM     15  C   UNL     1       3.189   2.556  20.931  0.00  0.00    +0.000 A 
ENDROOT
BRANCH  13  16
ATOM     16  N   UNL     1       6.721   8.286  17.776  0.00  0.00    +0.000 NA
ATOM     17  H   UNL     1       6.338   9.150  17.392  0.00  0.00    +0.000 HD
BRANCH  16  18
ATOM     18  C   UNL     1       8.182   8.411  17.768  0.00  0.00    +0.000 C 
BRANCH  18  19
ATOM     19  C   UNL     1       8.623   9.765  18.257  0.00  0.00    +0.000 A 
ATOM     20  C   UNL     1       8.362  10.925  17.522  0.00  0.00    +0.000 A 
ATOM     21  C   UNL     1       8.780  12.162  18.007  0.00  0.00    +0.000 A 
ATOM     22  C   UNL     1       9.445  12.197  19.221  0.00  0.00    +0.000 A 
ATOM     23  N   UNL     1       9.703  11.104  19.969  0.00  0.00    +0.000 NA
ATOM     24  C   UNL     1       9.286   9.916  19.472  0.00  0.00    +0.000 A 
ENDBRANCH  18  19
ENDBRANCH  16  18
ENDBRANCH  13  16
TORSDOF 3
ENDMDL
MODEL 9
REMARK VINA RESULT:      -7.3      0.658      1.010
REMARK  Name = 
REMARK  3 active torsions:
REMARK  status: ('A' for Active; 'I' for Inactive)
REMARK    1  A    between atoms: C_13  and  N_14
REMARK    2  A    between atoms: N_14  and  C_15
REMARK    3  A    between atoms: C_15  and  C_16
REMARK                            x       y       z     vdW  Elec       q    Type
REMARK                         _______ _______ _______ _____ _____    ______ ____
ROOT
ATOM      1  C   UNL     1      -0.808  10.894  22.991  0.00  0.00    +0.000 A 
ATOM      2  C   UNL     1      -0.665  11.590  21.796  0.00  0.00    +0.000 A 
ATOM      3  C   UNL     1       0.017  10.997  20.732  0.00  0.00    +0.000 A 
ATOM      4  C   UNL     1       0.528   9.706  20.897  0.00  0.00    +0.000 A 
ATOM      5  N   UNL     1       1.218   9.084  19.805  0.00  0.00    +0.000 N 
ATOM      6  N   UNL     1       1.472   9.762  18.643  0.00  0.00    +0.000 NA
ATOM      7  C   UNL     1       2.156   8.890  17.888  0.00  0.00    +0.000 A 
ATOM      8  C   UNL     1       2.328   7.649  18.511  0.00  0.00    +0.000 A 
ATOM      9  C   UNL     1       1.698   7.784  19.730  0.00  0.00    +0.000 A 
ATOM     10  C   UNL     1       1.513   6.726  20.749  0.00  0.00    +0.000 C 
ATOM     11  C   UNL     1       2.135   5.384  20.324  0.00  0.00    +0.000 C 
ATOM     12  C   UNL     1       2.407   5.178  18.821  0.00  0.00    +0.000 C 
ATOM     13  C   UNL     1       2.983   6.390  18.041  0.00  0.00    +0.000 C 
ATOM     14  N   UNL     1       0.382   9.015  22.064  0.00  0.00    +0.000 NA
ATOM     15  C   UNL     1      -0.268   9.624  23.078  0.00  0.00    +0.000 A 
ENDROOT
BRANCH  13  16
ATOM     16  N   UNL     1       4.432   6.572  18.193  0.00  0.00    +0.000 NA
ATOM     17  H   UNL     1       4.768   7.129  17.407  0.00  0.00    +0.000 HD
BRANCH  16  18
ATOM     18  C   UNL     1       5.165   5.302  18.179  0.00  0.00    +0.000 C 
BRANCH  18  19
ATOM     19  C   UNL     1       5.687   4.981  16.804  0.00  0.00    +0.000 A 
ATOM     20  C   UNL     1       6.954   5.405  16.389  0.00  0.00    +0.000 A 
ATOM     21  C   UNL     1       7.407   5.087  15.112  0.00  0.00    +0.000 A 
ATOM     22  C   UNL     1       6.576   4.346  14.289  0.00  0.00    +0.000 A 
ATOM     23  N   UNL     1       5.354   3.904  14.655  0.00  0.00    +0.000 NA
ATOM     24  C   UNL     1       4.940   4.230  15.902  0.00  0.00    +0.000 A 
ENDBRANCH  18  19
ENDBRANCH  16  18
ENDBRANCH  13  16
TORSDOF 3
ENDMDL
