MODEL 1
REMARK VINA RESULT:      -7.8      0.000      0.000
REMARK  Name = 
REMARK  4 active torsions:
REMARK  status: ('A' for Active; 'I' for Inactive)
REMARK    1  A    between atoms: O_1  and  C_2
REMARK    2  A    between atoms: C_6  and  N_7
REMARK    3  A    between atoms: N_22  and  C_23
REMARK    4  A    between atoms: C_23  and  C_24
REMARK                            x       y       z     vdW  Elec       q    Type
REMARK                         _______ _______ _______ _____ _____    ______ ____
ROOT
ATOM      1  N   UNL     1       2.893   7.499  18.238  0.00  0.00    +0.000 N 
ATOM      2  C   UNL     1       2.795   6.143  18.186  0.00  0.00    +0.000 A 
ATOM      3  N   UNL     1       1.716   5.407  18.356  0.00  0.00    +0.000 NA
ATOM      4  C   UNL     1       2.105   4.108  18.244  0.00  0.00    +0.000 A 
ATOM      5  C   UNL     1       1.327   2.947  18.381  0.00  0.00    +0.000 A 
ATOM      6  C   UNL     1       1.943   1.699  18.241  0.00  0.00    +0.000 A 
ATOM      7  C   UNL     1       3.305   1.610  17.960  0.00  0.00    +0.000 A 
ATOM      8  C   UNL     1       4.091   2.759  17.816  0.00  0.00    +0.000 A 
ATOM      9  C   UNL     1       3.465   4.009  17.968  0.00  0.00    +0.000 A 
ATOM     10  N   UNL     1       3.912   5.331  17.946  0.00  0.00    +0.000 N 
ATOM     11  C   UNL     1       5.267   5.763  17.770  0.00  0.00    +0.000 A 
ATOM     12  N   UNL     1       6.187   4.835  17.487  0.00  0.00    +0.000 NA
ATOM     13  C   UNL     1       7.430   5.282  17.392  0.00  0.00    +0.000 A 
ATOM     14  N   UNL     1       7.815   6.537  17.565  0.00  0.00    +0.000 NA
ATOM     15  C   UNL     1       6.839   7.393  17.838  0.00  0.00    +0.000 A 
ATOM     16  N   UNL     1       7.153   8.731  18.042  0.00  0.00    +0.000 N 
ATOM     17  N   UNL     1       5.554   7.067  17.925  0.00  0.00    +0.000 NA
ATOM     18  H   UNL     1       3.819   7.903  18.119  0.00  0.00    +0.000 HD
ATOM     19  H   UNL     1       6.324   9.281  17.842  0.00  0.00    +0.000 HD
ENDROOT
BRANCH   1  24
ATOM     20  C   UNL     1       0.277  10.171  18.537  0.00  0.00    +0.000 A 
ATOM     21  C   UNL     1      -0.002  10.116  19.897  0.00  0.00    +0.000 A 
ATOM     22  C   UNL     1       0.704   9.223  20.696  0.00  0.00    +0.000 A 
ATOM     23  C   UNL     1       1.672   8.387  20.128  0.00  0.00    +0.000 A 
ATOM     24  C   UNL     1       1.944   8.413  18.748  0.00  0.00    +0.000 A 
ATOM     25  C   UNL     1       1.237   9.335  17.966  0.00  0.00    +0.000 A 
BRANCH  20  26
ATOM     26  O   UNL     1      -0.382  11.040  17.716  0.00  0.00    +0.000 OA
ATOM     27  H   UNL     1       0.240  11.724  17.423  0.00  0.00    +0.000 HD
ENDBRANCH  20  26
ENDBRANCH   1  24
BRANCH  16  28
ATOM     28  C   UNL     1       8.386   9.183  17.366  0.00  0.00    +0.000 C 
BRANCH  28  29
ATOM     29  C   UNL     1       9.142  10.345  18.039  0.00  0.00    +0.000 C 
ATOM     30  F   UNL     1      10.294  10.653  17.401  0.00  0.00    +0.000 F 
ATOM     31  F   UNL     1       8.381  11.467  18.034  0.00  0.00    +0.000 F 
ATOM     32  F   UNL     1       9.442  10.068  19.328  0.00  0.00    +0.000 F 
ENDBRANCH  28  29
ENDBRANCH  16  28
TORSDOF 4
ENDMDL
MODEL 2
REMARK VINA RESULT:      -7.6      0.854      1.232
REMARK  Name = 
REMARK  4 active torsions:
REMARK  status: ('A' for Active; 'I' for Inactive)
REMARK    1  A    between atoms: O_1  and  C_2
REMARK    2  A    between atoms: C_6  and  N_7
REMARK    3  A    between atoms: N_22  and  C_23
REMARK    4  A    between atoms: C_23  and  C_24
REMARK                            x       y       z     vdW  Elec       q    Type
REMARK                         _______ _______ _______ _____ _____    ______ ____
ROOT
ATOM      1  N   UNL     1       2.919   7.447  18.277  0.00  0.00    +0.000 N 
ATOM      2  C   UNL     1       2.822   6.090  18.227  0.00  0.00    +0.000 A 
ATOM      3  N   UNL     1       1.745   5.355  18.401  0.00  0.00    +0.000 NA
ATOM      4  C   UNL     1       2.134   4.056  18.288  0.00  0.00    +0.000 A 
ATOM      5  C   UNL     1       1.357   2.894  18.429  0.00  0.00    +0.000 A 
ATOM      6  C   UNL     1       1.974   1.647  18.288  0.00  0.00    +0.000 A 
ATOM      7  C   UNL     1       3.334   1.558  18.003  0.00  0.00    +0.000 A 
ATOM      8  C   UNL     1       4.119   2.707  17.855  0.00  0.00    +0.000 A 
ATOM      9  C   UNL     1       3.493   3.957  18.008  0.00  0.00    +0.000 A 
ATOM     10  N   UNL     1       3.939   5.279  17.983  0.00  0.00    +0.000 N 
ATOM     11  C   UNL     1       5.294   5.712  17.802  0.00  0.00    +0.000 A 
ATOM     12  N   UNL     1       6.213   4.784  17.518  0.00  0.00    +0.000 NA
ATOM     13  C   UNL     1       7.455   5.232  17.419  0.00  0.00    +0.000 A 
ATOM     14  N   UNL     1       7.840   6.488  17.589  0.00  0.00    +0.000 NA
ATOM     15  C   UNL     1       6.865   7.343  17.864  0.00  0.00    +0.000 A 
ATOM     16  N   UNL     1       7.178   8.681  18.066  0.00  0.00    +0.000 N 
ATOM     17  N   UNL     1       5.580   7.017  17.956  0.00  0.00    +0.000 NA
ATOM     18  H   UNL     1       3.846   7.851  18.155  0.00  0.00    +0.000 HD
ATOM     19  H   UNL     1       6.349   9.230  17.869  0.00  0.00    +0.000 HD
ENDROOT
BRANCH   1  24
ATOM     20  C   UNL     1       0.684   9.394  20.574  0.00  0.00    +0.000 A 
ATOM     21  C   UNL     1       0.131  10.313  19.690  0.00  0.00    +0.000 A 
ATOM     22  C   UNL     1       0.481  10.249  18.345  0.00  0.00    +0.000 A 
ATOM     23  C   UNL     1       1.384   9.277  17.900  0.00  0.00    +0.000 A 
ATOM     24  C   UNL     1       1.972   8.361  18.790  0.00  0.00    +0.000 A 
ATOM     25  C   UNL     1       1.589   8.428  20.135  0.00  0.00    +0.000 A 
BRANCH  20  26
ATOM     26  O   UNL     1       0.361   9.411  21.901  0.00  0.00    +0.000 OA
ATOM     27  H   UNL     1       0.715   8.610  22.318  0.00  0.00    +0.000 HD
ENDBRANCH  20  26
ENDBRANCH   1  24
BRANCH  16  28
ATOM     28  C   UNL     1       8.409   9.134  17.386  0.00  0.00    +0.000 C 
BRANCH  28  29
ATOM     29  C   UNL     1       9.112  10.360  18.000  0.00  0.00    +0.000 C 
ATOM     30  F   UNL     1      10.294  10.633  17.401  0.00  0.00    +0.000 F 
ATOM     31  F   UNL     1       8.339  11.464  17.860  0.00  0.00    +0.000 F 
ATOM     32  F   UNL     1       9.344  10.196  19.321  0.00  0.00    +0.000 F 
ENDBRANCH  28  29
ENDBRANCH  16  28
TORSDOF 4
ENDMDL
MODEL 3
REMARK VINA RESULT:      -6.9      5.767     10.144
REMARK  Name = 
REMARK  4 active torsions:
REMARK  status: ('A' for Active; 'I' for Inactive)
REMARK    1  A    between atoms: O_1  and  C_2
REMARK    2  A    between atoms: C_6  and  N_7
REMARK    3  A    between atoms: N_22  and  C_23
REMARK    4  A    between atoms: C_23  and  C_24
REMARK                            x       y       z     vdW  Elec       q    Type
REMARK                         _______ _______ _______ _____ _____    ______ ____
ROOT
ATOM      1  N   UNL     1       7.185  14.818  18.604  0.00  0.00    +0.000 N 
ATOM      2  C   UNL     1       8.274  15.598  18.369  0.00  0.00    +0.000 A 
ATOM      3  N   UNL     1       8.325  16.912  18.311  0.00  0.00    +0.000 NA
ATOM      4  C   UNL     1       9.612  17.244  18.024  0.00  0.00    +0.000 A 
ATOM      5  C   UNL     1      10.164  18.520  17.825  0.00  0.00    +0.000 A 
ATOM      6  C   UNL     1      11.524  18.629  17.518  0.00  0.00    +0.000 A 
ATOM      7  C   UNL     1      12.321  17.491  17.422  0.00  0.00    +0.000 A 
ATOM      8  C   UNL     1      11.786  16.214  17.622  0.00  0.00    +0.000 A 
ATOM      9  C   UNL     1      10.415  16.113  17.920  0.00  0.00    +0.000 A 
ATOM     10  N   UNL     1       9.541  15.046  18.130  0.00  0.00    +0.000 N 
ATOM     11  C   UNL     1       9.871  13.653  18.055  0.00  0.00    +0.000 A 
ATOM     12  N   UNL     1      11.154  13.325  17.879  0.00  0.00    +0.000 NA
ATOM     13  C   UNL     1      11.395  12.028  17.759  0.00  0.00    +0.000 A 
ATOM     14  N   UNL     1      10.483  11.067  17.786  0.00  0.00    +0.000 NA
ATOM     15  C   UNL     1       9.235  11.480  17.968  0.00  0.00    +0.000 A 
ATOM     16  N   UNL     1       8.212  10.541  18.002  0.00  0.00    +0.000 N 
ATOM     17  N   UNL     1       8.878  12.750  18.134  0.00  0.00    +0.000 NA
ATOM     18  H   UNL     1       7.321  13.809  18.576  0.00  0.00    +0.000 HD
ATOM     19  H   UNL     1       7.439  10.940  18.523  0.00  0.00    +0.000 HD
ENDROOT
BRANCH   1  24
ATOM     20  C   UNL     1       3.966  16.685  19.070  0.00  0.00    +0.000 A 
ATOM     21  C   UNL     1       3.093  15.897  18.330  0.00  0.00    +0.000 A 
ATOM     22  C   UNL     1       3.577  14.744  17.721  0.00  0.00    +0.000 A 
ATOM     23  C   UNL     1       4.927  14.397  17.847  0.00  0.00    +0.000 A 
ATOM     24  C   UNL     1       5.826  15.201  18.569  0.00  0.00    +0.000 A 
ATOM     25  C   UNL     1       5.313  16.345  19.193  0.00  0.00    +0.000 A 
BRANCH  20  26
ATOM     26  O   UNL     1       3.534  17.819  19.696  0.00  0.00    +0.000 OA
ATOM     27  H   UNL     1       4.157  18.537  19.506  0.00  0.00    +0.000 HD
ENDBRANCH  20  26
ENDBRANCH   1  24
BRANCH  16  28
ATOM     28  C   UNL     1       8.631   9.191  18.433  0.00  0.00    +0.000 C 
BRANCH  28  29
ATOM     29  C   UNL     1       7.792   8.016  17.893  0.00  0.00    +0.000 C 
ATOM     30  F   UNL     1       7.820   6.941  18.713  0.00  0.00    +0.000 F 
ATOM     31  F   UNL     1       6.493   8.383  17.772  0.00  0.00    +0.000 F 
ATOM     32  F   UNL     1       8.214   7.619  16.672  0.00  0.00    +0.000 F 
ENDBRANCH  28  29
ENDBRANCH  16  28
TORSDOF 4
ENDMDL
MODEL 4
REMARK VINA RESULT:      -6.8      4.998      7.813
REMARK  Name = 
REMARK  4 active torsions:
REMARK  status: ('A' for Active; 'I' for Inactive)
REMARK    1  A    between atoms: O_1  and  C_2
REMARK    2  A    between atoms: C_6  and  N_7
REMARK    3  A    between atoms: N_22  and  C_23
REMARK    4  A    between atoms: C_23  and  C_24
REMARK                            x       y       z     vdW  Elec       q    Type
REMARK                         _______ _______ _______ _____ _____    ______ ____
ROOT
ATOM      1  N   UNL     1       4.714   4.437  17.146  0.00  0.00    +0.000 N 
ATOM      2  C   UNL     1       3.926   5.418  17.664  0.00  0.00    +0.000 A 
ATOM      3  N   UNL     1       3.636   6.584  17.127  0.00  0.00    +0.000 NA
ATOM      4  C   UNL     1       2.842   7.240  18.016  0.00  0.00    +0.000 A 
ATOM      5  C   UNL     1       2.299   8.532  17.919  0.00  0.00    +0.000 A 
ATOM      6  C   UNL     1       1.517   9.018  18.970  0.00  0.00    +0.000 A 
ATOM      7  C   UNL     1       1.270   8.230  20.092  0.00  0.00    +0.000 A 
ATOM      8  C   UNL     1       1.800   6.940  20.201  0.00  0.00    +0.000 A 
ATOM      9  C   UNL     1       2.594   6.462  19.143  0.00  0.00    +0.000 A 
ATOM     10  N   UNL     1       3.311   5.286  18.917  0.00  0.00    +0.000 N 
ATOM     11  C   UNL     1       3.438   4.184  19.826  0.00  0.00    +0.000 A 
ATOM     12  N   UNL     1       2.719   4.219  20.952  0.00  0.00    +0.000 NA
ATOM     13  C   UNL     1       2.918   3.205  21.780  0.00  0.00    +0.000 A 
ATOM     14  N   UNL     1       3.760   2.201  21.584  0.00  0.00    +0.000 NA
ATOM     15  C   UNL     1       4.430   2.243  20.441  0.00  0.00    +0.000 A 
ATOM     16  N   UNL     1       5.341   1.234  20.155  0.00  0.00    +0.000 N 
ATOM     17  N   UNL     1       4.289   3.191  19.519  0.00  0.00    +0.000 NA
ATOM     18  H   UNL     1       4.861   3.608  17.719  0.00  0.00    +0.000 HD
ATOM     19  H   UNL     1       5.452   1.188  19.148  0.00  0.00    +0.000 HD
ENDROOT
BRANCH   1  24
ATOM     20  C   UNL     1       6.397   4.009  13.822  0.00  0.00    +0.000 A 
ATOM     21  C   UNL     1       7.444   4.916  13.937  0.00  0.00    +0.000 A 
ATOM     22  C   UNL     1       7.595   5.626  15.123  0.00  0.00    +0.000 A 
ATOM     23  C   UNL     1       6.694   5.431  16.177  0.00  0.00    +0.000 A 
ATOM     24  C   UNL     1       5.615   4.537  16.063  0.00  0.00    +0.000 A 
ATOM     25  C   UNL     1       5.495   3.817  14.868  0.00  0.00    +0.000 A 
BRANCH  20  26
ATOM     26  O   UNL     1       6.217   3.281  12.681  0.00  0.00    +0.000 OA
ATOM     27  H   UNL     1       6.368   2.345  12.882  0.00  0.00    +0.000 HD
ENDBRANCH  20  26
ENDBRANCH   1  24
BRANCH  16  28
ATOM     28  C   UNL     1       5.057  -0.056  20.816  0.00  0.00    +0.000 C 
BRANCH  28  29
ATOM     29  C   UNL     1       6.117  -0.552  21.819  0.00  0.00    +0.000 C 
ATOM     30  F   UNL     1       5.595  -1.371  22.762  0.00  0.00    +0.000 F 
ATOM     31  F   UNL     1       7.078  -1.259  21.176  0.00  0.00    +0.000 F 
ATOM     32  F   UNL     1       6.727   0.474  22.453  0.00  0.00    +0.000 F 
ENDBRANCH  28  29
ENDBRANCH  16  28
TORSDOF 4
ENDMDL
MODEL 5
REMARK VINA RESULT:      -6.8      7.210     11.154
REMARK  Name = 
REMARK  4 active torsions:
REMARK  status: ('A' for Active; 'I' for Inactive)
REMARK    1  A    between atoms: O_1  and  C_2
REMARK    2  A    between atoms: C_6  and  N_7
REMARK    3  A    between atoms: N_22  and  C_23
REMARK    4  A    between atoms: C_23  and  C_24
REMARK                            x       y       z     vdW  Elec       q    Type
REMARK                         _______ _______ _______ _____ _____    ______ ____
ROOT
ATOM      1  N   UNL     1       0.399  11.705  19.352  0.00  0.00    +0.000 N 
ATOM      2  C   UNL     1       0.992  12.877  18.992  0.00  0.00    +0.000 A 
ATOM      3  N   UNL     1       2.110  13.038  18.316  0.00  0.00    +0.000 NA
ATOM      4  C   UNL     1       2.322  14.378  18.222  0.00  0.00    +0.000 A 
ATOM      5  C   UNL     1       3.399  15.054  17.624  0.00  0.00    +0.000 A 
ATOM      6  C   UNL     1       3.424  16.451  17.659  0.00  0.00    +0.000 A 
ATOM      7  C   UNL     1       2.392  17.162  18.268  0.00  0.00    +0.000 A 
ATOM      8  C   UNL     1       1.311  16.503  18.863  0.00  0.00    +0.000 A 
ATOM      9  C   UNL     1       1.299  15.097  18.831  0.00  0.00    +0.000 A 
ATOM     10  N   UNL     1       0.445  14.119  19.343  0.00  0.00    +0.000 N 
ATOM     11  C   UNL     1      -0.732  14.349  20.128  0.00  0.00    +0.000 A 
ATOM     12  N   UNL     1      -1.128  15.614  20.302  0.00  0.00    +0.000 NA
ATOM     13  C   UNL     1      -2.186  15.772  21.082  0.00  0.00    +0.000 A 
ATOM     14  N   UNL     1      -2.849  14.801  21.692  0.00  0.00    +0.000 NA
ATOM     15  C   UNL     1      -2.393  13.577  21.462  0.00  0.00    +0.000 A 
ATOM     16  N   UNL     1      -3.022  12.497  22.067  0.00  0.00    +0.000 N 
ATOM     17  N   UNL     1      -1.361  13.293  20.673  0.00  0.00    +0.000 NA
ATOM     18  H   UNL     1      -0.450  11.767  19.910  0.00  0.00    +0.000 HD
ATOM     19  H   UNL     1      -2.834  11.672  21.508  0.00  0.00    +0.000 HD
ENDROOT
BRANCH   1  24
ATOM     20  C   UNL     1       1.597   8.291  20.340  0.00  0.00    +0.000 A 
ATOM     21  C   UNL     1       2.032   7.799  19.116  0.00  0.00    +0.000 A 
ATOM     22  C   UNL     1       1.955   8.617  17.993  0.00  0.00    +0.000 A 
ATOM     23  C   UNL     1       1.435   9.912  18.103  0.00  0.00    +0.000 A 
ATOM     24  C   UNL     1       0.965  10.411  19.330  0.00  0.00    +0.000 A 
ATOM     25  C   UNL     1       1.072   9.579  20.452  0.00  0.00    +0.000 A 
BRANCH  20  26
ATOM     26  O   UNL     1       1.664   7.529  21.471  0.00  0.00    +0.000 OA
ATOM     27  H   UNL     1       1.682   6.594  21.216  0.00  0.00    +0.000 HD
ENDBRANCH  20  26
ENDBRANCH   1  24
BRANCH  16  28
ATOM     28  C   UNL     1      -4.444  12.721  22.398  0.00  0.00    +0.000 C 
BRANCH  28  29
ATOM     29  C   UNL     1      -4.780  12.848  23.897  0.00  0.00    +0.000 C 
ATOM     30  F   UNL     1      -6.088  12.621  24.156  0.00  0.00    +0.000 F 
ATOM     31  F   UNL     1      -4.076  11.938  24.615  0.00  0.00    +0.000 F 
ATOM     32  F   UNL     1      -4.467  14.071  24.380  0.00  0.00    +0.000 F 
ENDBRANCH  28  29
ENDBRANCH  16  28
TORSDOF 4
ENDMDL
MODEL 6
REMARK VINA RESULT:      -6.7      9.213     12.238
REMARK  Name = 
REMARK  4 active torsions:
REMARK  status: ('A' for Active; 'I' for Inactive)
REMARK    1  A    between atoms: O_1  and  C_2
REMARK    2  A    between atoms: C_6  and  N_7
REMARK    3  A    between atoms: N_22  and  C_23
REMARK    4  A    between atoms: C_23  and  C_24
REMARK                            x       y       z     vdW  Elec       q    Type
REMARK                         _______ _______ _______ _____ _____    ______ ____
ROOT
ATOM      1  N   UNL     1      -2.304  12.796  19.613  0.00  0.00    +0.000 N 
ATOM      2  C   UNL     1      -1.278  13.677  19.764  0.00  0.00    +0.000 A 
ATOM      3  N   UNL     1      -0.344  13.981  18.887  0.00  0.00    +0.000 NA
ATOM      4  C   UNL     1       0.479  14.882  19.488  0.00  0.00    +0.000 A 
ATOM      5  C   UNL     1       1.642  15.482  18.976  0.00  0.00    +0.000 A 
ATOM      6  C   UNL     1       2.353  16.377  19.782  0.00  0.00    +0.000 A 
ATOM      7  C   UNL     1       1.909  16.676  21.068  0.00  0.00    +0.000 A 
ATOM      8  C   UNL     1       0.750  16.089  21.589  0.00  0.00    +0.000 A 
ATOM      9  C   UNL     1       0.047  15.184  20.775  0.00  0.00    +0.000 A 
ATOM     10  N   UNL     1      -1.085  14.388  20.956  0.00  0.00    +0.000 N 
ATOM     11  C   UNL     1      -1.862  14.281  22.157  0.00  0.00    +0.000 A 
ATOM     12  N   UNL     1      -1.555  15.094  23.172  0.00  0.00    +0.000 NA
ATOM     13  C   UNL     1      -2.266  14.913  24.275  0.00  0.00    +0.000 A 
ATOM     14  N   UNL     1      -3.216  14.005  24.442  0.00  0.00    +0.000 NA
ATOM     15  C   UNL     1      -3.458  13.243  23.384  0.00  0.00    +0.000 A 
ATOM     16  N   UNL     1      -4.434  12.258  23.471  0.00  0.00    +0.000 N 
ATOM     17  N   UNL     1      -2.834  13.355  22.216  0.00  0.00    +0.000 NA
ATOM     18  H   UNL     1      -2.916  12.654  20.414  0.00  0.00    +0.000 HD
ATOM     19  H   UNL     1      -4.762  12.059  22.532  0.00  0.00    +0.000 HD
ENDROOT
BRANCH   1  24
ATOM     20  C   UNL     1      -3.594  10.774  16.729  0.00  0.00    +0.000 A 
ATOM     21  C   UNL     1      -2.575   9.840  16.585  0.00  0.00    +0.000 A 
ATOM     22  C   UNL     1      -1.499   9.873  17.465  0.00  0.00    +0.000 A 
ATOM     23  C   UNL     1      -1.446  10.844  18.472  0.00  0.00    +0.000 A 
ATOM     24  C   UNL     1      -2.456  11.812  18.611  0.00  0.00    +0.000 A 
ATOM     25  C   UNL     1      -3.541  11.747  17.728  0.00  0.00    +0.000 A 
BRANCH  20  26
ATOM     26  O   UNL     1      -4.676  10.772  15.897  0.00  0.00    +0.000 OA
ATOM     27  H   UNL     1      -4.438  11.228  15.075  0.00  0.00    +0.000 HD
ENDBRANCH  20  26
ENDBRANCH   1  24
BRANCH  16  28
ATOM     28  C   UNL     1      -5.493  12.529  24.464  0.00  0.00    +0.000 C 
BRANCH  28  29
ATOM     29  C   UNL     1      -6.908  12.761  23.901  0.00  0.00    +0.000 C 
ATOM     30  F   UNL     1      -7.583  11.606  23.701  0.00  0.00    +0.000 F 
ATOM     31  F   UNL     1      -7.644  13.499  24.768  0.00  0.00    +0.000 F 
ATOM     32  F   UNL     1      -6.877  13.432  22.728  0.00  0.00    +0.000 F 
ENDBRANCH  28  29
ENDBRANCH  16  28
TORSDOF 4
ENDMDL
MODEL 7
REMARK VINA RESULT:      -6.7      6.898     10.783
REMARK  Name = 
REMARK  4 active torsions:
REMARK  status: ('A' for Active; 'I' for Inactive)
REMARK    1  A    between atoms: O_1  and  C_2
REMARK    2  A    between atoms: C_6  and  N_7
REMARK    3  A    between atoms: N_22  and  C_23
REMARK    4  A    between atoms: C_23  and  C_24
REMARK                            x       y       z     vdW  Elec       q    Type
REMARK                         _______ _______ _______ _____ _____    ______ ____
ROOT
ATOM      1  N   UNL     1      -0.472  15.261  19.963  0.00  0.00    +0.000 N 
ATOM      2  C   UNL     1      -1.102  15.506  21.143  0.00  0.00    +0.000 A 
ATOM      3  N   UNL     1      -1.563  16.657  21.585  0.00  0.00    +0.000 NA
ATOM      4  C   UNL     1      -2.085  16.424  22.819  0.00  0.00    +0.000 A 
ATOM      5  C   UNL     1      -2.664  17.341  23.712  0.00  0.00    +0.000 A 
ATOM      6  C   UNL     1      -3.124  16.882  24.950  0.00  0.00    +0.000 A 
ATOM      7  C   UNL     1      -3.018  15.535  25.289  0.00  0.00    +0.000 A 
ATOM      8  C   UNL     1      -2.447  14.610  24.407  0.00  0.00    +0.000 A 
ATOM      9  C   UNL     1      -1.979  15.082  23.169  0.00  0.00    +0.000 A 
ATOM     10  N   UNL     1      -1.328  14.492  22.085  0.00  0.00    +0.000 N 
ATOM     11  C   UNL     1      -0.918  13.121  21.987  0.00  0.00    +0.000 A 
ATOM     12  N   UNL     1      -1.284  12.290  22.967  0.00  0.00    +0.000 NA
ATOM     13  C   UNL     1      -0.830  11.050  22.855  0.00  0.00    +0.000 A 
ATOM     14  N   UNL     1      -0.055  10.597  21.881  0.00  0.00    +0.000 NA
ATOM     15  C   UNL     1       0.257  11.486  20.948  0.00  0.00    +0.000 A 
ATOM     16  N   UNL     1       1.073  11.099  19.893  0.00  0.00    +0.000 N 
ATOM     17  N   UNL     1      -0.166  12.746  20.938  0.00  0.00    +0.000 NA
ATOM     18  H   UNL     1      -0.146  14.310  19.799  0.00  0.00    +0.000 HD
ATOM     19  H   UNL     1       0.891  11.721  19.113  0.00  0.00    +0.000 HD
ENDROOT
BRANCH   1  24
ATOM     20  C   UNL     1       1.910  17.274  17.879  0.00  0.00    +0.000 A 
ATOM     21  C   UNL     1       1.026  18.074  17.165  0.00  0.00    +0.000 A 
ATOM     22  C   UNL     1      -0.338  17.958  17.411  0.00  0.00    +0.000 A 
ATOM     23  C   UNL     1      -0.805  17.039  18.358  0.00  0.00    +0.000 A 
ATOM     24  C   UNL     1       0.077  16.204  19.066  0.00  0.00    +0.000 A 
ATOM     25  C   UNL     1       1.448  16.353  18.819  0.00  0.00    +0.000 A 
BRANCH  20  26
ATOM     26  O   UNL     1       3.258  17.362  17.681  0.00  0.00    +0.000 OA
ATOM     27  H   UNL     1       3.455  17.119  16.763  0.00  0.00    +0.000 HD
ENDBRANCH  20  26
ENDBRANCH   1  24
BRANCH  16  28
ATOM     28  C   UNL     1       1.023   9.658  19.574  0.00  0.00    +0.000 C 
BRANCH  28  29
ATOM     29  C   UNL     1       1.240   9.282  18.095  0.00  0.00    +0.000 C 
ATOM     30  F   UNL     1       2.170  10.060  17.495  0.00  0.00    +0.000 F 
ATOM     31  F   UNL     1       1.675   8.003  17.994  0.00  0.00    +0.000 F 
ATOM     32  F   UNL     1       0.097   9.377  17.381  0.00  0.00    +0.000 F 
ENDBRANCH  28  29
ENDBRANCH  16  28
TORSDOF 4
ENDMDL
MODEL 8
REMARK VINA RESULT:      -6.7      6.934     10.853
REMARK  Name = 
REMARK  4 active torsions:
REMARK  status: ('A' for Active; 'I' for Inactive)
REMARK    1  A    between atoms: O_1  and  C_2
REMARK    2  A    between atoms: C_6  and  N_7
REMARK    3  A    between atoms: N_22  and  C_23
REMARK    4  A    between atoms: C_23  and  C_24
REMARK                            x       y       z     vdW  Elec       q    Type
REMARK                         _______ _______ _______ _____ _____    ______ ____
ROOT
ATOM      1  N   UNL     1       0.717  11.527  19.049  0.00  0.00    +0.000 N 
ATOM      2  C   UNL     1       1.413  12.676  18.829  0.00  0.00    +0.000 A 
ATOM      3  N   UNL     1       2.631  12.798  18.346  0.00  0.00    +0.000 NA
ATOM      4  C   UNL     1       2.917  14.128  18.332  0.00  0.00    +0.000 A 
ATOM      5  C   UNL     1       4.105  14.764  17.938  0.00  0.00    +0.000 A 
ATOM      6  C   UNL     1       4.188  16.157  18.023  0.00  0.00    +0.000 A 
ATOM      7  C   UNL     1       3.105  16.903  18.483  0.00  0.00    +0.000 A 
ATOM      8  C   UNL     1       1.913  16.284  18.874  0.00  0.00    +0.000 A 
ATOM      9  C   UNL     1       1.843  14.881  18.794  0.00  0.00    +0.000 A 
ATOM     10  N   UNL     1       0.873  13.935  19.129  0.00  0.00    +0.000 N 
ATOM     11  C   UNL     1      -0.404  14.203  19.722  0.00  0.00    +0.000 A 
ATOM     12  N   UNL     1      -0.764  15.481  19.874  0.00  0.00    +0.000 NA
ATOM     13  C   UNL     1      -1.927  15.673  20.479  0.00  0.00    +0.000 A 
ATOM     14  N   UNL     1      -2.723  14.720  20.941  0.00  0.00    +0.000 NA
ATOM     15  C   UNL     1      -2.291  13.481  20.746  0.00  0.00    +0.000 A 
ATOM     16  N   UNL     1      -3.059  12.419  21.206  0.00  0.00    +0.000 N 
ATOM     17  N   UNL     1      -1.160  13.167  20.124  0.00  0.00    +0.000 NA
ATOM     18  H   UNL     1      -0.207  11.617  19.466  0.00  0.00    +0.000 HD
ATOM     19  H   UNL     1      -2.821  11.600  20.657  0.00  0.00    +0.000 HD
ENDROOT
BRANCH   1  24
ATOM     20  C   UNL     1       1.693   8.075  20.145  0.00  0.00    +0.000 A 
ATOM     21  C   UNL     1       2.168   7.544  18.952  0.00  0.00    +0.000 A 
ATOM     22  C   UNL     1       2.189   8.347  17.816  0.00  0.00    +0.000 A 
ATOM     23  C   UNL     1       1.728   9.666  17.881  0.00  0.00    +0.000 A 
ATOM     24  C   UNL     1       1.219  10.207  19.075  0.00  0.00    +0.000 A 
ATOM     25  C   UNL     1       1.227   9.389  20.211  0.00  0.00    +0.000 A 
BRANCH  20  26
ATOM     26  O   UNL     1       1.665   7.329  21.288  0.00  0.00    +0.000 OA
ATOM     27  H   UNL     1       2.563   7.023  21.483  0.00  0.00    +0.000 HD
ENDBRANCH  20  26
ENDBRANCH   1  24
BRANCH  16  28
ATOM     28  C   UNL     1      -4.504  12.706  21.313  0.00  0.00    +0.000 C 
BRANCH  28  29
ATOM     29  C   UNL     1      -5.355  12.374  20.071  0.00  0.00    +0.000 C 
ATOM     30  F   UNL     1      -4.658  11.695  19.132  0.00  0.00    +0.000 F 
ATOM     31  F   UNL     1      -6.407  11.593  20.418  0.00  0.00    +0.000 F 
ATOM     32  F   UNL     1      -5.854  13.489  19.493  0.00  0.00    +0.000 F 
ENDBRANCH  28  29
ENDBRANCH  16  28
TORSDOF 4
ENDMDL
MODEL 9
REMARK VINA RESULT:      -6.6      8.850     13.173
REMARK  Name = 
REMARK  4 active torsions:
REMARK  status: ('A' for Active; 'I' for Inactive)
REMARK    1  A    between atoms: O_1  and  C_2
REMARK    2  A    between atoms: C_6  and  N_7
REMARK    3  A    between atoms: N_22  and  C_23
REMARK    4  A    between atoms: C_23  and  C_24
REMARK                            x       y       z     vdW  Elec       q    Type
REMARK                         _______ _______ _______ _____ _____    ______ ____
ROOT
ATOM      1  N   UNL     1      -2.000  12.574  22.138  0.00  0.00    +0.000 N 
ATOM      2  C   UNL     1      -1.928  13.668  22.944  0.00  0.00    +0.000 A 
ATOM      3  N   UNL     1      -0.881  14.107  23.611  0.00  0.00    +0.000 NA
ATOM      4  C   UNL     1      -1.288  15.208  24.299  0.00  0.00    +0.000 A 
ATOM      5  C   UNL     1      -0.548  16.011  25.182  0.00  0.00    +0.000 A 
ATOM      6  C   UNL     1      -1.178  17.095  25.801  0.00  0.00    +0.000 A 
ATOM      7  C   UNL     1      -2.516  17.380  25.537  0.00  0.00    +0.000 A 
ATOM      8  C   UNL     1      -3.264  16.592  24.656  0.00  0.00    +0.000 A 
ATOM      9  C   UNL     1      -2.625  15.498  24.046  0.00  0.00    +0.000 A 
ATOM     10  N   UNL     1      -3.041  14.488  23.178  0.00  0.00    +0.000 N 
ATOM     11  C   UNL     1      -4.369  14.298  22.674  0.00  0.00    +0.000 A 
ATOM     12  N   UNL     1      -5.284  15.229  22.961  0.00  0.00    +0.000 NA
ATOM     13  C   UNL     1      -6.507  14.975  22.520  0.00  0.00    +0.000 A 
ATOM     14  N   UNL     1      -6.877  13.894  21.849  0.00  0.00    +0.000 NA
ATOM     15  C   UNL     1      -5.907  13.024  21.603  0.00  0.00    +0.000 A 
ATOM     16  N   UNL     1      -6.206  11.857  20.912  0.00  0.00    +0.000 N 
ATOM     17  N   UNL     1      -4.639  13.187  21.967  0.00  0.00    +0.000 NA
ATOM     18  H   UNL     1      -2.907  12.359  21.727  0.00  0.00    +0.000 HD
ATOM     19  H   UNL     1      -5.353  11.524  20.476  0.00  0.00    +0.000 HD
ENDROOT
BRANCH   1  24
ATOM     20  C   UNL     1       0.650  10.220  20.912  0.00  0.00    +0.000 A 
ATOM     21  C   UNL     1       0.814   9.404  22.024  0.00  0.00    +0.000 A 
ATOM     22  C   UNL     1       0.021   9.624  23.146  0.00  0.00    +0.000 A 
ATOM     23  C   UNL     1      -0.918  10.662  23.149  0.00  0.00    +0.000 A 
ATOM     24  C   UNL     1      -1.074  11.512  22.040  0.00  0.00    +0.000 A 
ATOM     25  C   UNL     1      -0.281  11.259  20.913  0.00  0.00    +0.000 A 
BRANCH  20  26
ATOM     26  O   UNL     1       1.397  10.034  19.785  0.00  0.00    +0.000 OA
ATOM     27  H   UNL     1       1.903   9.213  19.878  0.00  0.00    +0.000 HD
ENDBRANCH  20  26
ENDBRANCH   1  24
BRANCH  16  28
ATOM     28  C   UNL     1      -7.375  11.958  20.014  0.00  0.00    +0.000 C 
BRANCH  28  29
ATOM     29  C   UNL     1      -7.072  11.946  18.502  0.00  0.00    +0.000 C 
ATOM     30  F   UNL     1      -5.807  12.340  18.224  0.00  0.00    +0.000 F 
ATOM     31  F   UNL     1      -7.209  10.693  18.005  0.00  0.00    +0.000 F 
ATOM     32  F   UNL     1      -7.916  12.748  17.816  0.00  0.00    +0.000 F 
ENDBRANCH  28  29
ENDBRANCH  16  28
TORSDOF 4
ENDMDL
