MODEL 1
REMARK VINA RESULT:      -9.1      0.000      0.000
REMARK  Name = 
REMARK  8 active torsions:
REMARK  status: ('A' for Active; 'I' for Inactive)
REMARK    1  A    between atoms: C_1  and  C_2
REMARK    2  A    between atoms: C_6  and  C_7
REMARK    3  A    between atoms: C_8  and  C_9
REMARK    4  A    between atoms: C_13  and  O_14
REMARK    5  A    between atoms: O_14  and  C_15
REMARK    6  A    between atoms: C_23  and  C_24
REMARK    7  A    between atoms: C_24  and  C_25
REMARK    8  A    between atoms: C_25  and  N_26
REMARK                            x       y       z     vdW  Elec       q    Type
REMARK                         _______ _______ _______ _____ _____    ______ ____
ROOT
ATOM      1  C   UNL     1       3.439   5.748  18.271  0.00  0.00    +0.000 A 
ATOM      2  C   UNL     1       3.381   7.153  18.168  0.00  0.00    +0.000 A 
ATOM      3  C   UNL     1       4.613   7.606  17.636  0.00  0.00    +0.000 A 
ATOM      4  C   UNL     1       5.410   6.508  17.407  0.00  0.00    +0.000 A 
ATOM      5  N   UNL     1       4.672   5.375  17.727  0.00  0.00    +0.000 N 
ATOM      6  C   UNL     1       5.289   4.041  17.570  0.00  0.00    +0.000 C 
ATOM      7  C   UNL     1       6.437   4.135  16.536  0.00  0.00    +0.000 C 
ATOM      8  N   UNL     1       7.303   5.271  16.720  0.00  0.00    +0.000 N 
ATOM      9  C   UNL     1       6.775   6.511  16.938  0.00  0.00    +0.000 C 
ATOM     10  O   UNL     1       7.452   7.514  16.732  0.00  0.00    +0.000 OA
ATOM     11  H   UNL     1       8.205   5.299  16.264  0.00  0.00    +0.000 HD
ENDROOT
BRANCH   1  17
ATOM     12  C   UNL     1       1.889   2.833  22.019  0.00  0.00    +0.000 C 
ATOM     13  C   UNL     1       1.623   3.402  20.657  0.00  0.00    +0.000 A 
ATOM     14  C   UNL     1       0.620   2.888  19.838  0.00  0.00    +0.000 A 
ATOM     15  C   UNL     1       0.514   3.309  18.514  0.00  0.00    +0.000 A 
ATOM     16  C   UNL     1       1.462   4.189  17.978  0.00  0.00    +0.000 A 
ATOM     17  C   UNL     1       2.410   4.806  18.814  0.00  0.00    +0.000 A 
ATOM     18  C   UNL     1       2.452   4.419  20.149  0.00  0.00    +0.000 A 
ENDBRANCH   1  17
BRANCH   2  19
ATOM     19  C   UNL     1       2.288   8.028  18.606  0.00  0.00    +0.000 A 
ATOM     20  C   UNL     1       1.745   8.985  17.742  0.00  0.00    +0.000 A 
ATOM     21  C   UNL     1       0.704   9.811  18.171  0.00  0.00    +0.000 A 
ATOM     22  C   UNL     1       0.188   9.672  19.462  0.00  0.00    +0.000 A 
ATOM     23  C   UNL     1       0.731   8.739  20.345  0.00  0.00    +0.000 A 
ATOM     24  C   UNL     1       1.781   7.943  19.907  0.00  0.00    +0.000 A 
BRANCH  23  25
ATOM     25  O   UNL     1       0.135   8.661  21.565  0.00  0.00    +0.000 OA
BRANCH  25  26
ATOM     26  C   UNL     1       0.525   9.529  22.626  0.00  0.00    +0.000 C 
ATOM     27  F   UNL     1       0.288  10.839  22.422  0.00  0.00    +0.000 F 
ATOM     28  F   UNL     1      -0.168   9.168  23.734  0.00  0.00    +0.000 F 
ATOM     29  F   UNL     1       1.839   9.360  22.886  0.00  0.00    +0.000 F 
ENDBRANCH  25  26
ENDBRANCH  23  25
ENDBRANCH   2  19
BRANCH   6  30
ATOM     30  C   UNL     1       4.350   2.902  17.108  0.00  0.00    +0.000 C 
BRANCH  30  31
ATOM     31  C   UNL     1       4.101   1.808  18.148  0.00  0.00    +0.000 C 
BRANCH  31  32
ATOM     32  N   UNL     1       4.826   2.091  19.382  0.00  0.00    +0.000 NA
ATOM     33  H   UNL     1       5.817   1.880  19.270  0.00  0.00    +0.000 HD
ATOM     34  H   UNL     1       4.500   1.466  20.121  0.00  0.00    +0.000 HD
ENDBRANCH  31  32
ENDBRANCH  30  31
ENDBRANCH   6  30
TORSDOF 7
ENDMDL
MODEL 2
REMARK VINA RESULT:      -8.6      2.022      2.564
REMARK  Name = 
REMARK  8 active torsions:
REMARK  status: ('A' for Active; 'I' for Inactive)
REMARK    1  A    between atoms: C_1  and  C_2
REMARK    2  A    between atoms: C_6  and  C_7
REMARK    3  A    between atoms: C_8  and  C_9
REMARK    4  A    between atoms: C_13  and  O_14
REMARK    5  A    between atoms: O_14  and  C_15
REMARK    6  A    between atoms: C_23  and  C_24
REMARK    7  A    between atoms: C_24  and  C_25
REMARK    8  A    between atoms: C_25  and  N_26
REMARK                            x       y       z     vdW  Elec       q    Type
REMARK                         _______ _______ _______ _____ _____    ______ ____
ROOT
ATOM      1  C   UNL     1       3.357   5.818  18.325  0.00  0.00    +0.000 A 
ATOM      2  C   UNL     1       3.283   7.225  18.276  0.00  0.00    +0.000 A 
ATOM      3  C   UNL     1       4.501   7.710  17.739  0.00  0.00    +0.000 A 
ATOM      4  C   UNL     1       5.304   6.631  17.454  0.00  0.00    +0.000 A 
ATOM      5  N   UNL     1       4.583   5.479  17.744  0.00  0.00    +0.000 N 
ATOM      6  C   UNL     1       5.211   4.158  17.525  0.00  0.00    +0.000 C 
ATOM      7  C   UNL     1       6.339   4.304  16.474  0.00  0.00    +0.000 C 
ATOM      8  N   UNL     1       7.196   5.441  16.686  0.00  0.00    +0.000 N 
ATOM      9  C   UNL     1       6.660   6.667  16.960  0.00  0.00    +0.000 C 
ATOM     10  O   UNL     1       7.322   7.684  16.780  0.00  0.00    +0.000 OA
ATOM     11  H   UNL     1       8.089   5.496  16.214  0.00  0.00    +0.000 HD
ENDROOT
BRANCH   1  17
ATOM     12  C   UNL     1       1.843   2.842  22.040  0.00  0.00    +0.000 C 
ATOM     13  C   UNL     1       1.578   3.410  20.678  0.00  0.00    +0.000 A 
ATOM     14  C   UNL     1       0.601   2.872  19.844  0.00  0.00    +0.000 A 
ATOM     15  C   UNL     1       0.499   3.297  18.520  0.00  0.00    +0.000 A 
ATOM     16  C   UNL     1       1.429   4.206  18.001  0.00  0.00    +0.000 A 
ATOM     17  C   UNL     1       2.349   4.845  18.851  0.00  0.00    +0.000 A 
ATOM     18  C   UNL     1       2.385   4.453  20.184  0.00  0.00    +0.000 A 
ENDBRANCH   1  17
BRANCH   2  19
ATOM     19  C   UNL     1       2.190   8.071  18.767  0.00  0.00    +0.000 A 
ATOM     20  C   UNL     1       1.860   8.098  20.126  0.00  0.00    +0.000 A 
ATOM     21  C   UNL     1       0.818   8.909  20.581  0.00  0.00    +0.000 A 
ATOM     22  C   UNL     1       0.112   9.711  19.681  0.00  0.00    +0.000 A 
ATOM     23  C   UNL     1       0.412   9.680  18.319  0.00  0.00    +0.000 A 
ATOM     24  C   UNL     1       1.436   8.850  17.883  0.00  0.00    +0.000 A 
BRANCH  23  25
ATOM     25  O   UNL     1      -0.312  10.523  17.534  0.00  0.00    +0.000 OA
BRANCH  25  26
ATOM     26  C   UNL     1      -1.736  10.491  17.546  0.00  0.00    +0.000 C 
ATOM     27  F   UNL     1      -2.288   9.334  17.962  0.00  0.00    +0.000 F 
ATOM     28  F   UNL     1      -2.167  11.461  18.388  0.00  0.00    +0.000 F 
ATOM     29  F   UNL     1      -2.204  10.775  16.311  0.00  0.00    +0.000 F 
ENDBRANCH  25  26
ENDBRANCH  23  25
ENDBRANCH   2  19
BRANCH   6  30
ATOM     30  C   UNL     1       4.275   3.027  17.038  0.00  0.00    +0.000 C 
BRANCH  30  31
ATOM     31  C   UNL     1       4.033   1.908  18.051  0.00  0.00    +0.000 C 
BRANCH  31  32
ATOM     32  N   UNL     1       4.782   2.149  19.279  0.00  0.00    +0.000 NA
ATOM     33  H   UNL     1       4.181   2.564  19.989  0.00  0.00    +0.000 HD
ATOM     34  H   UNL     1       5.511   2.842  19.105  0.00  0.00    +0.000 HD
ENDBRANCH  31  32
ENDBRANCH  30  31
ENDBRANCH   6  30
TORSDOF 7
ENDMDL
MODEL 3
REMARK VINA RESULT:      -8.1      1.721      2.312
REMARK  Name = 
REMARK  8 active torsions:
REMARK  status: ('A' for Active; 'I' for Inactive)
REMARK    1  A    between atoms: C_1  and  C_2
REMARK    2  A    between atoms: C_6  and  C_7
REMARK    3  A    between atoms: C_8  and  C_9
REMARK    4  A    between atoms: C_13  and  O_14
REMARK    5  A    between atoms: O_14  and  C_15
REMARK    6  A    between atoms: C_23  and  C_24
REMARK    7  A    between atoms: C_24  and  C_25
REMARK    8  A    between atoms: C_25  and  N_26
REMARK                            x       y       z     vdW  Elec       q    Type
REMARK                         _______ _______ _______ _____ _____    ______ ____
ROOT
ATOM      1  C   UNL     1       3.378   5.638  18.389  0.00  0.00    +0.000 A 
ATOM      2  C   UNL     1       3.377   7.048  18.417  0.00  0.00    +0.000 A 
ATOM      3  C   UNL     1       4.583   7.500  17.827  0.00  0.00    +0.000 A 
ATOM      4  C   UNL     1       5.308   6.399  17.436  0.00  0.00    +0.000 A 
ATOM      5  N   UNL     1       4.546   5.271  17.713  0.00  0.00    +0.000 N 
ATOM      6  C   UNL     1       5.087   3.934  17.387  0.00  0.00    +0.000 C 
ATOM      7  C   UNL     1       6.154   4.080  16.274  0.00  0.00    +0.000 C 
ATOM      8  N   UNL     1       7.082   5.159  16.487  0.00  0.00    +0.000 N 
ATOM      9  C   UNL     1       6.631   6.394  16.857  0.00  0.00    +0.000 C 
ATOM     10  O   UNL     1       7.335   7.385  16.687  0.00  0.00    +0.000 OA
ATOM     11  H   UNL     1       7.946   5.195  15.962  0.00  0.00    +0.000 HD
ENDROOT
BRANCH   1  17
ATOM     12  C   UNL     1       1.900   2.612  22.076  0.00  0.00    +0.000 C 
ATOM     13  C   UNL     1       1.602   3.232  20.743  0.00  0.00    +0.000 A 
ATOM     14  C   UNL     1       0.570   2.759  19.937  0.00  0.00    +0.000 A 
ATOM     15  C   UNL     1       0.431   3.228  18.631  0.00  0.00    +0.000 A 
ATOM     16  C   UNL     1       1.374   4.115  18.100  0.00  0.00    +0.000 A 
ATOM     17  C   UNL     1       2.354   4.690  18.928  0.00  0.00    +0.000 A 
ATOM     18  C   UNL     1       2.430   4.256  20.247  0.00  0.00    +0.000 A 
ENDBRANCH   1  17
BRANCH   2  19
ATOM     19  C   UNL     1       2.364   7.920  19.020  0.00  0.00    +0.000 A 
ATOM     20  C   UNL     1       1.793   7.606  20.258  0.00  0.00    +0.000 A 
ATOM     21  C   UNL     1       0.830   8.446  20.822  0.00  0.00    +0.000 A 
ATOM     22  C   UNL     1       0.446   9.614  20.159  0.00  0.00    +0.000 A 
ATOM     23  C   UNL     1       0.987   9.932  18.913  0.00  0.00    +0.000 A 
ATOM     24  C   UNL     1       1.926   9.073  18.358  0.00  0.00    +0.000 A 
BRANCH  23  25
ATOM     25  O   UNL     1       0.570  11.107  18.369  0.00  0.00    +0.000 OA
BRANCH  25  26
ATOM     26  C   UNL     1       1.348  12.293  18.505  0.00  0.00    +0.000 C 
ATOM     27  F   UNL     1       2.490  12.324  17.791  0.00  0.00    +0.000 F 
ATOM     28  F   UNL     1       0.591  13.337  18.090  0.00  0.00    +0.000 F 
ATOM     29  F   UNL     1       1.646  12.489  19.808  0.00  0.00    +0.000 F 
ENDBRANCH  25  26
ENDBRANCH  23  25
ENDBRANCH   2  19
BRANCH   6  30
ATOM     30  C   UNL     1       4.064   2.880  16.904  0.00  0.00    +0.000 C 
BRANCH  30  31
ATOM     31  C   UNL     1       3.875   1.687  17.842  0.00  0.00    +0.000 C 
BRANCH  31  32
ATOM     32  N   UNL     1       4.575   1.902  19.103  0.00  0.00    +0.000 NA
ATOM     33  H   UNL     1       5.580   1.790  18.977  0.00  0.00    +0.000 HD
ATOM     34  H   UNL     1       4.306   1.178  19.772  0.00  0.00    +0.000 HD
ENDBRANCH  31  32
ENDBRANCH  30  31
ENDBRANCH   6  30
TORSDOF 7
ENDMDL
MODEL 4
REMARK VINA RESULT:      -7.7      4.817      7.172
REMARK  Name = 
REMARK  8 active torsions:
REMARK  status: ('A' for Active; 'I' for Inactive)
REMARK    1  A    between atoms: C_1  and  C_2
REMARK    2  A    between atoms: C_6  and  C_7
REMARK    3  A    between atoms: C_8  and  C_9
REMARK    4  A    between atoms: C_13  and  O_14
REMARK    5  A    between atoms: O_14  and  C_15
REMARK    6  A    between atoms: C_23  and  C_24
REMARK    7  A    between atoms: C_24  and  C_25
REMARK    8  A    between atoms: C_25  and  N_26
REMARK                            x       y       z     vdW  Elec       q    Type
REMARK                         _______ _______ _______ _____ _____    ______ ____
ROOT
ATOM      1  C   UNL     1       3.484   5.544  18.009  0.00  0.00    +0.000 A 
ATOM      2  C   UNL     1       4.327   6.206  17.094  0.00  0.00    +0.000 A 
ATOM      3  C   UNL     1       3.992   7.583  17.104  0.00  0.00    +0.000 A 
ATOM      4  C   UNL     1       2.974   7.769  18.010  0.00  0.00    +0.000 A 
ATOM      5  N   UNL     1       2.713   6.544  18.611  0.00  0.00    +0.000 N 
ATOM      6  C   UNL     1       1.656   6.453  19.640  0.00  0.00    +0.000 C 
ATOM      7  C   UNL     1       1.436   7.854  20.262  0.00  0.00    +0.000 C 
ATOM      8  N   UNL     1       1.361   8.920  19.298  0.00  0.00    +0.000 N 
ATOM      9  C   UNL     1       2.277   9.002  18.289  0.00  0.00    +0.000 C 
ATOM     10  O   UNL     1       2.454  10.065  17.701  0.00  0.00    +0.000 OA
ATOM     11  H   UNL     1       0.987   9.820  19.567  0.00  0.00    +0.000 HD
ENDROOT
BRANCH   1  17
ATOM     12  C   UNL     1       5.255   1.660  20.601  0.00  0.00    +0.000 C 
ATOM     13  C   UNL     1       4.249   2.180  19.619  0.00  0.00    +0.000 A 
ATOM     14  C   UNL     1       3.469   1.317  18.853  0.00  0.00    +0.000 A 
ATOM     15  C   UNL     1       2.677   1.819  17.821  0.00  0.00    +0.000 A 
ATOM     16  C   UNL     1       2.724   3.181  17.500  0.00  0.00    +0.000 A 
ATOM     17  C   UNL     1       3.413   4.084  18.329  0.00  0.00    +0.000 A 
ATOM     18  C   UNL     1       4.141   3.565  19.394  0.00  0.00    +0.000 A 
ENDBRANCH   1  17
BRANCH   2  19
ATOM     19  C   UNL     1       5.324   5.596  16.208  0.00  0.00    +0.000 A 
ATOM     20  C   UNL     1       6.676   5.942  16.303  0.00  0.00    +0.000 A 
ATOM     21  C   UNL     1       7.615   5.352  15.454  0.00  0.00    +0.000 A 
ATOM     22  C   UNL     1       7.209   4.399  14.517  0.00  0.00    +0.000 A 
ATOM     23  C   UNL     1       5.862   4.057  14.391  0.00  0.00    +0.000 A 
ATOM     24  C   UNL     1       4.941   4.672  15.229  0.00  0.00    +0.000 A 
BRANCH  23  25
ATOM     25  O   UNL     1       5.578   3.096  13.472  0.00  0.00    +0.000 OA
BRANCH  25  26
ATOM     26  C   UNL     1       5.773   3.334  12.081  0.00  0.00    +0.000 C 
ATOM     27  F   UNL     1       6.756   4.202  11.772  0.00  0.00    +0.000 F 
ATOM     28  F   UNL     1       6.088   2.153  11.497  0.00  0.00    +0.000 F 
ATOM     29  F   UNL     1       4.618   3.772  11.533  0.00  0.00    +0.000 F 
ENDBRANCH  25  26
ENDBRANCH  23  25
ENDBRANCH   2  19
BRANCH   6  30
ATOM     30  C   UNL     1       1.916   5.470  20.806  0.00  0.00    +0.000 C 
BRANCH  30  31
ATOM     31  C   UNL     1       1.091   4.184  20.764  0.00  0.00    +0.000 C 
BRANCH  31  32
ATOM     32  N   UNL     1       1.574   3.225  21.751  0.00  0.00    +0.000 NA
ATOM     33  H   UNL     1       0.975   3.229  22.576  0.00  0.00    +0.000 HD
ATOM     34  H   UNL     1       2.495   3.514  22.087  0.00  0.00    +0.000 HD
ENDBRANCH  31  32
ENDBRANCH  30  31
ENDBRANCH   6  30
TORSDOF 7
ENDMDL
MODEL 5
REMARK VINA RESULT:      -7.3      4.837      7.233
REMARK  Name = 
REMARK  8 active torsions:
REMARK  status: ('A' for Active; 'I' for Inactive)
REMARK    1  A    between atoms: C_1  and  C_2
REMARK    2  A    between atoms: C_6  and  C_7
REMARK    3  A    between atoms: C_8  and  C_9
REMARK    4  A    between atoms: C_13  and  O_14
REMARK    5  A    between atoms: O_14  and  C_15
REMARK    6  A    between atoms: C_23  and  C_24
REMARK    7  A    between atoms: C_24  and  C_25
REMARK    8  A    between atoms: C_25  and  N_26
REMARK                            x       y       z     vdW  Elec       q    Type
REMARK                         _______ _______ _______ _____ _____    ______ ____
ROOT
ATOM      1  C   UNL     1       3.625   5.611  18.017  0.00  0.00    +0.000 A 
ATOM      2  C   UNL     1       4.392   6.246  17.018  0.00  0.00    +0.000 A 
ATOM      3  C   UNL     1       4.008   7.609  16.970  0.00  0.00    +0.000 A 
ATOM      4  C   UNL     1       3.035   7.813  17.920  0.00  0.00    +0.000 A 
ATOM      5  N   UNL     1       2.852   6.617  18.603  0.00  0.00    +0.000 N 
ATOM      6  C   UNL     1       1.856   6.551  19.694  0.00  0.00    +0.000 C 
ATOM      7  C   UNL     1       1.620   7.978  20.247  0.00  0.00    +0.000 C 
ATOM      8  N   UNL     1       1.453   8.983  19.231  0.00  0.00    +0.000 N 
ATOM      9  C   UNL     1       2.309   9.037  18.168  0.00  0.00    +0.000 C 
ATOM     10  O   UNL     1       2.415  10.069  17.512  0.00  0.00    +0.000 OA
ATOM     11  H   UNL     1       1.062   9.884  19.469  0.00  0.00    +0.000 HD
ENDROOT
BRANCH   1  17
ATOM     12  C   UNL     1       1.099   1.334  18.535  0.00  0.00    +0.000 C 
ATOM     13  C   UNL     1       2.406   2.059  18.647  0.00  0.00    +0.000 A 
ATOM     14  C   UNL     1       3.487   1.507  19.330  0.00  0.00    +0.000 A 
ATOM     15  C   UNL     1       4.625   2.275  19.576  0.00  0.00    +0.000 A 
ATOM     16  C   UNL     1       4.654   3.626  19.209  0.00  0.00    +0.000 A 
ATOM     17  C   UNL     1       3.625   4.170  18.421  0.00  0.00    +0.000 A 
ATOM     18  C   UNL     1       2.530   3.363  18.130  0.00  0.00    +0.000 A 
ENDBRANCH   1  17
BRANCH   2  19
ATOM     19  C   UNL     1       5.361   5.618  16.113  0.00  0.00    +0.000 A 
ATOM     20  C   UNL     1       6.717   5.955  16.170  0.00  0.00    +0.000 A 
ATOM     21  C   UNL     1       7.629   5.349  15.303  0.00  0.00    +0.000 A 
ATOM     22  C   UNL     1       7.192   4.389  14.387  0.00  0.00    +0.000 A 
ATOM     23  C   UNL     1       5.839   4.057  14.300  0.00  0.00    +0.000 A 
ATOM     24  C   UNL     1       4.945   4.688  15.154  0.00  0.00    +0.000 A 
BRANCH  23  25
ATOM     25  O   UNL     1       5.524   3.089  13.399  0.00  0.00    +0.000 OA
BRANCH  25  26
ATOM     26  C   UNL     1       5.713   3.300  12.002  0.00  0.00    +0.000 C 
ATOM     27  F   UNL     1       6.672   4.187  11.673  0.00  0.00    +0.000 F 
ATOM     28  F   UNL     1       6.061   2.115  11.446  0.00  0.00    +0.000 F 
ATOM     29  F   UNL     1       4.547   3.693  11.445  0.00  0.00    +0.000 F 
ENDBRANCH  25  26
ENDBRANCH  23  25
ENDBRANCH   2  19
BRANCH   6  30
ATOM     30  C   UNL     1       2.216   5.648  20.897  0.00  0.00    +0.000 C 
BRANCH  30  31
ATOM     31  C   UNL     1       1.354   4.394  21.044  0.00  0.00    +0.000 C 
BRANCH  31  32
ATOM     32  N   UNL     1       1.998   3.422  21.920  0.00  0.00    +0.000 NA
ATOM     33  H   UNL     1       2.198   3.837  22.829  0.00  0.00    +0.000 HD
ATOM     34  H   UNL     1       2.908   3.165  21.536  0.00  0.00    +0.000 HD
ENDBRANCH  31  32
ENDBRANCH  30  31
ENDBRANCH   6  30
TORSDOF 7
ENDMDL
MODEL 6
REMARK VINA RESULT:      -7.0      0.929      1.307
REMARK  Name = 
REMARK  8 active torsions:
REMARK  status: ('A' for Active; 'I' for Inactive)
REMARK    1  A    between atoms: C_1  and  C_2
REMARK    2  A    between atoms: C_6  and  C_7
REMARK    3  A    between atoms: C_8  and  C_9
REMARK    4  A    between atoms: C_13  and  O_14
REMARK    5  A    between atoms: O_14  and  C_15
REMARK    6  A    between atoms: C_23  and  C_24
REMARK    7  A    between atoms: C_24  and  C_25
REMARK    8  A    between atoms: C_25  and  N_26
REMARK                            x       y       z     vdW  Elec       q    Type
REMARK                         _______ _______ _______ _____ _____    ______ ____
ROOT
ATOM      1  C   UNL     1       3.671   6.051  18.296  0.00  0.00    +0.000 A 
ATOM      2  C   UNL     1       3.496   7.448  18.222  0.00  0.00    +0.000 A 
ATOM      3  C   UNL     1       4.726   8.024  17.819  0.00  0.00    +0.000 A 
ATOM      4  C   UNL     1       5.636   7.008  17.638  0.00  0.00    +0.000 A 
ATOM      5  N   UNL     1       4.977   5.805  17.859  0.00  0.00    +0.000 N 
ATOM      6  C   UNL     1       5.723   4.536  17.727  0.00  0.00    +0.000 C 
ATOM      7  C   UNL     1       6.947   4.765  16.806  0.00  0.00    +0.000 C 
ATOM      8  N   UNL     1       7.686   5.964  17.099  0.00  0.00    +0.000 N 
ATOM      9  C   UNL     1       7.032   7.147  17.297  0.00  0.00    +0.000 C 
ATOM     10  O   UNL     1       7.631   8.211  17.179  0.00  0.00    +0.000 OA
ATOM     11  H   UNL     1       8.619   6.087  16.729  0.00  0.00    +0.000 HD
ENDROOT
BRANCH   1  17
ATOM     12  C   UNL     1       2.203   2.713  21.709  0.00  0.00    +0.000 C 
ATOM     13  C   UNL     1       1.938   3.392  20.398  0.00  0.00    +0.000 A 
ATOM     14  C   UNL     1       0.989   2.900  19.505  0.00  0.00    +0.000 A 
ATOM     15  C   UNL     1       0.891   3.437  18.222  0.00  0.00    +0.000 A 
ATOM     16  C   UNL     1       1.799   4.417  17.800  0.00  0.00    +0.000 A 
ATOM     17  C   UNL     1       2.687   5.005  18.717  0.00  0.00    +0.000 A 
ATOM     18  C   UNL     1       2.718   4.498  20.012  0.00  0.00    +0.000 A 
ENDBRANCH   1  17
BRANCH   2  19
ATOM     19  C   UNL     1       2.294   8.209  18.579  0.00  0.00    +0.000 A 
ATOM     20  C   UNL     1       1.670   9.042  17.644  0.00  0.00    +0.000 A 
ATOM     21  C   UNL     1       0.525   9.760  17.996  0.00  0.00    +0.000 A 
ATOM     22  C   UNL     1      -0.012   9.635  19.280  0.00  0.00    +0.000 A 
ATOM     23  C   UNL     1       0.610   8.827  20.232  0.00  0.00    +0.000 A 
ATOM     24  C   UNL     1       1.760   8.139  19.870  0.00  0.00    +0.000 A 
BRANCH  23  25
ATOM     25  O   UNL     1      -0.012   8.749  21.439  0.00  0.00    +0.000 OA
BRANCH  25  26
ATOM     26  C   UNL     1       0.476   9.479  22.562  0.00  0.00    +0.000 C 
ATOM     27  F   UNL     1       1.781   9.303  22.846  0.00  0.00    +0.000 F 
ATOM     28  F   UNL     1       0.300  10.798  22.308  0.00  0.00    +0.000 F 
ATOM     29  F   UNL     1      -0.254   9.166  23.654  0.00  0.00    +0.000 F 
ENDBRANCH  25  26
ENDBRANCH  23  25
ENDBRANCH   2  19
BRANCH   6  30
ATOM     30  C   UNL     1       4.936   3.335  17.153  0.00  0.00    +0.000 C 
BRANCH  30  31
ATOM     31  C   UNL     1       4.620   3.424  15.659  0.00  0.00    +0.000 C 
BRANCH  31  32
ATOM     32  N   UNL     1       5.822   3.210  14.861  0.00  0.00    +0.000 NA
ATOM     33  H   UNL     1       6.522   3.919  15.071  0.00  0.00    +0.000 HD
ATOM     34  H   UNL     1       5.602   3.334  13.871  0.00  0.00    +0.000 HD
ENDBRANCH  31  32
ENDBRANCH  30  31
ENDBRANCH   6  30
TORSDOF 7
ENDMDL
MODEL 7
REMARK VINA RESULT:      -7.0      4.493      7.063
REMARK  Name = 
REMARK  8 active torsions:
REMARK  status: ('A' for Active; 'I' for Inactive)
REMARK    1  A    between atoms: C_1  and  C_2
REMARK    2  A    between atoms: C_6  and  C_7
REMARK    3  A    between atoms: C_8  and  C_9
REMARK    4  A    between atoms: C_13  and  O_14
REMARK    5  A    between atoms: O_14  and  C_15
REMARK    6  A    between atoms: C_23  and  C_24
REMARK    7  A    between atoms: C_24  and  C_25
REMARK    8  A    between atoms: C_25  and  N_26
REMARK                            x       y       z     vdW  Elec       q    Type
REMARK                         _______ _______ _______ _____ _____    ______ ____
ROOT
ATOM      1  C   UNL     1       2.789   6.698  18.880  0.00  0.00    +0.000 A 
ATOM      2  C   UNL     1       3.887   6.986  18.043  0.00  0.00    +0.000 A 
ATOM      3  C   UNL     1       3.756   8.322  17.591  0.00  0.00    +0.000 A 
ATOM      4  C   UNL     1       2.612   8.850  18.142  0.00  0.00    +0.000 A 
ATOM      5  N   UNL     1       2.062   7.888  18.980  0.00  0.00    +0.000 N 
ATOM      6  C   UNL     1       0.815   8.194  19.713  0.00  0.00    +0.000 C 
ATOM      7  C   UNL     1       0.675   9.730  19.850  0.00  0.00    +0.000 C 
ATOM      8  N   UNL     1       0.950  10.456  18.639  0.00  0.00    +0.000 N 
ATOM      9  C   UNL     1       2.055  10.160  17.893  0.00  0.00    +0.000 C 
ATOM     10  O   UNL     1       2.498  10.978  17.093  0.00  0.00    +0.000 OA
ATOM     11  H   UNL     1       0.662  11.421  18.551  0.00  0.00    +0.000 HD
ENDROOT
BRANCH   1  17
ATOM     12  C   UNL     1       0.484   2.270  18.725  0.00  0.00    +0.000 C 
ATOM     13  C   UNL     1       1.351   3.226  19.489  0.00  0.00    +0.000 A 
ATOM     14  C   UNL     1       1.604   3.050  20.847  0.00  0.00    +0.000 A 
ATOM     15  C   UNL     1       2.257   4.046  21.571  0.00  0.00    +0.000 A 
ATOM     16  C   UNL     1       2.589   5.259  20.956  0.00  0.00    +0.000 A 
ATOM     17  C   UNL     1       2.447   5.413  19.566  0.00  0.00    +0.000 A 
ATOM     18  C   UNL     1       1.854   4.376  18.853  0.00  0.00    +0.000 A 
ENDBRANCH   1  17
BRANCH   2  19
ATOM     19  C   UNL     1       4.946   6.062  17.624  0.00  0.00    +0.000 A 
ATOM     20  C   UNL     1       6.139   5.963  18.347  0.00  0.00    +0.000 A 
ATOM     21  C   UNL     1       7.139   5.078  17.937  0.00  0.00    +0.000 A 
ATOM     22  C   UNL     1       6.943   4.274  16.812  0.00  0.00    +0.000 A 
ATOM     23  C   UNL     1       5.769   4.375  16.065  0.00  0.00    +0.000 A 
ATOM     24  C   UNL     1       4.797   5.277  16.475  0.00  0.00    +0.000 A 
BRANCH  23  25
ATOM     25  O   UNL     1       5.665   3.524  15.008  0.00  0.00    +0.000 OA
BRANCH  25  26
ATOM     26  C   UNL     1       5.957   3.963  13.685  0.00  0.00    +0.000 C 
ATOM     27  F   UNL     1       6.641   3.090  12.920  0.00  0.00    +0.000 F 
ATOM     28  F   UNL     1       4.780   4.202  13.057  0.00  0.00    +0.000 F 
ATOM     29  F   UNL     1       6.642   5.126  13.737  0.00  0.00    +0.000 F 
ENDBRANCH  25  26
ENDBRANCH  23  25
ENDBRANCH   2  19
BRANCH   6  30
ATOM     30  C   UNL     1       0.690   7.594  21.133  0.00  0.00    +0.000 C 
BRANCH  30  31
ATOM     31  C   UNL     1       0.573   8.620  22.260  0.00  0.00    +0.000 C 
BRANCH  31  32
ATOM     32  N   UNL     1      -0.779   8.639  22.806  0.00  0.00    +0.000 NA
ATOM     33  H   UNL     1      -1.286   9.459  22.476  0.00  0.00    +0.000 HD
ATOM     34  H   UNL     1      -0.737   8.740  23.821  0.00  0.00    +0.000 HD
ENDBRANCH  31  32
ENDBRANCH  30  31
ENDBRANCH   6  30
TORSDOF 7
ENDMDL
MODEL 8
REMARK VINA RESULT:      -7.0      8.182     11.866
REMARK  Name = 
REMARK  8 active torsions:
REMARK  status: ('A' for Active; 'I' for Inactive)
REMARK    1  A    between atoms: C_1  and  C_2
REMARK    2  A    between atoms: C_6  and  C_7
REMARK    3  A    between atoms: C_8  and  C_9
REMARK    4  A    between atoms: C_13  and  O_14
REMARK    5  A    between atoms: O_14  and  C_15
REMARK    6  A    between atoms: C_23  and  C_24
REMARK    7  A    between atoms: C_24  and  C_25
REMARK    8  A    between atoms: C_25  and  N_26
REMARK                            x       y       z     vdW  Elec       q    Type
REMARK                         _______ _______ _______ _____ _____    ______ ____
ROOT
ATOM      1  C   UNL     1      -4.623  13.362  21.325  0.00  0.00    +0.000 A 
ATOM      2  C   UNL     1      -3.249  13.094  21.487  0.00  0.00    +0.000 A 
ATOM      3  C   UNL     1      -2.782  13.847  22.593  0.00  0.00    +0.000 A 
ATOM      4  C   UNL     1      -3.843  14.555  23.107  0.00  0.00    +0.000 A 
ATOM      5  N   UNL     1      -4.975  14.207  22.381  0.00  0.00    +0.000 N 
ATOM      6  C   UNL     1      -6.274  14.824  22.728  0.00  0.00    +0.000 C 
ATOM      7  C   UNL     1      -6.229  15.301  24.200  0.00  0.00    +0.000 C 
ATOM      8  N   UNL     1      -5.023  16.004  24.553  0.00  0.00    +0.000 N 
ATOM      9  C   UNL     1      -3.804  15.506  24.193  0.00  0.00    +0.000 C 
ATOM     10  O   UNL     1      -2.790  15.871  24.780  0.00  0.00    +0.000 OA
ATOM     11  H   UNL     1      -4.990  16.558  25.399  0.00  0.00    +0.000 HD
ENDROOT
BRANCH   1  17
ATOM     12  C   UNL     1      -7.074   9.498  19.324  0.00  0.00    +0.000 C 
ATOM     13  C   UNL     1      -6.793  10.970  19.308  0.00  0.00    +0.000 A 
ATOM     14  C   UNL     1      -7.167  11.769  18.230  0.00  0.00    +0.000 A 
ATOM     15  C   UNL     1      -6.733  13.092  18.157  0.00  0.00    +0.000 A 
ATOM     16  C   UNL     1      -5.857  13.599  19.124  0.00  0.00    +0.000 A 
ATOM     17  C   UNL     1      -5.560  12.850  20.276  0.00  0.00    +0.000 A 
ATOM     18  C   UNL     1      -6.060  11.555  20.358  0.00  0.00    +0.000 A 
ENDBRANCH   1  17
BRANCH   2  19
ATOM     19  C   UNL     1      -2.403  12.258  20.628  0.00  0.00    +0.000 A 
ATOM     20  C   UNL     1      -1.323  11.546  21.160  0.00  0.00    +0.000 A 
ATOM     21  C   UNL     1      -0.527  10.753  20.331  0.00  0.00    +0.000 A 
ATOM     22  C   UNL     1      -0.817  10.654  18.968  0.00  0.00    +0.000 A 
ATOM     23  C   UNL     1      -1.876  11.375  18.415  0.00  0.00    +0.000 A 
ATOM     24  C   UNL     1      -2.641  12.176  19.251  0.00  0.00    +0.000 A 
BRANCH  23  25
ATOM     25  O   UNL     1      -2.093  11.183  17.087  0.00  0.00    +0.000 OA
BRANCH  25  26
ATOM     26  C   UNL     1      -3.040  10.221  16.632  0.00  0.00    +0.000 C 
ATOM     27  F   UNL     1      -3.787   9.641  17.593  0.00  0.00    +0.000 F 
ATOM     28  F   UNL     1      -3.897  10.847  15.789  0.00  0.00    +0.000 F 
ATOM     29  F   UNL     1      -2.403   9.255  15.935  0.00  0.00    +0.000 F 
ENDBRANCH  25  26
ENDBRANCH  23  25
ENDBRANCH   2  19
BRANCH   6  30
ATOM     30  C   UNL     1      -7.522  13.923  22.577  0.00  0.00    +0.000 C 
BRANCH  30  31
ATOM     31  C   UNL     1      -7.915  13.147  23.835  0.00  0.00    +0.000 C 
BRANCH  31  32
ATOM     32  N   UNL     1      -7.410  11.780  23.780  0.00  0.00    +0.000 NA
ATOM     33  H   UNL     1      -6.777  11.601  24.558  0.00  0.00    +0.000 HD
ATOM     34  H   UNL     1      -6.843  11.658  22.939  0.00  0.00    +0.000 HD
ENDBRANCH  31  32
ENDBRANCH  30  31
ENDBRANCH   6  30
TORSDOF 7
ENDMDL
MODEL 9
REMARK VINA RESULT:      -6.8      8.216     11.690
REMARK  Name = 
REMARK  8 active torsions:
REMARK  status: ('A' for Active; 'I' for Inactive)
REMARK    1  A    between atoms: C_1  and  C_2
REMARK    2  A    between atoms: C_6  and  C_7
REMARK    3  A    between atoms: C_8  and  C_9
REMARK    4  A    between atoms: C_13  and  O_14
REMARK    5  A    between atoms: O_14  and  C_15
REMARK    6  A    between atoms: C_23  and  C_24
REMARK    7  A    between atoms: C_24  and  C_25
REMARK    8  A    between atoms: C_25  and  N_26
REMARK                            x       y       z     vdW  Elec       q    Type
REMARK                         _______ _______ _______ _____ _____    ______ ____
ROOT
ATOM      1  C   UNL     1      -3.646  13.386  22.427  0.00  0.00    +0.000 A 
ATOM      2  C   UNL     1      -4.836  13.416  21.670  0.00  0.00    +0.000 A 
ATOM      3  C   UNL     1      -5.668  14.433  22.200  0.00  0.00    +0.000 A 
ATOM      4  C   UNL     1      -5.006  15.023  23.252  0.00  0.00    +0.000 A 
ATOM      5  N   UNL     1      -3.751  14.435  23.346  0.00  0.00    +0.000 N 
ATOM      6  C   UNL     1      -2.817  14.887  24.399  0.00  0.00    +0.000 C 
ATOM      7  C   UNL     1      -3.200  16.324  24.829  0.00  0.00    +0.000 C 
ATOM      8  N   UNL     1      -4.611  16.519  25.038  0.00  0.00    +0.000 N 
ATOM      9  C   UNL     1      -5.514  16.056  24.124  0.00  0.00    +0.000 C 
ATOM     10  O   UNL     1      -6.650  16.518  24.090  0.00  0.00    +0.000 OA
ATOM     11  H   UNL     1      -4.941  17.331  25.543  0.00  0.00    +0.000 HD
ENDROOT
BRANCH   1  17
ATOM     12  C   UNL     1      -0.083  11.418  19.534  0.00  0.00    +0.000 C 
ATOM     13  C   UNL     1      -0.703  11.519  20.896  0.00  0.00    +0.000 A 
ATOM     14  C   UNL     1      -0.383  10.618  21.909  0.00  0.00    +0.000 A 
ATOM     15  C   UNL     1      -1.105  10.620  23.101  0.00  0.00    +0.000 A 
ATOM     16  C   UNL     1      -2.206  11.472  23.254  0.00  0.00    +0.000 A 
ATOM     17  C   UNL     1      -2.475  12.464  22.294  0.00  0.00    +0.000 A 
ATOM     18  C   UNL     1      -1.696  12.485  21.142  0.00  0.00    +0.000 A 
ENDBRANCH   1  17
BRANCH   2  19
ATOM     19  C   UNL     1      -5.213  12.512  20.579  0.00  0.00    +0.000 A 
ATOM     20  C   UNL     1      -6.366  11.724  20.667  0.00  0.00    +0.000 A 
ATOM     21  C   UNL     1      -6.714  10.867  19.620  0.00  0.00    +0.000 A 
ATOM     22  C   UNL     1      -5.922  10.809  18.472  0.00  0.00    +0.000 A 
ATOM     23  C   UNL     1      -4.757  11.570  18.375  0.00  0.00    +0.000 A 
ATOM     24  C   UNL     1      -4.414  12.397  19.436  0.00  0.00    +0.000 A 
BRANCH  23  25
ATOM     25  O   UNL     1      -4.076  11.464  17.203  0.00  0.00    +0.000 OA
BRANCH  25  26
ATOM     26  C   UNL     1      -3.015  10.524  17.055  0.00  0.00    +0.000 C 
ATOM     27  F   UNL     1      -2.714   9.809  18.157  0.00  0.00    +0.000 F 
ATOM     28  F   UNL     1      -3.375   9.638  16.095  0.00  0.00    +0.000 F 
ATOM     29  F   UNL     1      -1.902  11.162  16.634  0.00  0.00    +0.000 F 
ENDBRANCH  25  26
ENDBRANCH  23  25
ENDBRANCH   2  19
BRANCH   6  30
ATOM     30  C   UNL     1      -1.317  14.907  24.022  0.00  0.00    +0.000 C 
BRANCH  30  31
ATOM     31  C   UNL     1      -0.689  16.299  23.941  0.00  0.00    +0.000 C 
BRANCH  31  32
ATOM     32  N   UNL     1       0.558  16.350  24.695  0.00  0.00    +0.000 NA
ATOM     33  H   UNL     1       0.820  15.419  25.016  0.00  0.00    +0.000 HD
ATOM     34  H   UNL     1       0.422  16.899  25.545  0.00  0.00    +0.000 HD
ENDBRANCH  31  32
ENDBRANCH  30  31
ENDBRANCH   6  30
TORSDOF 7
ENDMDL
