MODEL 1
REMARK VINA RESULT:      -6.8      0.000      0.000
REMARK  Name = 
REMARK  10 active torsions:
REMARK  status: ('A' for Active; 'I' for Inactive)
REMARK    1  A    between atoms: C_1  and  O_2
REMARK    2  A    between atoms: O_2  and  C_3
REMARK    3  A    between atoms: C_6  and  O_7
REMARK    4  A    between atoms: O_7  and  C_8
REMARK    5  A    between atoms: N_10  and  C_11
REMARK    6  A    between atoms: C_17  and  C_18
REMARK    7  A    between atoms: C_18  and  C_19
REMARK    8  A    between atoms: C_19  and  C_20
REMARK    9  A    between atoms: C_19  and  C_21
REMARK   10  A    between atoms: N_23  and  C_24
REMARK                            x       y       z     vdW  Elec       q    Type
REMARK                         _______ _______ _______ _____ _____    ______ ____
ROOT
ATOM      1  C   UNL     1       2.267   5.519  19.904  0.00  0.00    +0.000 A 
ATOM      2  N   UNL     1       1.211   4.967  20.573  0.00  0.00    +0.000 NA
ATOM      3  C   UNL     1       1.281   3.688  20.983  0.00  0.00    +0.000 A 
ATOM      4  N   UNL     1       2.291   2.822  20.824  0.00  0.00    +0.000 NA
ATOM      5  C   UNL     1       3.322   3.392  20.176  0.00  0.00    +0.000 A 
ATOM      6  C   UNL     1       3.393   4.690  19.692  0.00  0.00    +0.000 A 
ATOM      7  C   UNL     1       4.700   4.762  19.110  0.00  0.00    +0.000 A 
ATOM      8  N   UNL     1       5.387   3.623  19.263  0.00  0.00    +0.000 NA
ATOM      9  N   UNL     1       4.517   2.802  19.873  0.00  0.00    +0.000 N 
ATOM     10  C   UNL     1       4.894   1.434  20.119  0.00  0.00    +0.000 C 
ENDROOT
BRANCH   1  13
ATOM     11  C   UNL     1       1.960   8.853  19.093  0.00  0.00    +0.000 C 
ATOM     12  C   UNL     1       1.592   7.950  20.286  0.00  0.00    +0.000 C 
ATOM     13  N   UNL     1       2.173   6.870  19.555  0.00  0.00    +0.000 N 
ATOM     14  C   UNL     1       2.086   7.550  18.317  0.00  0.00    +0.000 C 
BRANCH  11  15
ATOM     15  O   UNL     1       0.996   9.766  18.522  0.00  0.00    +0.000 OA
BRANCH  15  19
ATOM     16  C   UNL     1       1.713  13.830  18.915  0.00  0.00    +0.000 A 
ATOM     17  C   UNL     1       2.592  13.022  18.195  0.00  0.00    +0.000 A 
ATOM     18  C   UNL     1       2.357  11.646  18.078  0.00  0.00    +0.000 A 
ATOM     19  C   UNL     1       1.246  11.094  18.716  0.00  0.00    +0.000 A 
ATOM     20  C   UNL     1       0.391  11.891  19.464  0.00  0.00    +0.000 A 
ATOM     21  C   UNL     1       0.627  13.254  19.569  0.00  0.00    +0.000 A 
BRANCH  16  23
ATOM     22  C   UNL     1       0.874  16.020  19.069  0.00  0.00    +0.000 C 
ATOM     23  O   UNL     1       2.005  15.166  18.934  0.00  0.00    +0.000 OA
ENDBRANCH  16  23
ENDBRANCH  15  19
ENDBRANCH  11  15
ENDBRANCH   1  13
BRANCH   7  24
ATOM     24  C   UNL     1       5.309   5.926  18.417  0.00  0.00    +0.000 C 
BRANCH  24  25
ATOM     25  C   UNL     1       6.214   5.740  17.200  0.00  0.00    +0.000 C 
ATOM     26  C   UNL     1       5.471   5.876  15.873  0.00  0.00    +0.000 C 
ATOM     27  C   UNL     1       7.309   6.820  17.271  0.00  0.00    +0.000 C 
ENDBRANCH  24  25
ENDBRANCH   7  24
TORSDOF 6
ENDMDL
MODEL 2
REMARK VINA RESULT:      -6.7      1.393      1.900
REMARK  Name = 
REMARK  10 active torsions:
REMARK  status: ('A' for Active; 'I' for Inactive)
REMARK    1  A    between atoms: C_1  and  O_2
REMARK    2  A    between atoms: O_2  and  C_3
REMARK    3  A    between atoms: C_6  and  O_7
REMARK    4  A    between atoms: O_7  and  C_8
REMARK    5  A    between atoms: N_10  and  C_11
REMARK    6  A    between atoms: C_17  and  C_18
REMARK    7  A    between atoms: C_18  and  C_19
REMARK    8  A    between atoms: C_19  and  C_20
REMARK    9  A    between atoms: C_19  and  C_21
REMARK   10  A    between atoms: N_23  and  C_24
REMARK                            x       y       z     vdW  Elec       q    Type
REMARK                         _______ _______ _______ _____ _____    ______ ____
ROOT
ATOM      1  C   UNL     1       2.395   5.493  19.733  0.00  0.00    +0.000 A 
ATOM      2  N   UNL     1       1.305   5.035  20.417  0.00  0.00    +0.000 NA
ATOM      3  C   UNL     1       1.327   3.799  20.949  0.00  0.00    +0.000 A 
ATOM      4  N   UNL     1       2.317   2.897  20.906  0.00  0.00    +0.000 NA
ATOM      5  C   UNL     1       3.382   3.376  20.239  0.00  0.00    +0.000 A 
ATOM      6  C   UNL     1       3.503   4.620  19.636  0.00  0.00    +0.000 A 
ATOM      7  C   UNL     1       4.828   4.603  19.092  0.00  0.00    +0.000 A 
ATOM      8  N   UNL     1       5.479   3.467  19.375  0.00  0.00    +0.000 NA
ATOM      9  N   UNL     1       4.568   2.731  20.031  0.00  0.00    +0.000 N 
ATOM     10  C   UNL     1       4.900   1.384  20.419  0.00  0.00    +0.000 C 
ENDROOT
BRANCH   1  13
ATOM     11  C   UNL     1       2.200   8.738  18.593  0.00  0.00    +0.000 C 
ATOM     12  C   UNL     1       1.688   7.944  19.810  0.00  0.00    +0.000 C 
ATOM     13  N   UNL     1       2.349   6.806  19.254  0.00  0.00    +0.000 N 
ATOM     14  C   UNL     1       2.413   7.372  17.959  0.00  0.00    +0.000 C 
BRANCH  11  15
ATOM     15  O   UNL     1       1.315   9.589  17.830  0.00  0.00    +0.000 OA
BRANCH  15  19
ATOM     16  C   UNL     1      -0.693  12.399  20.122  0.00  0.00    +0.000 A 
ATOM     17  C   UNL     1      -1.390  11.369  19.494  0.00  0.00    +0.000 A 
ATOM     18  C   UNL     1      -0.712  10.430  18.706  0.00  0.00    +0.000 A 
ATOM     19  C   UNL     1       0.667  10.560  18.538  0.00  0.00    +0.000 A 
ATOM     20  C   UNL     1       1.357  11.606  19.133  0.00  0.00    +0.000 A 
ATOM     21  C   UNL     1       0.679  12.527  19.918  0.00  0.00    +0.000 A 
BRANCH  16  23
ATOM     22  C   UNL     1      -2.826  12.926  20.956  0.00  0.00    +0.000 C 
ATOM     23  O   UNL     1      -1.438  13.237  20.905  0.00  0.00    +0.000 OA
ENDBRANCH  16  23
ENDBRANCH  15  19
ENDBRANCH  11  15
ENDBRANCH   1  13
BRANCH   7  24
ATOM     24  C   UNL     1       5.489   5.680  18.311  0.00  0.00    +0.000 C 
BRANCH  24  25
ATOM     25  C   UNL     1       6.954   5.571  17.892  0.00  0.00    +0.000 C 
ATOM     26  C   UNL     1       7.152   4.771  16.607  0.00  0.00    +0.000 C 
ATOM     27  C   UNL     1       7.478   7.002  17.674  0.00  0.00    +0.000 C 
ENDBRANCH  24  25
ENDBRANCH   7  24
TORSDOF 6
ENDMDL
MODEL 3
REMARK VINA RESULT:      -6.6      0.721      1.322
REMARK  Name = 
REMARK  10 active torsions:
REMARK  status: ('A' for Active; 'I' for Inactive)
REMARK    1  A    between atoms: C_1  and  O_2
REMARK    2  A    between atoms: O_2  and  C_3
REMARK    3  A    between atoms: C_6  and  O_7
REMARK    4  A    between atoms: O_7  and  C_8
REMARK    5  A    between atoms: N_10  and  C_11
REMARK    6  A    between atoms: C_17  and  C_18
REMARK    7  A    between atoms: C_18  and  C_19
REMARK    8  A    between atoms: C_19  and  C_20
REMARK    9  A    between atoms: C_19  and  C_21
REMARK   10  A    between atoms: N_23  and  C_24
REMARK                            x       y       z     vdW  Elec       q    Type
REMARK                         _______ _______ _______ _____ _____    ______ ____
ROOT
ATOM      1  C   UNL     1       2.319   5.348  19.832  0.00  0.00    +0.000 A 
ATOM      2  N   UNL     1       1.208   4.827  20.433  0.00  0.00    +0.000 NA
ATOM      3  C   UNL     1       1.220   3.549  20.856  0.00  0.00    +0.000 A 
ATOM      4  N   UNL     1       2.217   2.659  20.772  0.00  0.00    +0.000 NA
ATOM      5  C   UNL     1       3.303   3.199  20.190  0.00  0.00    +0.000 A 
ATOM      6  C   UNL     1       3.437   4.491  19.702  0.00  0.00    +0.000 A 
ATOM      7  C   UNL     1       4.781   4.526  19.208  0.00  0.00    +0.000 A 
ATOM      8  N   UNL     1       5.429   3.373  19.415  0.00  0.00    +0.000 NA
ATOM      9  N   UNL     1       4.500   2.579  19.971  0.00  0.00    +0.000 N 
ATOM     10  C   UNL     1       4.828   1.204  20.253  0.00  0.00    +0.000 C 
ENDROOT
BRANCH   1  13
ATOM     11  C   UNL     1       2.150   8.682  18.983  0.00  0.00    +0.000 C 
ATOM     12  C   UNL     1       1.741   7.808  20.184  0.00  0.00    +0.000 C 
ATOM     13  N   UNL     1       2.281   6.697  19.468  0.00  0.00    +0.000 N 
ATOM     14  C   UNL     1       2.225   7.366  18.222  0.00  0.00    +0.000 C 
BRANCH  11  15
ATOM     15  O   UNL     1       1.225   9.626  18.397  0.00  0.00    +0.000 OA
BRANCH  15  19
ATOM     16  C   UNL     1       2.000  13.555  19.469  0.00  0.00    +0.000 A 
ATOM     17  C   UNL     1       1.092  12.788  20.197  0.00  0.00    +0.000 A 
ATOM     18  C   UNL     1       0.818  11.466  19.822  0.00  0.00    +0.000 A 
ATOM     19  C   UNL     1       1.448  10.940  18.695  0.00  0.00    +0.000 A 
ATOM     20  C   UNL     1       2.326  11.713  17.948  0.00  0.00    +0.000 A 
ATOM     21  C   UNL     1       2.597  13.019  18.330  0.00  0.00    +0.000 A 
BRANCH  16  23
ATOM     22  C   UNL     1       3.032  15.632  19.089  0.00  0.00    +0.000 C 
ATOM     23  O   UNL     1       2.232  14.818  19.940  0.00  0.00    +0.000 OA
ENDBRANCH  16  23
ENDBRANCH  15  19
ENDBRANCH  11  15
ENDBRANCH   1  13
BRANCH   7  24
ATOM     24  C   UNL     1       5.462   5.670  18.548  0.00  0.00    +0.000 C 
BRANCH  24  25
ATOM     25  C   UNL     1       5.924   5.586  17.095  0.00  0.00    +0.000 C 
ATOM     26  C   UNL     1       7.224   4.804  16.923  0.00  0.00    +0.000 C 
ATOM     27  C   UNL     1       4.811   4.883  16.297  0.00  0.00    +0.000 C 
ENDBRANCH  24  25
ENDBRANCH   7  24
TORSDOF 6
ENDMDL
MODEL 4
REMARK VINA RESULT:      -6.6      4.063      9.113
REMARK  Name = 
REMARK  10 active torsions:
REMARK  status: ('A' for Active; 'I' for Inactive)
REMARK    1  A    between atoms: C_1  and  O_2
REMARK    2  A    between atoms: O_2  and  C_3
REMARK    3  A    between atoms: C_6  and  O_7
REMARK    4  A    between atoms: O_7  and  C_8
REMARK    5  A    between atoms: N_10  and  C_11
REMARK    6  A    between atoms: C_17  and  C_18
REMARK    7  A    between atoms: C_18  and  C_19
REMARK    8  A    between atoms: C_19  and  C_20
REMARK    9  A    between atoms: C_19  and  C_21
REMARK   10  A    between atoms: N_23  and  C_24
REMARK                            x       y       z     vdW  Elec       q    Type
REMARK                         _______ _______ _______ _____ _____    ______ ____
ROOT
ATOM      1  C   UNL     1       0.020  10.858  20.120  0.00  0.00    +0.000 A 
ATOM      2  N   UNL     1       0.567  11.242  21.312  0.00  0.00    +0.000 NA
ATOM      3  C   UNL     1      -0.099  12.107  22.100  0.00  0.00    +0.000 A 
ATOM      4  N   UNL     1      -1.288  12.681  21.877  0.00  0.00    +0.000 NA
ATOM      5  C   UNL     1      -1.812  12.278  20.706  0.00  0.00    +0.000 A 
ATOM      6  C   UNL     1      -1.244  11.401  19.792  0.00  0.00    +0.000 A 
ATOM      7  C   UNL     1      -2.223  11.322  18.749  0.00  0.00    +0.000 A 
ATOM      8  N   UNL     1      -3.313  12.050  19.019  0.00  0.00    +0.000 NA
ATOM      9  N   UNL     1      -3.019  12.647  20.186  0.00  0.00    +0.000 N 
ATOM     10  C   UNL     1      -3.949  13.595  20.745  0.00  0.00    +0.000 C 
ENDROOT
BRANCH   1  13
ATOM     11  C   UNL     1       1.794   8.505  18.336  0.00  0.00    +0.000 C 
ATOM     12  C   UNL     1       1.400   8.735  19.808  0.00  0.00    +0.000 C 
ATOM     13  N   UNL     1       0.718   9.909  19.367  0.00  0.00    +0.000 N 
ATOM     14  C   UNL     1       1.440   9.973  18.152  0.00  0.00    +0.000 C 
BRANCH  11  15
ATOM     15  O   UNL     1       3.157   8.196  17.968  0.00  0.00    +0.000 OA
BRANCH  15  19
ATOM     16  C   UNL     1       3.933   4.157  17.447  0.00  0.00    +0.000 A 
ATOM     17  C   UNL     1       2.698   4.584  17.931  0.00  0.00    +0.000 A 
ATOM     18  C   UNL     1       2.444   5.949  18.122  0.00  0.00    +0.000 A 
ATOM     19  C   UNL     1       3.455   6.869  17.848  0.00  0.00    +0.000 A 
ATOM     20  C   UNL     1       4.698   6.443  17.401  0.00  0.00    +0.000 A 
ATOM     21  C   UNL     1       4.939   5.090  17.207  0.00  0.00    +0.000 A 
BRANCH  16  23
ATOM     22  C   UNL     1       3.182   2.007  18.025  0.00  0.00    +0.000 C 
ATOM     23  O   UNL     1       4.068   2.810  17.253  0.00  0.00    +0.000 OA
ENDBRANCH  16  23
ENDBRANCH  15  19
ENDBRANCH  11  15
ENDBRANCH   1  13
BRANCH   7  24
ATOM     24  C   UNL     1      -2.129  10.536  17.492  0.00  0.00    +0.000 C 
BRANCH  24  25
ATOM     25  C   UNL     1      -3.376  10.186  16.681  0.00  0.00    +0.000 C 
ATOM     26  C   UNL     1      -4.315  11.373  16.482  0.00  0.00    +0.000 C 
ATOM     27  C   UNL     1      -2.904   9.687  15.303  0.00  0.00    +0.000 C 
ENDBRANCH  24  25
ENDBRANCH   7  24
TORSDOF 6
ENDMDL
MODEL 5
REMARK VINA RESULT:      -6.4      1.759      2.425
REMARK  Name = 
REMARK  10 active torsions:
REMARK  status: ('A' for Active; 'I' for Inactive)
REMARK    1  A    between atoms: C_1  and  O_2
REMARK    2  A    between atoms: O_2  and  C_3
REMARK    3  A    between atoms: C_6  and  O_7
REMARK    4  A    between atoms: O_7  and  C_8
REMARK    5  A    between atoms: N_10  and  C_11
REMARK    6  A    between atoms: C_17  and  C_18
REMARK    7  A    between atoms: C_18  and  C_19
REMARK    8  A    between atoms: C_19  and  C_20
REMARK    9  A    between atoms: C_19  and  C_21
REMARK   10  A    between atoms: N_23  and  C_24
REMARK                            x       y       z     vdW  Elec       q    Type
REMARK                         _______ _______ _______ _____ _____    ______ ____
ROOT
ATOM      1  C   UNL     1       2.463   5.736  19.560  0.00  0.00    +0.000 A 
ATOM      2  N   UNL     1       1.356   5.306  20.234  0.00  0.00    +0.000 NA
ATOM      3  C   UNL     1       1.335   4.065  20.753  0.00  0.00    +0.000 A 
ATOM      4  N   UNL     1       2.296   3.133  20.707  0.00  0.00    +0.000 NA
ATOM      5  C   UNL     1       3.380   3.584  20.051  0.00  0.00    +0.000 A 
ATOM      6  C   UNL     1       3.544   4.829  19.461  0.00  0.00    +0.000 A 
ATOM      7  C   UNL     1       4.872   4.775  18.925  0.00  0.00    +0.000 A 
ATOM      8  N   UNL     1       5.484   3.617  19.200  0.00  0.00    +0.000 NA
ATOM      9  N   UNL     1       4.546   2.904  19.844  0.00  0.00    +0.000 N 
ATOM     10  C   UNL     1       4.833   1.543  20.220  0.00  0.00    +0.000 C 
ENDROOT
BRANCH   1  13
ATOM     11  C   UNL     1       2.374   8.993  18.441  0.00  0.00    +0.000 C 
ATOM     12  C   UNL     1       1.721   8.177  19.574  0.00  0.00    +0.000 C 
ATOM     13  N   UNL     1       2.462   7.055  19.094  0.00  0.00    +0.000 N 
ATOM     14  C   UNL     1       2.684   7.637  17.824  0.00  0.00    +0.000 C 
BRANCH  11  15
ATOM     15  O   UNL     1       1.583   9.843  17.580  0.00  0.00    +0.000 OA
BRANCH  15  19
ATOM     16  C   UNL     1      -1.881  11.511  19.132  0.00  0.00    +0.000 A 
ATOM     17  C   UNL     1      -0.630  11.993  19.513  0.00  0.00    +0.000 A 
ATOM     18  C   UNL     1       0.539  11.417  19.001  0.00  0.00    +0.000 A 
ATOM     19  C   UNL     1       0.432  10.336  18.127  0.00  0.00    +0.000 A 
ATOM     20  C   UNL     1      -0.811   9.831  17.774  0.00  0.00    +0.000 A 
ATOM     21  C   UNL     1      -1.965  10.412  18.280  0.00  0.00    +0.000 A 
BRANCH  16  23
ATOM     22  C   UNL     1      -4.174  11.983  18.929  0.00  0.00    +0.000 C 
ATOM     23  O   UNL     1      -2.961  12.169  19.652  0.00  0.00    +0.000 OA
ENDBRANCH  16  23
ENDBRANCH  15  19
ENDBRANCH  11  15
ENDBRANCH   1  13
BRANCH   7  24
ATOM     24  C   UNL     1       5.570   5.839  18.158  0.00  0.00    +0.000 C 
BRANCH  24  25
ATOM     25  C   UNL     1       7.094   5.869  18.054  0.00  0.00    +0.000 C 
ATOM     26  C   UNL     1       7.623   7.120  17.357  0.00  0.00    +0.000 C 
ATOM     27  C   UNL     1       7.655   5.822  19.486  0.00  0.00    +0.000 C 
ENDBRANCH  24  25
ENDBRANCH   7  24
TORSDOF 6
ENDMDL
MODEL 6
REMARK VINA RESULT:      -6.4      4.027      8.848
REMARK  Name = 
REMARK  10 active torsions:
REMARK  status: ('A' for Active; 'I' for Inactive)
REMARK    1  A    between atoms: C_1  and  O_2
REMARK    2  A    between atoms: O_2  and  C_3
REMARK    3  A    between atoms: C_6  and  O_7
REMARK    4  A    between atoms: O_7  and  C_8
REMARK    5  A    between atoms: N_10  and  C_11
REMARK    6  A    between atoms: C_17  and  C_18
REMARK    7  A    between atoms: C_18  and  C_19
REMARK    8  A    between atoms: C_19  and  C_20
REMARK    9  A    between atoms: C_19  and  C_21
REMARK   10  A    between atoms: N_23  and  C_24
REMARK                            x       y       z     vdW  Elec       q    Type
REMARK                         _______ _______ _______ _____ _____    ______ ____
ROOT
ATOM      1  C   UNL     1      -0.323  10.933  20.944  0.00  0.00    +0.000 A 
ATOM      2  N   UNL     1      -0.194  11.163  22.284  0.00  0.00    +0.000 NA
ATOM      3  C   UNL     1      -1.081  11.959  22.909  0.00  0.00    +0.000 A 
ATOM      4  N   UNL     1      -2.134  12.597  22.382  0.00  0.00    +0.000 NA
ATOM      5  C   UNL     1      -2.248  12.345  21.066  0.00  0.00    +0.000 A 
ATOM      6  C   UNL     1      -1.412  11.554  20.290  0.00  0.00    +0.000 A 
ATOM      7  C   UNL     1      -1.998  11.626  18.984  0.00  0.00    +0.000 A 
ATOM      8  N   UNL     1      -3.118  12.359  18.970  0.00  0.00    +0.000 NA
ATOM      9  N   UNL     1      -3.221  12.813  20.230  0.00  0.00    +0.000 N 
ATOM     10  C   UNL     1      -4.284  13.726  20.563  0.00  0.00    +0.000 C 
ENDROOT
BRANCH   1  13
ATOM     11  C   UNL     1       1.890   8.787  19.405  0.00  0.00    +0.000 C 
ATOM     12  C   UNL     1       1.322  10.194  19.138  0.00  0.00    +0.000 C 
ATOM     13  N   UNL     1       0.585  10.049  20.352  0.00  0.00    +0.000 N 
ATOM     14  C   UNL     1       0.715   8.640  20.360  0.00  0.00    +0.000 C 
BRANCH  11  15
ATOM     15  O   UNL     1       1.911   7.781  18.369  0.00  0.00    +0.000 OA
BRANCH  15  19
ATOM     16  C   UNL     1       5.181   5.242  18.594  0.00  0.00    +0.000 A 
ATOM     17  C   UNL     1       5.130   6.247  17.629  0.00  0.00    +0.000 A 
ATOM     18  C   UNL     1       4.016   7.092  17.544  0.00  0.00    +0.000 A 
ATOM     19  C   UNL     1       2.950   6.895  18.420  0.00  0.00    +0.000 A 
ATOM     20  C   UNL     1       2.983   5.872  19.357  0.00  0.00    +0.000 A 
ATOM     21  C   UNL     1       4.093   5.043  19.440  0.00  0.00    +0.000 A 
BRANCH  16  23
ATOM     22  C   UNL     1       7.209   4.719  17.528  0.00  0.00    +0.000 C 
ATOM     23  O   UNL     1       6.329   4.499  18.625  0.00  0.00    +0.000 OA
ENDBRANCH  16  23
ENDBRANCH  15  19
ENDBRANCH  11  15
ENDBRANCH   1  13
BRANCH   7  24
ATOM     24  C   UNL     1      -1.498  10.980  17.743  0.00  0.00    +0.000 C 
BRANCH  24  25
ATOM     25  C   UNL     1      -2.323   9.921  17.014  0.00  0.00    +0.000 C 
ATOM     26  C   UNL     1      -3.520   9.430  17.824  0.00  0.00    +0.000 C 
ATOM     27  C   UNL     1      -2.832  10.553  15.706  0.00  0.00    +0.000 C 
ENDBRANCH  24  25
ENDBRANCH   7  24
TORSDOF 6
ENDMDL
MODEL 7
REMARK VINA RESULT:      -6.4      4.086      9.119
REMARK  Name = 
REMARK  10 active torsions:
REMARK  status: ('A' for Active; 'I' for Inactive)
REMARK    1  A    between atoms: C_1  and  O_2
REMARK    2  A    between atoms: O_2  and  C_3
REMARK    3  A    between atoms: C_6  and  O_7
REMARK    4  A    between atoms: O_7  and  C_8
REMARK    5  A    between atoms: N_10  and  C_11
REMARK    6  A    between atoms: C_17  and  C_18
REMARK    7  A    between atoms: C_18  and  C_19
REMARK    8  A    between atoms: C_19  and  C_20
REMARK    9  A    between atoms: C_19  and  C_21
REMARK   10  A    between atoms: N_23  and  C_24
REMARK                            x       y       z     vdW  Elec       q    Type
REMARK                         _______ _______ _______ _____ _____    ______ ____
ROOT
ATOM      1  C   UNL     1      -0.611  11.368  22.229  0.00  0.00    +0.000 A 
ATOM      2  N   UNL     1      -1.690  11.192  23.049  0.00  0.00    +0.000 NA
ATOM      3  C   UNL     1      -2.304  12.267  23.576  0.00  0.00    +0.000 A 
ATOM      4  N   UNL     1      -2.000  13.560  23.407  0.00  0.00    +0.000 NA
ATOM      5  C   UNL     1      -0.945  13.708  22.587  0.00  0.00    +0.000 A 
ATOM      6  C   UNL     1      -0.211  12.701  21.976  0.00  0.00    +0.000 A 
ATOM      7  C   UNL     1       0.773  13.414  21.217  0.00  0.00    +0.000 A 
ATOM      8  N   UNL     1       0.628  14.741  21.318  0.00  0.00    +0.000 NA
ATOM      9  N   UNL     1      -0.389  14.888  22.182  0.00  0.00    +0.000 N 
ATOM     10  C   UNL     1      -0.769  16.213  22.601  0.00  0.00    +0.000 C 
ENDROOT
BRANCH   1  13
ATOM     11  C   UNL     1       0.863   8.580  20.843  0.00  0.00    +0.000 C 
ATOM     12  C   UNL     1       1.115   9.497  22.056  0.00  0.00    +0.000 C 
ATOM     13  N   UNL     1      -0.046  10.226  21.654  0.00  0.00    +0.000 N 
ATOM     14  C   UNL     1      -0.012   9.716  20.335  0.00  0.00    +0.000 C 
BRANCH  11  15
ATOM     15  O   UNL     1       1.932   8.233  19.934  0.00  0.00    +0.000 OA
BRANCH  15  19
ATOM     16  C   UNL     1       2.243   4.162  19.217  0.00  0.00    +0.000 A 
ATOM     17  C   UNL     1       1.840   4.632  20.465  0.00  0.00    +0.000 A 
ATOM     18  C   UNL     1       1.753   6.009  20.711  0.00  0.00    +0.000 A 
ATOM     19  C   UNL     1       2.101   6.899  19.696  0.00  0.00    +0.000 A 
ATOM     20  C   UNL     1       2.537   6.433  18.464  0.00  0.00    +0.000 A 
ATOM     21  C   UNL     1       2.615   5.068  18.226  0.00  0.00    +0.000 A 
BRANCH  16  23
ATOM     22  C   UNL     1       2.442   2.358  17.723  0.00  0.00    +0.000 C 
ATOM     23  O   UNL     1       2.255   2.803  19.063  0.00  0.00    +0.000 OA
ENDBRANCH  16  23
ENDBRANCH  15  19
ENDBRANCH  11  15
ENDBRANCH   1  13
BRANCH   7  24
ATOM     24  C   UNL     1       1.851  12.831  20.377  0.00  0.00    +0.000 C 
BRANCH  24  25
ATOM     25  C   UNL     1       1.710  12.740  18.858  0.00  0.00    +0.000 C 
ATOM     26  C   UNL     1       0.271  12.916  18.377  0.00  0.00    +0.000 C 
ATOM     27  C   UNL     1       2.579  13.855  18.248  0.00  0.00    +0.000 C 
ENDBRANCH  24  25
ENDBRANCH   7  24
TORSDOF 6
ENDMDL
MODEL 8
REMARK VINA RESULT:      -6.3      1.061      1.515
REMARK  Name = 
REMARK  10 active torsions:
REMARK  status: ('A' for Active; 'I' for Inactive)
REMARK    1  A    between atoms: C_1  and  O_2
REMARK    2  A    between atoms: O_2  and  C_3
REMARK    3  A    between atoms: C_6  and  O_7
REMARK    4  A    between atoms: O_7  and  C_8
REMARK    5  A    between atoms: N_10  and  C_11
REMARK    6  A    between atoms: C_17  and  C_18
REMARK    7  A    between atoms: C_18  and  C_19
REMARK    8  A    between atoms: C_19  and  C_20
REMARK    9  A    between atoms: C_19  and  C_21
REMARK   10  A    between atoms: N_23  and  C_24
REMARK                            x       y       z     vdW  Elec       q    Type
REMARK                         _______ _______ _______ _____ _____    ______ ____
ROOT
ATOM      1  C   UNL     1       2.238   5.661  19.404  0.00  0.00    +0.000 A 
ATOM      2  N   UNL     1       1.468   5.239  20.451  0.00  0.00    +0.000 NA
ATOM      3  C   UNL     1       1.467   3.937  20.791  0.00  0.00    +0.000 A 
ATOM      4  N   UNL     1       2.149   2.933  20.224  0.00  0.00    +0.000 NA
ATOM      5  C   UNL     1       2.909   3.376  19.207  0.00  0.00    +0.000 A 
ATOM      6  C   UNL     1       3.008   4.679  18.740  0.00  0.00    +0.000 A 
ATOM      7  C   UNL     1       3.953   4.581  17.667  0.00  0.00    +0.000 A 
ATOM      8  N   UNL     1       4.424   3.337  17.517  0.00  0.00    +0.000 NA
ATOM      9  N   UNL     1       3.747   2.625  18.432  0.00  0.00    +0.000 N 
ATOM     10  C   UNL     1       3.939   1.199  18.495  0.00  0.00    +0.000 C 
ENDROOT
BRANCH   1  13
ATOM     11  C   UNL     1       2.207   9.049  18.782  0.00  0.00    +0.000 C 
ATOM     12  C   UNL     1       1.823   8.119  19.949  0.00  0.00    +0.000 C 
ATOM     13  N   UNL     1       2.255   7.032  19.130  0.00  0.00    +0.000 N 
ATOM     14  C   UNL     1       2.162   7.786  17.936  0.00  0.00    +0.000 C 
BRANCH  11  15
ATOM     15  O   UNL     1       1.304  10.078  18.318  0.00  0.00    +0.000 OA
BRANCH  15  19
ATOM     16  C   UNL     1       2.330  13.872  19.638  0.00  0.00    +0.000 A 
ATOM     17  C   UNL     1       1.420  13.095  20.353  0.00  0.00    +0.000 A 
ATOM     18  C   UNL     1       1.061  11.820  19.895  0.00  0.00    +0.000 A 
ATOM     19  C   UNL     1       1.608  11.353  18.701  0.00  0.00    +0.000 A 
ATOM     20  C   UNL     1       2.486  12.140  17.969  0.00  0.00    +0.000 A 
ATOM     21  C   UNL     1       2.842  13.398  18.432  0.00  0.00    +0.000 A 
BRANCH  16  23
ATOM     22  C   UNL     1       2.398  16.203  19.347  0.00  0.00    +0.000 C 
ATOM     23  O   UNL     1       2.648  15.082  20.189  0.00  0.00    +0.000 OA
ENDBRANCH  16  23
ENDBRANCH  15  19
ENDBRANCH  11  15
ENDBRANCH   1  13
BRANCH   7  24
ATOM     24  C   UNL     1       4.423   5.682  16.786  0.00  0.00    +0.000 C 
BRANCH  24  25
ATOM     25  C   UNL     1       5.876   6.152  16.813  0.00  0.00    +0.000 C 
ATOM     26  C   UNL     1       6.536   5.985  18.180  0.00  0.00    +0.000 C 
ATOM     27  C   UNL     1       6.651   5.314  15.781  0.00  0.00    +0.000 C 
ENDBRANCH  24  25
ENDBRANCH   7  24
TORSDOF 6
ENDMDL
MODEL 9
REMARK VINA RESULT:      -6.3      3.813      8.800
REMARK  Name = 
REMARK  10 active torsions:
REMARK  status: ('A' for Active; 'I' for Inactive)
REMARK    1  A    between atoms: C_1  and  O_2
REMARK    2  A    between atoms: O_2  and  C_3
REMARK    3  A    between atoms: C_6  and  O_7
REMARK    4  A    between atoms: O_7  and  C_8
REMARK    5  A    between atoms: N_10  and  C_11
REMARK    6  A    between atoms: C_17  and  C_18
REMARK    7  A    between atoms: C_18  and  C_19
REMARK    8  A    between atoms: C_19  and  C_20
REMARK    9  A    between atoms: C_19  and  C_21
REMARK   10  A    between atoms: N_23  and  C_24
REMARK                            x       y       z     vdW  Elec       q    Type
REMARK                         _______ _______ _______ _____ _____    ______ ____
ROOT
ATOM      1  C   UNL     1      -0.899  10.354  18.202  0.00  0.00    +0.000 A 
ATOM      2  N   UNL     1      -1.555  10.324  17.004  0.00  0.00    +0.000 NA
ATOM      3  C   UNL     1      -2.700  11.016  16.857  0.00  0.00    +0.000 A 
ATOM      4  N   UNL     1      -3.328  11.777  17.763  0.00  0.00    +0.000 NA
ATOM      5  C   UNL     1      -2.656  11.802  18.928  0.00  0.00    +0.000 A 
ATOM      6  C   UNL     1      -1.475  11.138  19.228  0.00  0.00    +0.000 A 
ATOM      7  C   UNL     1      -1.208  11.522  20.582  0.00  0.00    +0.000 A 
ATOM      8  N   UNL     1      -2.120  12.380  21.056  0.00  0.00    +0.000 NA
ATOM      9  N   UNL     1      -3.003  12.498  20.051  0.00  0.00    +0.000 N 
ATOM     10  C   UNL     1      -4.189  13.290  20.247  0.00  0.00    +0.000 C 
ENDROOT
BRANCH   1  13
ATOM     11  C   UNL     1       2.133   8.724  18.345  0.00  0.00    +0.000 C 
ATOM     12  C   UNL     1       1.639  10.150  18.031  0.00  0.00    +0.000 C 
ATOM     13  N   UNL     1       0.318   9.670  18.286  0.00  0.00    +0.000 N 
ATOM     14  C   UNL     1       0.687   8.315  18.113  0.00  0.00    +0.000 C 
BRANCH  11  15
ATOM     15  O   UNL     1       3.064   8.047  17.472  0.00  0.00    +0.000 OA
BRANCH  15  19
ATOM     16  C   UNL     1       4.707   4.520  18.902  0.00  0.00    +0.000 A 
ATOM     17  C   UNL     1       5.161   5.079  17.709  0.00  0.00    +0.000 A 
ATOM     18  C   UNL     1       4.592   6.262  17.218  0.00  0.00    +0.000 A 
ATOM     19  C   UNL     1       3.548   6.854  17.929  0.00  0.00    +0.000 A 
ATOM     20  C   UNL     1       3.071   6.278  19.098  0.00  0.00    +0.000 A 
ATOM     21  C   UNL     1       3.645   5.111  19.580  0.00  0.00    +0.000 A 
BRANCH  16  23
ATOM     22  C   UNL     1       4.516   2.410  19.920  0.00  0.00    +0.000 C 
ATOM     23  O   UNL     1       5.356   3.390  19.318  0.00  0.00    +0.000 OA
ENDBRANCH  16  23
ENDBRANCH  15  19
ENDBRANCH  11  15
ENDBRANCH   1  13
BRANCH   7  24
ATOM     24  C   UNL     1      -0.068  11.083  21.428  0.00  0.00    +0.000 C 
BRANCH  24  25
ATOM     25  C   UNL     1       0.033   9.647  21.938  0.00  0.00    +0.000 C 
ATOM     26  C   UNL     1       1.457   9.097  21.905  0.00  0.00    +0.000 C 
ATOM     27  C   UNL     1      -0.471   9.638  23.392  0.00  0.00    +0.000 C 
ENDBRANCH  24  25
ENDBRANCH   7  24
TORSDOF 6
ENDMDL
