MODEL 1
REMARK VINA RESULT:      -8.1      0.000      0.000
REMARK  Name = 
REMARK  13 active torsions:
REMARK  status: ('A' for Active; 'I' for Inactive)
REMARK    1  A    between atoms: C_1  and  C_2
REMARK    2  A    between atoms: C_2  and  C_3
REMARK    3  A    between atoms: C_2  and  C_4
REMARK    4  A    between atoms: C_9  and  O_10
REMARK    5  A    between atoms: O_10  and  C_11
REMARK    6  A    between atoms: C_11  and  C_12
REMARK    7  A    between atoms: C_11  and  C_30
REMARK    8  A    between atoms: C_12  and  C_13
REMARK    9  A    between atoms: C_13  and  N_14
REMARK   10  A    between atoms: C_17  and  N_18
REMARK   11  A    between atoms: C_19  and  O_20
REMARK   12  A    between atoms: C_30  and  C_31
REMARK   13  A    between atoms: C_30  and  C_32
REMARK                            x       y       z     vdW  Elec       q    Type
REMARK                         _______ _______ _______ _____ _____    ______ ____
ROOT
ATOM      1  N   UNL     1       2.035   8.905  18.920  0.00  0.00    +0.000 NA
ATOM      2  C   UNL     1       1.501  10.087  18.214  0.00  0.00    +0.000 C 
ATOM      3  C   UNL     1       1.419  11.322  19.131  0.00  0.00    +0.000 C 
ATOM      4  C   UNL     1       0.672  11.106  20.481  0.00  0.00    +0.000 C 
ATOM      5  C   UNL     1       1.001   9.735  21.072  0.00  0.00    +0.000 C 
ATOM      6  C   UNL     1       1.129   8.598  20.052  0.00  0.00    +0.000 C 
ENDROOT
BRANCH   4   7
ATOM      7  N   UNL     1      -0.754  11.424  20.429  0.00  0.00    +0.000 N 
ATOM      8  C   UNL     1      -1.531  11.335  19.320  0.00  0.00    +0.000 A 
ATOM      9  N   UNL     1      -2.499  12.222  19.342  0.00  0.00    +0.000 NA
ATOM     10  C   UNL     1      -2.627  12.518  20.676  0.00  0.00    +0.000 A 
ATOM     11  C   UNL     1      -3.656  13.200  21.323  0.00  0.00    +0.000 A 
ATOM     12  C   UNL     1      -3.807  12.998  22.700  0.00  0.00    +0.000 A 
ATOM     13  C   UNL     1      -2.890  12.222  23.408  0.00  0.00    +0.000 A 
ATOM     14  C   UNL     1      -1.730  11.701  22.801  0.00  0.00    +0.000 A 
ATOM     15  C   UNL     1      -1.624  11.864  21.414  0.00  0.00    +0.000 A 
BRANCH   8  16
ATOM     16  O   UNL     1      -1.700  10.178  18.712  0.00  0.00    +0.000 OA
ATOM     17  H   UNL     1      -1.621  10.416  17.768  0.00  0.00    +0.000 HD
ENDBRANCH   8  16
ENDBRANCH   4   7
BRANCH   1  18
ATOM     18  C   UNL     1       2.084   7.731  18.011  0.00  0.00    +0.000 C 
BRANCH  18  19
ATOM     19  C   UNL     1       3.306   6.775  18.028  0.00  0.00    +0.000 C 
BRANCH  19  20
ATOM     20  C   UNL     1       3.419   5.536  18.983  0.00  0.00    +0.000 C 
BRANCH  20  21
ATOM     21  C   UNL     1       2.313   4.439  19.110  0.00  0.00    +0.000 C 
ATOM     22  C   UNL     1       1.344   4.811  20.252  0.00  0.00    +0.000 C 
ATOM     23  C   UNL     1       1.477   4.166  17.865  0.00  0.00    +0.000 C 
ENDBRANCH  20  21
BRANCH  20  24
ATOM     24  O   UNL     1       4.741   4.867  18.865  0.00  0.00    +0.000 OA
BRANCH  24  30
ATOM     25  C   UNL     1       6.473   5.649  17.367  0.00  0.00    +0.000 A 
ATOM     26  C   UNL     1       6.965   5.682  16.033  0.00  0.00    +0.000 A 
ATOM     27  C   UNL     1       6.493   4.827  15.044  0.00  0.00    +0.000 A 
ATOM     28  C   UNL     1       5.554   3.877  15.380  0.00  0.00    +0.000 A 
ATOM     29  C   UNL     1       5.036   3.838  16.672  0.00  0.00    +0.000 A 
ATOM     30  C   UNL     1       5.405   4.765  17.664  0.00  0.00    +0.000 A 
BRANCH  25  32
ATOM     31  C   UNL     1       8.144   5.840  19.286  0.00  0.00    +0.000 C 
ATOM     32  C   UNL     1       7.223   6.578  18.322  0.00  0.00    +0.000 C 
ATOM     33  C   UNL     1       7.918   7.785  17.689  0.00  0.00    +0.000 C 
ENDBRANCH  25  32
ENDBRANCH  24  30
ENDBRANCH  20  24
ENDBRANCH  19  20
ENDBRANCH  18  19
ENDBRANCH   1  18
TORSDOF 9
ENDMDL
MODEL 2
REMARK VINA RESULT:      -8.0      6.159      9.523
REMARK  Name = 
REMARK  13 active torsions:
REMARK  status: ('A' for Active; 'I' for Inactive)
REMARK    1  A    between atoms: C_1  and  C_2
REMARK    2  A    between atoms: C_2  and  C_3
REMARK    3  A    between atoms: C_2  and  C_4
REMARK    4  A    between atoms: C_9  and  O_10
REMARK    5  A    between atoms: O_10  and  C_11
REMARK    6  A    between atoms: C_11  and  C_12
REMARK    7  A    between atoms: C_11  and  C_30
REMARK    8  A    between atoms: C_12  and  C_13
REMARK    9  A    between atoms: C_13  and  N_14
REMARK   10  A    between atoms: C_17  and  N_18
REMARK   11  A    between atoms: C_19  and  O_20
REMARK   12  A    between atoms: C_30  and  C_31
REMARK   13  A    between atoms: C_30  and  C_32
REMARK                            x       y       z     vdW  Elec       q    Type
REMARK                         _______ _______ _______ _____ _____    ______ ____
ROOT
ATOM      1  N   UNL     1       7.251   7.507  17.240  0.00  0.00    +0.000 NA
ATOM      2  C   UNL     1       7.639   6.107  17.498  0.00  0.00    +0.000 C 
ATOM      3  C   UNL     1       6.777   5.109  16.701  0.00  0.00    +0.000 C 
ATOM      4  C   UNL     1       5.237   5.287  16.848  0.00  0.00    +0.000 C 
ATOM      5  C   UNL     1       4.860   6.769  16.879  0.00  0.00    +0.000 C 
ATOM      6  C   UNL     1       5.835   7.674  17.642  0.00  0.00    +0.000 C 
ENDROOT
BRANCH   4   7
ATOM      7  N   UNL     1       4.644   4.482  17.914  0.00  0.00    +0.000 N 
ATOM      8  C   UNL     1       5.304   4.044  19.017  0.00  0.00    +0.000 A 
ATOM      9  N   UNL     1       4.819   2.901  19.442  0.00  0.00    +0.000 NA
ATOM     10  C   UNL     1       3.552   2.880  18.915  0.00  0.00    +0.000 A 
ATOM     11  C   UNL     1       2.488   2.038  19.236  0.00  0.00    +0.000 A 
ATOM     12  C   UNL     1       1.196   2.470  18.919  0.00  0.00    +0.000 A 
ATOM     13  C   UNL     1       0.997   3.656  18.212  0.00  0.00    +0.000 A 
ATOM     14  C   UNL     1       2.074   4.406  17.701  0.00  0.00    +0.000 A 
ATOM     15  C   UNL     1       3.359   3.991  18.075  0.00  0.00    +0.000 A 
BRANCH   8  16
ATOM     16  O   UNL     1       5.829   4.903  19.867  0.00  0.00    +0.000 OA
ATOM     17  H   UNL     1       5.706   4.457  20.728  0.00  0.00    +0.000 HD
ENDBRANCH   8  16
ENDBRANCH   4   7
BRANCH   1  18
ATOM     18  C   UNL     1       8.091   8.438  18.037  0.00  0.00    +0.000 C 
BRANCH  18  19
ATOM     19  C   UNL     1       8.393   9.867  17.513  0.00  0.00    +0.000 C 
BRANCH  19  20
ATOM     20  C   UNL     1       8.876  11.039  18.437  0.00  0.00    +0.000 C 
BRANCH  20  21
ATOM     21  C   UNL     1       9.923  10.862  19.584  0.00  0.00    +0.000 C 
ATOM     22  C   UNL     1      11.319  11.285  19.080  0.00  0.00    +0.000 C 
ATOM     23  C   UNL     1       9.649  11.618  20.879  0.00  0.00    +0.000 C 
ENDBRANCH  20  21
BRANCH  20  24
ATOM     24  O   UNL     1       9.233  12.250  17.651  0.00  0.00    +0.000 OA
BRANCH  24  30
ATOM     25  C   UNL     1       9.133  14.634  18.055  0.00  0.00    +0.000 A 
ATOM     26  C   UNL     1       8.313  15.754  18.364  0.00  0.00    +0.000 A 
ATOM     27  C   UNL     1       6.927  15.710  18.270  0.00  0.00    +0.000 A 
ATOM     28  C   UNL     1       6.329  14.558  17.809  0.00  0.00    +0.000 A 
ATOM     29  C   UNL     1       7.105  13.438  17.524  0.00  0.00    +0.000 A 
ATOM     30  C   UNL     1       8.498  13.412  17.721  0.00  0.00    +0.000 A 
BRANCH  25  32
ATOM     31  C   UNL     1      11.255  14.737  19.469  0.00  0.00    +0.000 C 
ATOM     32  C   UNL     1      10.630  14.940  18.094  0.00  0.00    +0.000 C 
ATOM     33  C   UNL     1      11.481  14.311  16.988  0.00  0.00    +0.000 C 
ENDBRANCH  25  32
ENDBRANCH  24  30
ENDBRANCH  20  24
ENDBRANCH  19  20
ENDBRANCH  18  19
ENDBRANCH   1  18
TORSDOF 9
ENDMDL
MODEL 3
REMARK VINA RESULT:      -8.0      5.528      9.392
REMARK  Name = 
REMARK  13 active torsions:
REMARK  status: ('A' for Active; 'I' for Inactive)
REMARK    1  A    between atoms: C_1  and  C_2
REMARK    2  A    between atoms: C_2  and  C_3
REMARK    3  A    between atoms: C_2  and  C_4
REMARK    4  A    between atoms: C_9  and  O_10
REMARK    5  A    between atoms: O_10  and  C_11
REMARK    6  A    between atoms: C_11  and  C_12
REMARK    7  A    between atoms: C_11  and  C_30
REMARK    8  A    between atoms: C_12  and  C_13
REMARK    9  A    between atoms: C_13  and  N_14
REMARK   10  A    between atoms: C_17  and  N_18
REMARK   11  A    between atoms: C_19  and  O_20
REMARK   12  A    between atoms: C_30  and  C_31
REMARK   13  A    between atoms: C_30  and  C_32
REMARK                            x       y       z     vdW  Elec       q    Type
REMARK                         _______ _______ _______ _____ _____    ______ ____
ROOT
ATOM      1  N   UNL     1       7.889   7.136  17.877  0.00  0.00    +0.000 NA
ATOM      2  C   UNL     1       7.622   6.043  18.833  0.00  0.00    +0.000 C 
ATOM      3  C   UNL     1       6.948   4.834  18.157  0.00  0.00    +0.000 C 
ATOM      4  C   UNL     1       5.672   5.157  17.322  0.00  0.00    +0.000 C 
ATOM      5  C   UNL     1       5.843   6.467  16.553  0.00  0.00    +0.000 C 
ATOM      6  C   UNL     1       6.595   7.573  17.304  0.00  0.00    +0.000 C 
ENDROOT
BRANCH   4   7
ATOM      7  N   UNL     1       4.425   5.048  18.076  0.00  0.00    +0.000 N 
ATOM      8  C   UNL     1       3.772   6.089  18.654  0.00  0.00    +0.000 A 
ATOM      9  N   UNL     1       3.124   5.708  19.731  0.00  0.00    +0.000 NA
ATOM     10  C   UNL     1       2.963   4.358  19.543  0.00  0.00    +0.000 A 
ATOM     11  C   UNL     1       2.134   3.475  20.232  0.00  0.00    +0.000 A 
ATOM     12  C   UNL     1       1.794   2.273  19.601  0.00  0.00    +0.000 A 
ATOM     13  C   UNL     1       2.354   1.934  18.370  0.00  0.00    +0.000 A 
ATOM     14  C   UNL     1       3.352   2.723  17.764  0.00  0.00    +0.000 A 
ATOM     15  C   UNL     1       3.640   3.948  18.380  0.00  0.00    +0.000 A 
BRANCH   8  16
ATOM     16  O   UNL     1       3.317   7.083  17.919  0.00  0.00    +0.000 OA
ATOM     17  H   UNL     1       4.065   7.711  17.917  0.00  0.00    +0.000 HD
ENDBRANCH   8  16
ENDBRANCH   4   7
BRANCH   1  18
ATOM     18  C   UNL     1       8.524   8.290  18.567  0.00  0.00    +0.000 C 
BRANCH  18  19
ATOM     19  C   UNL     1       8.455   9.710  17.947  0.00  0.00    +0.000 C 
BRANCH  19  20
ATOM     20  C   UNL     1       9.051  10.984  18.640  0.00  0.00    +0.000 C 
BRANCH  20  21
ATOM     21  C   UNL     1      10.260  10.943  19.631  0.00  0.00    +0.000 C 
ATOM     22  C   UNL     1      11.552  11.337  18.886  0.00  0.00    +0.000 C 
ATOM     23  C   UNL     1      10.154  11.823  20.872  0.00  0.00    +0.000 C 
ENDBRANCH  20  21
BRANCH  20  24
ATOM     24  O   UNL     1       9.268  12.090  17.671  0.00  0.00    +0.000 OA
BRANCH  24  30
ATOM     25  C   UNL     1       9.227  14.449  18.211  0.00  0.00    +0.000 A 
ATOM     26  C   UNL     1       8.427  15.585  18.515  0.00  0.00    +0.000 A 
ATOM     27  C   UNL     1       7.054  15.609  18.298  0.00  0.00    +0.000 A 
ATOM     28  C   UNL     1       6.455  14.513  17.717  0.00  0.00    +0.000 A 
ATOM     29  C   UNL     1       7.209  13.378  17.432  0.00  0.00    +0.000 A 
ATOM     30  C   UNL     1       8.576  13.277  17.748  0.00  0.00    +0.000 A 
BRANCH  25  32
ATOM     31  C   UNL     1      11.479  14.871  17.088  0.00  0.00    +0.000 C 
ATOM     32  C   UNL     1      10.725  14.684  18.399  0.00  0.00    +0.000 C 
ATOM     33  C   UNL     1      11.122  15.739  19.435  0.00  0.00    +0.000 C 
ENDBRANCH  25  32
ENDBRANCH  24  30
ENDBRANCH  20  24
ENDBRANCH  19  20
ENDBRANCH  18  19
ENDBRANCH   1  18
TORSDOF 9
ENDMDL
MODEL 4
REMARK VINA RESULT:      -7.9      1.771      2.420
REMARK  Name = 
REMARK  13 active torsions:
REMARK  status: ('A' for Active; 'I' for Inactive)
REMARK    1  A    between atoms: C_1  and  C_2
REMARK    2  A    between atoms: C_2  and  C_3
REMARK    3  A    between atoms: C_2  and  C_4
REMARK    4  A    between atoms: C_9  and  O_10
REMARK    5  A    between atoms: O_10  and  C_11
REMARK    6  A    between atoms: C_11  and  C_12
REMARK    7  A    between atoms: C_11  and  C_30
REMARK    8  A    between atoms: C_12  and  C_13
REMARK    9  A    between atoms: C_13  and  N_14
REMARK   10  A    between atoms: C_17  and  N_18
REMARK   11  A    between atoms: C_19  and  O_20
REMARK   12  A    between atoms: C_30  and  C_31
REMARK   13  A    between atoms: C_30  and  C_32
REMARK                            x       y       z     vdW  Elec       q    Type
REMARK                         _______ _______ _______ _____ _____    ______ ____
ROOT
ATOM      1  N   UNL     1       2.156   8.690  18.873  0.00  0.00    +0.000 NA
ATOM      2  C   UNL     1       1.946   9.699  17.816  0.00  0.00    +0.000 C 
ATOM      3  C   UNL     1       1.931  11.134  18.379  0.00  0.00    +0.000 C 
ATOM      4  C   UNL     1       0.957  11.376  19.571  0.00  0.00    +0.000 C 
ATOM      5  C   UNL     1       0.954  10.180  20.524  0.00  0.00    +0.000 C 
ATOM      6  C   UNL     1       1.047   8.806  19.848  0.00  0.00    +0.000 C 
ENDROOT
BRANCH   4   7
ATOM      7  N   UNL     1      -0.369  11.842  19.170  0.00  0.00    +0.000 N 
ATOM      8  C   UNL     1      -0.844  13.098  19.367  0.00  0.00    +0.000 A 
ATOM      9  N   UNL     1      -2.147  13.096  19.530  0.00  0.00    +0.000 NA
ATOM     10  C   UNL     1      -2.538  11.920  18.940  0.00  0.00    +0.000 A 
ATOM     11  C   UNL     1      -3.821  11.505  18.588  0.00  0.00    +0.000 A 
ATOM     12  C   UNL     1      -3.940  10.504  17.617  0.00  0.00    +0.000 A 
ATOM     13  C   UNL     1      -2.805   9.876  17.103  0.00  0.00    +0.000 A 
ATOM     14  C   UNL     1      -1.516  10.141  17.605  0.00  0.00    +0.000 A 
ATOM     15  C   UNL     1      -1.410  11.184  18.535  0.00  0.00    +0.000 A 
BRANCH   8  16
ATOM     16  O   UNL     1      -0.243  14.134  18.819  0.00  0.00    +0.000 OA
ATOM     17  H   UNL     1       0.613  13.761  18.533  0.00  0.00    +0.000 HD
ENDBRANCH   8  16
ENDBRANCH   4   7
BRANCH   1  18
ATOM     18  C   UNL     1       2.148   7.320  18.296  0.00  0.00    +0.000 C 
BRANCH  18  19
ATOM     19  C   UNL     1       3.467   6.514  18.168  0.00  0.00    +0.000 C 
BRANCH  19  20
ATOM     20  C   UNL     1       3.840   5.315  19.108  0.00  0.00    +0.000 C 
BRANCH  20  21
ATOM     21  C   UNL     1       2.856   4.151  19.457  0.00  0.00    +0.000 C 
ATOM     22  C   UNL     1       1.941   3.868  18.248  0.00  0.00    +0.000 C 
ATOM     23  C   UNL     1       3.488   2.829  19.881  0.00  0.00    +0.000 C 
ENDBRANCH  20  21
BRANCH  20  24
ATOM     24  O   UNL     1       5.162   4.731  18.760  0.00  0.00    +0.000 OA
BRANCH  24  30
ATOM     25  C   UNL     1       6.717   5.453  17.051  0.00  0.00    +0.000 A 
ATOM     26  C   UNL     1       6.994   5.548  15.659  0.00  0.00    +0.000 A 
ATOM     27  C   UNL     1       6.275   4.834  14.707  0.00  0.00    +0.000 A 
ATOM     28  C   UNL     1       5.296   3.962  15.130  0.00  0.00    +0.000 A 
ATOM     29  C   UNL     1       4.987   3.868  16.484  0.00  0.00    +0.000 A 
ATOM     30  C   UNL     1       5.614   4.663  17.461  0.00  0.00    +0.000 A 
BRANCH  25  32
ATOM     31  C   UNL     1       7.634   7.727  17.759  0.00  0.00    +0.000 C 
ATOM     32  C   UNL     1       7.711   6.214  17.928  0.00  0.00    +0.000 C 
ATOM     33  C   UNL     1       7.761   5.812  19.404  0.00  0.00    +0.000 C 
ENDBRANCH  25  32
ENDBRANCH  24  30
ENDBRANCH  20  24
ENDBRANCH  19  20
ENDBRANCH  18  19
ENDBRANCH   1  18
TORSDOF 9
ENDMDL
MODEL 5
REMARK VINA RESULT:      -7.9      1.513      1.917
REMARK  Name = 
REMARK  13 active torsions:
REMARK  status: ('A' for Active; 'I' for Inactive)
REMARK    1  A    between atoms: C_1  and  C_2
REMARK    2  A    between atoms: C_2  and  C_3
REMARK    3  A    between atoms: C_2  and  C_4
REMARK    4  A    between atoms: C_9  and  O_10
REMARK    5  A    between atoms: O_10  and  C_11
REMARK    6  A    between atoms: C_11  and  C_12
REMARK    7  A    between atoms: C_11  and  C_30
REMARK    8  A    between atoms: C_12  and  C_13
REMARK    9  A    between atoms: C_13  and  N_14
REMARK   10  A    between atoms: C_17  and  N_18
REMARK   11  A    between atoms: C_19  and  O_20
REMARK   12  A    between atoms: C_30  and  C_31
REMARK   13  A    between atoms: C_30  and  C_32
REMARK                            x       y       z     vdW  Elec       q    Type
REMARK                         _______ _______ _______ _____ _____    ______ ____
ROOT
ATOM      1  N   UNL     1       1.361   8.452  18.811  0.00  0.00    +0.000 NA
ATOM      2  C   UNL     1       1.292   9.067  20.151  0.00  0.00    +0.000 C 
ATOM      3  C   UNL     1      -0.125   9.574  20.485  0.00  0.00    +0.000 C 
ATOM      4  C   UNL     1      -0.770  10.508  19.418  0.00  0.00    +0.000 C 
ATOM      5  C   UNL     1      -0.443  10.029  18.004  0.00  0.00    +0.000 C 
ATOM      6  C   UNL     1       0.975   9.478  17.813  0.00  0.00    +0.000 C 
ENDROOT
BRANCH   4   7
ATOM      7  N   UNL     1      -0.532  11.931  19.652  0.00  0.00    +0.000 N 
ATOM      8  C   UNL     1      -0.189  12.830  18.696  0.00  0.00    +0.000 A 
ATOM      9  N   UNL     1       0.557  13.792  19.188  0.00  0.00    +0.000 NA
ATOM     10  C   UNL     1       0.262  13.766  20.529  0.00  0.00    +0.000 A 
ATOM     11  C   UNL     1       0.558  14.715  21.505  0.00  0.00    +0.000 A 
ATOM     12  C   UNL     1      -0.208  14.706  22.677  0.00  0.00    +0.000 A 
ATOM     13  C   UNL     1      -1.161  13.712  22.894  0.00  0.00    +0.000 A 
ATOM     14  C   UNL     1      -1.322  12.628  22.008  0.00  0.00    +0.000 A 
ATOM     15  C   UNL     1      -0.589  12.683  20.815  0.00  0.00    +0.000 A 
BRANCH   8  16
ATOM     16  O   UNL     1      -0.993  13.066  17.679  0.00  0.00    +0.000 OA
ATOM     17  H   UNL     1      -0.425  12.883  16.906  0.00  0.00    +0.000 HD
ENDBRANCH   8  16
ENDBRANCH   4   7
BRANCH   1  18
ATOM     18  C   UNL     1       2.743   7.990  18.517  0.00  0.00    +0.000 C 
BRANCH  18  19
ATOM     19  C   UNL     1       3.003   6.531  18.059  0.00  0.00    +0.000 C 
BRANCH  19  20
ATOM     20  C   UNL     1       3.282   5.352  19.053  0.00  0.00    +0.000 C 
BRANCH  20  21
ATOM     21  C   UNL     1       2.303   4.153  19.272  0.00  0.00    +0.000 C 
ATOM     22  C   UNL     1       1.352   4.469  20.444  0.00  0.00    +0.000 C 
ATOM     23  C   UNL     1       1.447   3.747  18.077  0.00  0.00    +0.000 C 
ENDBRANCH  20  21
BRANCH  20  24
ATOM     24  O   UNL     1       4.661   4.817  18.901  0.00  0.00    +0.000 OA
BRANCH  24  30
ATOM     25  C   UNL     1       6.352   5.627  17.371  0.00  0.00    +0.000 A 
ATOM     26  C   UNL     1       6.803   5.694  16.024  0.00  0.00    +0.000 A 
ATOM     27  C   UNL     1       6.292   4.870  15.027  0.00  0.00    +0.000 A 
ATOM     28  C   UNL     1       5.356   3.918  15.366  0.00  0.00    +0.000 A 
ATOM     29  C   UNL     1       4.879   3.847  16.673  0.00  0.00    +0.000 A 
ATOM     30  C   UNL     1       5.287   4.743  17.678  0.00  0.00    +0.000 A 
BRANCH  25  32
ATOM     31  C   UNL     1       8.082   5.752  19.243  0.00  0.00    +0.000 C 
ATOM     32  C   UNL     1       7.140   6.523  18.327  0.00  0.00    +0.000 C 
ATOM     33  C   UNL     1       7.826   7.742  17.705  0.00  0.00    +0.000 C 
ENDBRANCH  25  32
ENDBRANCH  24  30
ENDBRANCH  20  24
ENDBRANCH  19  20
ENDBRANCH  18  19
ENDBRANCH   1  18
TORSDOF 9
ENDMDL
MODEL 6
REMARK VINA RESULT:      -7.8      1.824      2.494
REMARK  Name = 
REMARK  13 active torsions:
REMARK  status: ('A' for Active; 'I' for Inactive)
REMARK    1  A    between atoms: C_1  and  C_2
REMARK    2  A    between atoms: C_2  and  C_3
REMARK    3  A    between atoms: C_2  and  C_4
REMARK    4  A    between atoms: C_9  and  O_10
REMARK    5  A    between atoms: O_10  and  C_11
REMARK    6  A    between atoms: C_11  and  C_12
REMARK    7  A    between atoms: C_11  and  C_30
REMARK    8  A    between atoms: C_12  and  C_13
REMARK    9  A    between atoms: C_13  and  N_14
REMARK   10  A    between atoms: C_17  and  N_18
REMARK   11  A    between atoms: C_19  and  O_20
REMARK   12  A    between atoms: C_30  and  C_31
REMARK   13  A    between atoms: C_30  and  C_32
REMARK                            x       y       z     vdW  Elec       q    Type
REMARK                         _______ _______ _______ _____ _____    ______ ____
ROOT
ATOM      1  N   UNL     1       1.774   8.671  20.070  0.00  0.00    +0.000 NA
ATOM      2  C   UNL     1       1.501   9.151  18.701  0.00  0.00    +0.000 C 
ATOM      3  C   UNL     1       1.573  10.687  18.600  0.00  0.00    +0.000 C 
ATOM      4  C   UNL     1       0.713  11.468  19.637  0.00  0.00    +0.000 C 
ATOM      5  C   UNL     1       0.760  10.789  21.006  0.00  0.00    +0.000 C 
ATOM      6  C   UNL     1       0.756   9.256  20.975  0.00  0.00    +0.000 C 
ENDROOT
BRANCH   4   7
ATOM      7  N   UNL     1      -0.629  11.802  19.165  0.00  0.00    +0.000 N 
ATOM      8  C   UNL     1      -1.278  12.965  19.425  0.00  0.00    +0.000 A 
ATOM      9  N   UNL     1      -2.578  12.787  19.476  0.00  0.00    +0.000 NA
ATOM     10  C   UNL     1      -2.767  11.632  18.758  0.00  0.00    +0.000 A 
ATOM     11  C   UNL     1      -3.955  11.096  18.264  0.00  0.00    +0.000 A 
ATOM     12  C   UNL     1      -3.870  10.184  17.207  0.00  0.00    +0.000 A 
ATOM     13  C   UNL     1      -2.628   9.753  16.741  0.00  0.00    +0.000 A 
ATOM     14  C   UNL     1      -1.425  10.127  17.371  0.00  0.00    +0.000 A 
ATOM     15  C   UNL     1      -1.525  11.083  18.391  0.00  0.00    +0.000 A 
BRANCH   8  16
ATOM     16  O   UNL     1      -0.780  14.115  19.019  0.00  0.00    +0.000 OA
ATOM     17  H   UNL     1      -1.480  14.460  18.432  0.00  0.00    +0.000 HD
ENDBRANCH   8  16
ENDBRANCH   4   7
BRANCH   1  18
ATOM     18  C   UNL     1       1.678   7.189  20.134  0.00  0.00    +0.000 C 
BRANCH  18  19
ATOM     19  C   UNL     1       2.681   6.303  19.348  0.00  0.00    +0.000 C 
BRANCH  19  20
ATOM     20  C   UNL     1       3.330   5.003  19.938  0.00  0.00    +0.000 C 
BRANCH  20  21
ATOM     21  C   UNL     1       2.628   3.606  19.932  0.00  0.00    +0.000 C 
ATOM     22  C   UNL     1       2.408   3.132  21.383  0.00  0.00    +0.000 C 
ATOM     23  C   UNL     1       1.289   3.520  19.208  0.00  0.00    +0.000 C 
ENDBRANCH  20  21
BRANCH  20  24
ATOM     24  O   UNL     1       4.734   4.832  19.483  0.00  0.00    +0.000 OA
BRANCH  24  30
ATOM     25  C   UNL     1       6.045   5.683  17.635  0.00  0.00    +0.000 A 
ATOM     26  C   UNL     1       6.184   5.785  16.223  0.00  0.00    +0.000 A 
ATOM     27  C   UNL     1       5.461   4.986  15.345  0.00  0.00    +0.000 A 
ATOM     28  C   UNL     1       4.619   4.025  15.860  0.00  0.00    +0.000 A 
ATOM     29  C   UNL     1       4.445   3.920  17.238  0.00  0.00    +0.000 A 
ATOM     30  C   UNL     1       5.071   4.790  18.149  0.00  0.00    +0.000 A 
BRANCH  25  32
ATOM     31  C   UNL     1       8.030   5.753  19.238  0.00  0.00    +0.000 C 
ATOM     32  C   UNL     1       7.030   6.555  18.413  0.00  0.00    +0.000 C 
ATOM     33  C   UNL     1       7.715   7.674  17.627  0.00  0.00    +0.000 C 
ENDBRANCH  25  32
ENDBRANCH  24  30
ENDBRANCH  20  24
ENDBRANCH  19  20
ENDBRANCH  18  19
ENDBRANCH   1  18
TORSDOF 9
ENDMDL
MODEL 7
REMARK VINA RESULT:      -7.8      1.637      2.771
REMARK  Name = 
REMARK  13 active torsions:
REMARK  status: ('A' for Active; 'I' for Inactive)
REMARK    1  A    between atoms: C_1  and  C_2
REMARK    2  A    between atoms: C_2  and  C_3
REMARK    3  A    between atoms: C_2  and  C_4
REMARK    4  A    between atoms: C_9  and  O_10
REMARK    5  A    between atoms: O_10  and  C_11
REMARK    6  A    between atoms: C_11  and  C_12
REMARK    7  A    between atoms: C_11  and  C_30
REMARK    8  A    between atoms: C_12  and  C_13
REMARK    9  A    between atoms: C_13  and  N_14
REMARK   10  A    between atoms: C_17  and  N_18
REMARK   11  A    between atoms: C_19  and  O_20
REMARK   12  A    between atoms: C_30  and  C_31
REMARK   13  A    between atoms: C_30  and  C_32
REMARK                            x       y       z     vdW  Elec       q    Type
REMARK                         _______ _______ _______ _____ _____    ______ ____
ROOT
ATOM      1  N   UNL     1       1.290   8.501  18.815  0.00  0.00    +0.000 NA
ATOM      2  C   UNL     1       1.306   9.114  20.158  0.00  0.00    +0.000 C 
ATOM      3  C   UNL     1      -0.083   9.633  20.575  0.00  0.00    +0.000 C 
ATOM      4  C   UNL     1      -0.782  10.576  19.550  0.00  0.00    +0.000 C 
ATOM      5  C   UNL     1      -0.543  10.096  18.118  0.00  0.00    +0.000 C 
ATOM      6  C   UNL     1       0.856   9.532  17.843  0.00  0.00    +0.000 C 
ENDROOT
BRANCH   4   7
ATOM      7  N   UNL     1      -0.517  11.996  19.772  0.00  0.00    +0.000 N 
ATOM      8  C   UNL     1      -1.319  12.836  20.474  0.00  0.00    +0.000 A 
ATOM      9  N   UNL     1      -1.244  14.064  20.014  0.00  0.00    +0.000 NA
ATOM     10  C   UNL     1      -0.036  14.086  19.364  0.00  0.00    +0.000 A 
ATOM     11  C   UNL     1       0.687  15.185  18.903  0.00  0.00    +0.000 A 
ATOM     12  C   UNL     1       2.059  15.019  18.686  0.00  0.00    +0.000 A 
ATOM     13  C   UNL     1       2.654  13.765  18.830  0.00  0.00    +0.000 A 
ATOM     14  C   UNL     1       1.895  12.607  19.091  0.00  0.00    +0.000 A 
ATOM     15  C   UNL     1       0.534  12.800  19.361  0.00  0.00    +0.000 A 
BRANCH   8  16
ATOM     16  O   UNL     1      -1.564  12.617  21.750  0.00  0.00    +0.000 OA
ATOM     17  H   UNL     1      -0.825  12.035  22.016  0.00  0.00    +0.000 HD
ENDBRANCH   8  16
ENDBRANCH   4   7
BRANCH   1  18
ATOM     18  C   UNL     1       2.648   8.027  18.440  0.00  0.00    +0.000 C 
BRANCH  18  19
ATOM     19  C   UNL     1       2.879   6.547  18.034  0.00  0.00    +0.000 C 
BRANCH  19  20
ATOM     20  C   UNL     1       3.200   5.410  19.065  0.00  0.00    +0.000 C 
BRANCH  20  21
ATOM     21  C   UNL     1       2.262   4.187  19.324  0.00  0.00    +0.000 C 
ATOM     22  C   UNL     1       1.342   4.487  20.526  0.00  0.00    +0.000 C 
ATOM     23  C   UNL     1       1.378   3.748  18.162  0.00  0.00    +0.000 C 
ENDBRANCH  20  21
BRANCH  20  24
ATOM     24  O   UNL     1       4.596   4.917  18.926  0.00  0.00    +0.000 OA
BRANCH  24  30
ATOM     25  C   UNL     1       6.294   5.643  17.361  0.00  0.00    +0.000 A 
ATOM     26  C   UNL     1       6.735   5.661  16.010  0.00  0.00    +0.000 A 
ATOM     27  C   UNL     1       6.197   4.823  15.040  0.00  0.00    +0.000 A 
ATOM     28  C   UNL     1       5.241   3.904  15.413  0.00  0.00    +0.000 A 
ATOM     29  C   UNL     1       4.773   3.881  16.724  0.00  0.00    +0.000 A 
ATOM     30  C   UNL     1       5.210   4.794  17.700  0.00  0.00    +0.000 A 
BRANCH  25  32
ATOM     31  C   UNL     1       8.075   5.781  19.183  0.00  0.00    +0.000 C 
ATOM     32  C   UNL     1       7.110   6.546  18.286  0.00  0.00    +0.000 C 
ATOM     33  C   UNL     1       7.783   7.756  17.634  0.00  0.00    +0.000 C 
ENDBRANCH  25  32
ENDBRANCH  24  30
ENDBRANCH  20  24
ENDBRANCH  19  20
ENDBRANCH  18  19
ENDBRANCH   1  18
TORSDOF 9
ENDMDL
MODEL 8
REMARK VINA RESULT:      -7.8      1.915      3.178
REMARK  Name = 
REMARK  13 active torsions:
REMARK  status: ('A' for Active; 'I' for Inactive)
REMARK    1  A    between atoms: C_1  and  C_2
REMARK    2  A    between atoms: C_2  and  C_3
REMARK    3  A    between atoms: C_2  and  C_4
REMARK    4  A    between atoms: C_9  and  O_10
REMARK    5  A    between atoms: O_10  and  C_11
REMARK    6  A    between atoms: C_11  and  C_12
REMARK    7  A    between atoms: C_11  and  C_30
REMARK    8  A    between atoms: C_12  and  C_13
REMARK    9  A    between atoms: C_13  and  N_14
REMARK   10  A    between atoms: C_17  and  N_18
REMARK   11  A    between atoms: C_19  and  O_20
REMARK   12  A    between atoms: C_30  and  C_31
REMARK   13  A    between atoms: C_30  and  C_32
REMARK                            x       y       z     vdW  Elec       q    Type
REMARK                         _______ _______ _______ _____ _____    ______ ____
ROOT
ATOM      1  N   UNL     1       1.861   8.641  19.850  0.00  0.00    +0.000 NA
ATOM      2  C   UNL     1       1.546   9.144  18.498  0.00  0.00    +0.000 C 
ATOM      3  C   UNL     1       1.605  10.682  18.422  0.00  0.00    +0.000 C 
ATOM      4  C   UNL     1       0.769  11.438  19.497  0.00  0.00    +0.000 C 
ATOM      5  C   UNL     1       0.859  10.734  20.852  0.00  0.00    +0.000 C 
ATOM      6  C   UNL     1       0.865   9.202  20.793  0.00  0.00    +0.000 C 
ENDROOT
BRANCH   4   7
ATOM      7  N   UNL     1      -0.589  11.770  19.069  0.00  0.00    +0.000 N 
ATOM      8  C   UNL     1      -1.241  12.921  19.373  0.00  0.00    +0.000 A 
ATOM      9  N   UNL     1      -2.537  12.729  19.455  0.00  0.00    +0.000 NA
ATOM     10  C   UNL     1      -2.735  11.589  18.716  0.00  0.00    +0.000 A 
ATOM     11  C   UNL     1      -3.932  11.054  18.243  0.00  0.00    +0.000 A 
ATOM     12  C   UNL     1      -3.867  10.166  17.163  0.00  0.00    +0.000 A 
ATOM     13  C   UNL     1      -2.635   9.757  16.654  0.00  0.00    +0.000 A 
ATOM     14  C   UNL     1      -1.419  10.128  17.260  0.00  0.00    +0.000 A 
ATOM     15  C   UNL     1      -1.499  11.060  18.303  0.00  0.00    +0.000 A 
BRANCH   8  16
ATOM     16  O   UNL     1      -0.763  14.084  18.980  0.00  0.00    +0.000 OA
ATOM     17  H   UNL     1      -1.477  14.430  18.410  0.00  0.00    +0.000 HD
ENDBRANCH   8  16
ENDBRANCH   4   7
BRANCH   1  18
ATOM     18  C   UNL     1       1.778   7.158  19.889  0.00  0.00    +0.000 C 
BRANCH  18  19
ATOM     19  C   UNL     1       2.446   6.304  18.778  0.00  0.00    +0.000 C 
BRANCH  19  20
ATOM     20  C   UNL     1       2.656   4.754  18.891  0.00  0.00    +0.000 C 
BRANCH  20  21
ATOM     21  C   UNL     1       1.492   3.715  18.809  0.00  0.00    +0.000 C 
ATOM     22  C   UNL     1       1.994   2.430  18.119  0.00  0.00    +0.000 C 
ATOM     23  C   UNL     1       0.845   3.310  20.129  0.00  0.00    +0.000 C 
ENDBRANCH  20  21
BRANCH  20  24
ATOM     24  O   UNL     1       3.774   4.285  18.031  0.00  0.00    +0.000 OA
BRANCH  24  30
ATOM     25  C   UNL     1       5.856   4.952  16.991  0.00  0.00    +0.000 A 
ATOM     26  C   UNL     1       7.237   5.236  17.171  0.00  0.00    +0.000 A 
ATOM     27  C   UNL     1       7.797   5.440  18.427  0.00  0.00    +0.000 A 
ATOM     28  C   UNL     1       6.975   5.421  19.532  0.00  0.00    +0.000 A 
ATOM     29  C   UNL     1       5.623   5.120  19.387  0.00  0.00    +0.000 A 
ATOM     30  C   UNL     1       5.049   4.792  18.146  0.00  0.00    +0.000 A 
BRANCH  25  32
ATOM     31  C   UNL     1       5.271   6.274  14.888  0.00  0.00    +0.000 C 
ATOM     32  C   UNL     1       5.426   4.898  15.525  0.00  0.00    +0.000 C 
ATOM     33  C   UNL     1       6.209   3.942  14.622  0.00  0.00    +0.000 C 
ENDBRANCH  25  32
ENDBRANCH  24  30
ENDBRANCH  20  24
ENDBRANCH  19  20
ENDBRANCH  18  19
ENDBRANCH   1  18
TORSDOF 9
ENDMDL
MODEL 9
REMARK VINA RESULT:      -7.8      2.331     10.015
REMARK  Name = 
REMARK  13 active torsions:
REMARK  status: ('A' for Active; 'I' for Inactive)
REMARK    1  A    between atoms: C_1  and  C_2
REMARK    2  A    between atoms: C_2  and  C_3
REMARK    3  A    between atoms: C_2  and  C_4
REMARK    4  A    between atoms: C_9  and  O_10
REMARK    5  A    between atoms: O_10  and  C_11
REMARK    6  A    between atoms: C_11  and  C_12
REMARK    7  A    between atoms: C_11  and  C_30
REMARK    8  A    between atoms: C_12  and  C_13
REMARK    9  A    between atoms: C_13  and  N_14
REMARK   10  A    between atoms: C_17  and  N_18
REMARK   11  A    between atoms: C_19  and  O_20
REMARK   12  A    between atoms: C_30  and  C_31
REMARK   13  A    between atoms: C_30  and  C_32
REMARK                            x       y       z     vdW  Elec       q    Type
REMARK                         _______ _______ _______ _____ _____    ______ ____
ROOT
ATOM      1  N   UNL     1       1.297   7.296  20.260  0.00  0.00    +0.000 NA
ATOM      2  C   UNL     1       2.272   7.832  19.290  0.00  0.00    +0.000 C 
ATOM      3  C   UNL     1       2.420   6.924  18.054  0.00  0.00    +0.000 C 
ATOM      4  C   UNL     1       2.715   5.424  18.356  0.00  0.00    +0.000 C 
ATOM      5  C   UNL     1       1.913   4.944  19.566  0.00  0.00    +0.000 C 
ATOM      6  C   UNL     1       1.773   5.964  20.703  0.00  0.00    +0.000 C 
ENDROOT
BRANCH   4   7
ATOM      7  N   UNL     1       4.138   5.094  18.395  0.00  0.00    +0.000 N 
ATOM      8  C   UNL     1       4.646   3.877  18.713  0.00  0.00    +0.000 A 
ATOM      9  N   UNL     1       5.822   3.984  19.287  0.00  0.00    +0.000 NA
ATOM     10  C   UNL     1       6.265   5.216  18.874  0.00  0.00    +0.000 A 
ATOM     11  C   UNL     1       7.546   5.756  18.960  0.00  0.00    +0.000 A 
ATOM     12  C   UNL     1       7.870   6.808  18.096  0.00  0.00    +0.000 A 
ATOM     13  C   UNL     1       6.903   7.359  17.255  0.00  0.00    +0.000 A 
ATOM     14  C   UNL     1       5.553   6.960  17.312  0.00  0.00    +0.000 A 
ATOM     15  C   UNL     1       5.258   5.869  18.140  0.00  0.00    +0.000 A 
BRANCH   8  16
ATOM     16  O   UNL     1       4.355   2.819  17.983  0.00  0.00    +0.000 OA
ATOM     17  H   UNL     1       3.414   2.661  18.196  0.00  0.00    +0.000 HD
ENDBRANCH   8  16
ENDBRANCH   4   7
BRANCH   1  18
ATOM     18  C   UNL     1       1.192   8.187  21.444  0.00  0.00    +0.000 C 
BRANCH  18  19
ATOM     19  C   UNL     1       0.114   9.301  21.496  0.00  0.00    +0.000 C 
BRANCH  19  20
ATOM     20  C   UNL     1       0.352  10.757  20.964  0.00  0.00    +0.000 C 
BRANCH  20  21
ATOM     21  C   UNL     1      -0.408  11.367  19.742  0.00  0.00    +0.000 C 
ATOM     22  C   UNL     1       0.587  12.130  18.843  0.00  0.00    +0.000 C 
ATOM     23  C   UNL     1      -1.175  10.389  18.859  0.00  0.00    +0.000 C 
ENDBRANCH  20  21
BRANCH  20  24
ATOM     24  O   UNL     1       0.354  11.754  22.067  0.00  0.00    +0.000 OA
BRANCH  24  30
ATOM     25  C   UNL     1      -0.845  13.764  22.684  0.00  0.00    +0.000 A 
ATOM     26  C   UNL     1      -1.955  14.321  23.375  0.00  0.00    +0.000 A 
ATOM     27  C   UNL     1      -3.026  13.548  23.809  0.00  0.00    +0.000 A 
ATOM     28  C   UNL     1      -3.037  12.203  23.511  0.00  0.00    +0.000 A 
ATOM     29  C   UNL     1      -1.951  11.627  22.857  0.00  0.00    +0.000 A 
ATOM     30  C   UNL     1      -0.800  12.358  22.511  0.00  0.00    +0.000 A 
BRANCH  25  32
ATOM     31  C   UNL     1       0.014  15.110  20.693  0.00  0.00    +0.000 C 
ATOM     32  C   UNL     1       0.152  14.809  22.180  0.00  0.00    +0.000 C 
ATOM     33  C   UNL     1       0.269  16.091  23.008  0.00  0.00    +0.000 C 
ENDBRANCH  25  32
ENDBRANCH  24  30
ENDBRANCH  20  24
ENDBRANCH  19  20
ENDBRANCH  18  19
ENDBRANCH   1  18
TORSDOF 9
ENDMDL
