MODEL 1
REMARK VINA RESULT:      -7.8      0.000      0.000
REMARK  Name = 
REMARK  17 active torsions:
REMARK  status: ('A' for Active; 'I' for Inactive)
REMARK    1  A    between atoms: C_1  and  C_2
REMARK    2  A    between atoms: C_2  and  C_3
REMARK    3  A    between atoms: C_3  and  C_4
REMARK    4  A    between atoms: C_4  and  C_5
REMARK    5  A    between atoms: C_5  and  C_6
REMARK    6  A    between atoms: C_6  and  N_7
REMARK    7  A    between atoms: C_10  and  C_11
REMARK    8  A    between atoms: C_11  and  C_12
REMARK    9  A    between atoms: C_15  and  C_16
REMARK   10  A    between atoms: C_18  and  O_19
REMARK   11  A    between atoms: O_19  and  C_20
REMARK   12  A    between atoms: C_21  and  O_22
REMARK   13  A    between atoms: O_22  and  C_23
REMARK   14  A    between atoms: C_24  and  O_25
REMARK   15  A    between atoms: O_25  and  C_26
REMARK   16  A    between atoms: N_30  and  C_31
REMARK   17  A    between atoms: CA_34  and  CB_35
REMARK                            x       y       z     vdW  Elec       q    Type
REMARK                         _______ _______ _______ _____ _____    ______ ____
ROOT
ATOM      1  C   UNK A   2       1.685   7.265  20.619  0.00  0.00    +0.000 A 
ATOM      2  C   UNK A   2       1.044   8.045  21.591  0.00  0.00    +0.000 A 
ATOM      3  C   UNK A   2       0.659   9.363  21.299  0.00  0.00    +0.000 A 
ATOM      4  C   UNK A   2       0.931   9.942  20.049  0.00  0.00    +0.000 A 
ATOM      5  C   UNK A   2       1.618   9.158  19.109  0.00  0.00    +0.000 A 
ATOM      6  C   UNK A   2       1.977   7.841  19.378  0.00  0.00    +0.000 A 
ENDROOT
BRANCH   4   7
ATOM      7  C   UNK A   2       0.550  11.340  19.718  0.00  0.00    +0.000 A 
ATOM      8  C   UNK A   2      -0.677  11.882  20.114  0.00  0.00    +0.000 A 
ATOM      9  C   UNK A   2      -0.998  13.224  19.875  0.00  0.00    +0.000 A 
ATOM     10  C   UNK A   2      -0.096  14.062  19.185  0.00  0.00    +0.000 A 
ATOM     11  C   UNK A   2       1.138  13.537  18.756  0.00  0.00    +0.000 A 
ATOM     12  C   UNK A   2       1.432  12.184  19.020  0.00  0.00    +0.000 A 
BRANCH   9  13
ATOM     13  O   UNK A   2      -2.186  13.782  20.290  0.00  0.00    +0.000 OA
ATOM     14  C   UNK A   2      -3.314  12.911  20.299  0.00  0.00    +0.000 C 
ENDBRANCH   9  13
BRANCH  10  15
ATOM     15  O   UNK A   2      -0.542  15.337  18.938  0.00  0.00    +0.000 OA
ATOM     16  C   UNK A   2      -0.101  16.360  19.829  0.00  0.00    +0.000 C 
ENDBRANCH  10  15
BRANCH  11  17
ATOM     17  O   UNK A   2       2.001  14.349  18.063  0.00  0.00    +0.000 OA
ATOM     18  C   UNK A   2       3.169  14.814  18.733  0.00  0.00    +0.000 C 
ENDBRANCH  11  17
ENDBRANCH   4   7
BRANCH   1  19
ATOM     19  C   UNK A   2       2.020   5.808  20.840  0.00  0.00    +0.000 C 
BRANCH  19  23
ATOM     20  N   ALA A   1       3.309   4.028  17.738  0.00  0.00    +0.000 N 
ATOM     21  C   UNK A   2       3.422   4.788  18.905  0.00  0.00    +0.000 C 
ATOM     22  O   UNK A   2       4.419   5.442  19.183  0.00  0.00    +0.000 OA
ATOM     23  C   UNK A   2       2.026   4.956  19.563  0.00  0.00    +0.000 C 
ATOM     24  N   UNK A   2       1.307   3.667  19.648  0.00  0.00    +0.000 N 
ATOM     25  C   UNK A   2       1.072   2.965  20.894  0.00  0.00    +0.000 C 
ATOM     26  C   ALA A   1       1.237   2.879  18.495  0.00  0.00    +0.000 C 
ATOM     27  O   ALA A   1       0.320   2.087  18.285  0.00  0.00    +0.000 OA
ATOM     28  CA  ALA A   1       2.608   2.742  17.805  0.00  0.00    +0.000 C 
ATOM     29  CB  ALA A   1       3.428   1.712  18.589  0.00  0.00    +0.000 C 
BRANCH  20  30
ATOM     30  C   UNK A   0       4.112   4.364  16.571  0.00  0.00    +0.000 C 
BRANCH  30  31
ATOM     31  C   UNK A   0       5.485   3.684  16.627  0.00  0.00    +0.000 C 
BRANCH  31  32
ATOM     32  C   UNK A   0       6.660   4.646  16.374  0.00  0.00    +0.000 C 
BRANCH  32  33
ATOM     33  C   UNK A   0       7.641   4.613  17.541  0.00  0.00    +0.000 C 
BRANCH  33  35
ATOM     34  C   UNK A   0       7.438   7.117  17.523  0.00  0.00    +0.000 C 
ATOM     35  C   UNK A   0       7.569   5.877  18.395  0.00  0.00    +0.000 C 
ENDBRANCH  33  35
ENDBRANCH  32  33
ENDBRANCH  31  32
ENDBRANCH  30  31
ENDBRANCH  20  30
ENDBRANCH  19  23
ENDBRANCH   1  19
TORSDOF 11
ENDMDL
MODEL 2
REMARK VINA RESULT:      -7.7      0.708      2.424
REMARK  Name = 
REMARK  17 active torsions:
REMARK  status: ('A' for Active; 'I' for Inactive)
REMARK    1  A    between atoms: C_1  and  C_2
REMARK    2  A    between atoms: C_2  and  C_3
REMARK    3  A    between atoms: C_3  and  C_4
REMARK    4  A    between atoms: C_4  and  C_5
REMARK    5  A    between atoms: C_5  and  C_6
REMARK    6  A    between atoms: C_6  and  N_7
REMARK    7  A    between atoms: C_10  and  C_11
REMARK    8  A    between atoms: C_11  and  C_12
REMARK    9  A    between atoms: C_15  and  C_16
REMARK   10  A    between atoms: C_18  and  O_19
REMARK   11  A    between atoms: O_19  and  C_20
REMARK   12  A    between atoms: C_21  and  O_22
REMARK   13  A    between atoms: O_22  and  C_23
REMARK   14  A    between atoms: C_24  and  O_25
REMARK   15  A    between atoms: O_25  and  C_26
REMARK   16  A    between atoms: N_30  and  C_31
REMARK   17  A    between atoms: CA_34  and  CB_35
REMARK                            x       y       z     vdW  Elec       q    Type
REMARK                         _______ _______ _______ _____ _____    ______ ____
ROOT
ATOM      1  C   UNK A   2       1.650   7.329  20.383  0.00  0.00    +0.000 A 
ATOM      2  C   UNK A   2       1.966   7.900  19.143  0.00  0.00    +0.000 A 
ATOM      3  C   UNK A   2       1.675   9.250  18.891  0.00  0.00    +0.000 A 
ATOM      4  C   UNK A   2       1.034  10.050  19.852  0.00  0.00    +0.000 A 
ATOM      5  C   UNK A   2       0.682   9.442  21.067  0.00  0.00    +0.000 A 
ATOM      6  C   UNK A   2       0.995   8.114  21.339  0.00  0.00    +0.000 A 
ENDROOT
BRANCH   4   7
ATOM      7  C   UNK A   2       0.698  11.477  19.606  0.00  0.00    +0.000 A 
ATOM      8  C   UNK A   2       1.594  12.346  18.976  0.00  0.00    +0.000 A 
ATOM      9  C   UNK A   2       1.244  13.667  18.670  0.00  0.00    +0.000 A 
ATOM     10  C   UNK A   2      -0.025  14.170  19.030  0.00  0.00    +0.000 A 
ATOM     11  C   UNK A   2      -0.940  13.323  19.684  0.00  0.00    +0.000 A 
ATOM     12  C   UNK A   2      -0.557  11.996  19.970  0.00  0.00    +0.000 A 
BRANCH   9  13
ATOM     13  O   UNK A   2       2.101  14.524  18.018  0.00  0.00    +0.000 OA
ATOM     14  C   UNK A   2       3.447  14.534  18.486  0.00  0.00    +0.000 C 
ENDBRANCH   9  13
BRANCH  10  15
ATOM     15  O   UNK A   2      -0.237  15.497  18.750  0.00  0.00    +0.000 OA
ATOM     16  C   UNK A   2       0.028  16.429  19.796  0.00  0.00    +0.000 C 
ENDBRANCH  10  15
BRANCH  11  17
ATOM     17  O   UNK A   2      -2.163  13.825  20.055  0.00  0.00    +0.000 OA
ATOM     18  C   UNK A   2      -2.402  14.053  21.440  0.00  0.00    +0.000 C 
ENDBRANCH  11  17
ENDBRANCH   4   7
BRANCH   1  19
ATOM     19  C   UNK A   2       2.041   5.916  20.749  0.00  0.00    +0.000 C 
BRANCH  19  23
ATOM     20  N   ALA A   1       4.005   3.974  18.139  0.00  0.00    +0.000 N 
ATOM     21  C   UNK A   2       3.848   4.783  19.266  0.00  0.00    +0.000 C 
ATOM     22  O   UNK A   2       4.764   5.429  19.758  0.00  0.00    +0.000 OA
ATOM     23  C   UNK A   2       2.338   5.007  19.548  0.00  0.00    +0.000 C 
ATOM     24  N   UNK A   2       1.583   3.737  19.501  0.00  0.00    +0.000 N 
ATOM     25  C   UNK A   2       1.024   3.097  20.675  0.00  0.00    +0.000 C 
ATOM     26  C   ALA A   1       1.777   2.900  18.398  0.00  0.00    +0.000 C 
ATOM     27  O   ALA A   1       0.918   2.117  17.998  0.00  0.00    +0.000 OA
ATOM     28  CA  ALA A   1       3.272   2.706  18.078  0.00  0.00    +0.000 C 
ATOM     29  CB  ALA A   1       3.840   1.696  19.082  0.00  0.00    +0.000 C 
BRANCH  20  30
ATOM     30  C   UNK A   0       5.083   4.241  17.196  0.00  0.00    +0.000 C 
BRANCH  30  31
ATOM     31  C   UNK A   0       4.770   5.465  16.327  0.00  0.00    +0.000 C 
BRANCH  31  32
ATOM     32  C   UNK A   0       5.761   6.627  16.519  0.00  0.00    +0.000 C 
BRANCH  32  33
ATOM     33  C   UNK A   0       7.131   6.100  16.933  0.00  0.00    +0.000 C 
BRANCH  33  35
ATOM     34  C   UNK A   0       8.037   5.798  19.257  0.00  0.00    +0.000 C 
ATOM     35  C   UNK A   0       7.673   6.805  18.176  0.00  0.00    +0.000 C 
ENDBRANCH  33  35
ENDBRANCH  32  33
ENDBRANCH  31  32
ENDBRANCH  30  31
ENDBRANCH  20  30
ENDBRANCH  19  23
ENDBRANCH   1  19
TORSDOF 11
ENDMDL
MODEL 3
REMARK VINA RESULT:      -7.6      0.635      1.068
REMARK  Name = 
REMARK  17 active torsions:
REMARK  status: ('A' for Active; 'I' for Inactive)
REMARK    1  A    between atoms: C_1  and  C_2
REMARK    2  A    between atoms: C_2  and  C_3
REMARK    3  A    between atoms: C_3  and  C_4
REMARK    4  A    between atoms: C_4  and  C_5
REMARK    5  A    between atoms: C_5  and  C_6
REMARK    6  A    between atoms: C_6  and  N_7
REMARK    7  A    between atoms: C_10  and  C_11
REMARK    8  A    between atoms: C_11  and  C_12
REMARK    9  A    between atoms: C_15  and  C_16
REMARK   10  A    between atoms: C_18  and  O_19
REMARK   11  A    between atoms: O_19  and  C_20
REMARK   12  A    between atoms: C_21  and  O_22
REMARK   13  A    between atoms: O_22  and  C_23
REMARK   14  A    between atoms: C_24  and  O_25
REMARK   15  A    between atoms: O_25  and  C_26
REMARK   16  A    between atoms: N_30  and  C_31
REMARK   17  A    between atoms: CA_34  and  CB_35
REMARK                            x       y       z     vdW  Elec       q    Type
REMARK                         _______ _______ _______ _____ _____    ______ ____
ROOT
ATOM      1  C   UNK A   2       1.805   7.210  20.360  0.00  0.00    +0.000 A 
ATOM      2  C   UNK A   2       2.050   7.838  19.131  0.00  0.00    +0.000 A 
ATOM      3  C   UNK A   2       1.641   9.164  18.921  0.00  0.00    +0.000 A 
ATOM      4  C   UNK A   2       0.952   9.881  19.913  0.00  0.00    +0.000 A 
ATOM      5  C   UNK A   2       0.675   9.215  21.116  0.00  0.00    +0.000 A 
ATOM      6  C   UNK A   2       1.103   7.911  21.347  0.00  0.00    +0.000 A 
ENDROOT
BRANCH   4   7
ATOM      7  C   UNK A   2       0.492  11.280  19.711  0.00  0.00    +0.000 A 
ATOM      8  C   UNK A   2      -0.752  11.719  20.176  0.00  0.00    +0.000 A 
ATOM      9  C   UNK A   2      -1.148  13.057  20.060  0.00  0.00    +0.000 A 
ATOM     10  C   UNK A   2      -0.307  13.999  19.428  0.00  0.00    +0.000 A 
ATOM     11  C   UNK A   2       0.942  13.580  18.933  0.00  0.00    +0.000 A 
ATOM     12  C   UNK A   2       1.313  12.226  19.073  0.00  0.00    +0.000 A 
BRANCH   9  13
ATOM     13  O   UNK A   2      -2.353  13.513  20.544  0.00  0.00    +0.000 OA
ATOM     14  C   UNK A   2      -3.503  12.762  20.162  0.00  0.00    +0.000 C 
ENDBRANCH   9  13
BRANCH  10  15
ATOM     15  O   UNK A   2      -0.824  15.264  19.302  0.00  0.00    +0.000 OA
ATOM     16  C   UNK A   2      -0.461  16.214  20.302  0.00  0.00    +0.000 C 
ENDBRANCH  10  15
BRANCH  11  17
ATOM     17  O   UNK A   2       1.746  14.493  18.297  0.00  0.00    +0.000 OA
ATOM     18  C   UNK A   2       2.800  15.094  19.044  0.00  0.00    +0.000 C 
ENDBRANCH  11  17
ENDBRANCH   4   7
BRANCH   1  19
ATOM     19  C   UNK A   2       2.321   5.827  20.681  0.00  0.00    +0.000 C 
BRANCH  19  23
ATOM     20  N   ALA A   1       3.677   3.608  17.909  0.00  0.00    +0.000 N 
ATOM     21  C   UNK A   2       3.768   4.453  19.017  0.00  0.00    +0.000 C 
ATOM     22  O   UNK A   2       4.811   4.995  19.360  0.00  0.00    +0.000 OA
ATOM     23  C   UNK A   2       2.346   4.864  19.486  0.00  0.00    +0.000 C 
ATOM     24  N   UNK A   2       1.449   3.693  19.586  0.00  0.00    +0.000 N 
ATOM     25  C   UNK A   2       0.983   3.150  20.845  0.00  0.00    +0.000 C 
ATOM     26  C   ALA A   1       1.394   2.815  18.498  0.00  0.00    +0.000 C 
ATOM     27  O   ALA A   1       0.403   2.133  18.243  0.00  0.00    +0.000 OA
ATOM     28  CA  ALA A   1       2.799   2.436  17.992  0.00  0.00    +0.000 C 
ATOM     29  CB  ALA A   1       3.376   1.387  18.949  0.00  0.00    +0.000 C 
BRANCH  20  30
ATOM     30  C   UNK A   0       4.642   3.724  16.824  0.00  0.00    +0.000 C 
BRANCH  30  31
ATOM     31  C   UNK A   0       4.656   5.143  16.244  0.00  0.00    +0.000 C 
BRANCH  31  32
ATOM     32  C   UNK A   0       5.953   5.484  15.486  0.00  0.00    +0.000 C 
BRANCH  32  33
ATOM     33  C   UNK A   0       7.051   5.895  16.461  0.00  0.00    +0.000 C 
BRANCH  33  35
ATOM     34  C   UNK A   0       7.798   7.985  17.638  0.00  0.00    +0.000 C 
ATOM     35  C   UNK A   0       6.626   7.056  17.358  0.00  0.00    +0.000 C 
ENDBRANCH  33  35
ENDBRANCH  32  33
ENDBRANCH  31  32
ENDBRANCH  30  31
ENDBRANCH  20  30
ENDBRANCH  19  23
ENDBRANCH   1  19
TORSDOF 11
ENDMDL
MODEL 4
REMARK VINA RESULT:      -7.6      0.483      2.183
REMARK  Name = 
REMARK  17 active torsions:
REMARK  status: ('A' for Active; 'I' for Inactive)
REMARK    1  A    between atoms: C_1  and  C_2
REMARK    2  A    between atoms: C_2  and  C_3
REMARK    3  A    between atoms: C_3  and  C_4
REMARK    4  A    between atoms: C_4  and  C_5
REMARK    5  A    between atoms: C_5  and  C_6
REMARK    6  A    between atoms: C_6  and  N_7
REMARK    7  A    between atoms: C_10  and  C_11
REMARK    8  A    between atoms: C_11  and  C_12
REMARK    9  A    between atoms: C_15  and  C_16
REMARK   10  A    between atoms: C_18  and  O_19
REMARK   11  A    between atoms: O_19  and  C_20
REMARK   12  A    between atoms: C_21  and  O_22
REMARK   13  A    between atoms: O_22  and  C_23
REMARK   14  A    between atoms: C_24  and  O_25
REMARK   15  A    between atoms: O_25  and  C_26
REMARK   16  A    between atoms: N_30  and  C_31
REMARK   17  A    between atoms: CA_34  and  CB_35
REMARK                            x       y       z     vdW  Elec       q    Type
REMARK                         _______ _______ _______ _____ _____    ______ ____
ROOT
ATOM      1  C   UNK A   2       1.694   7.296  20.625  0.00  0.00    +0.000 A 
ATOM      2  C   UNK A   2       1.215   8.134  21.642  0.00  0.00    +0.000 A 
ATOM      3  C   UNK A   2       0.852   9.459  21.353  0.00  0.00    +0.000 A 
ATOM      4  C   UNK A   2       0.988   9.987  20.058  0.00  0.00    +0.000 A 
ATOM      5  C   UNK A   2       1.516   9.143  19.069  0.00  0.00    +0.000 A 
ATOM      6  C   UNK A   2       1.850   7.819  19.337  0.00  0.00    +0.000 A 
ENDROOT
BRANCH   4   7
ATOM      7  C   UNK A   2       0.628  11.390  19.727  0.00  0.00    +0.000 A 
ATOM      8  C   UNK A   2       1.538  12.258  19.113  0.00  0.00    +0.000 A 
ATOM      9  C   UNK A   2       1.170  13.552  18.726  0.00  0.00    +0.000 A 
ATOM     10  C   UNK A   2      -0.132  14.032  18.985  0.00  0.00    +0.000 A 
ATOM     11  C   UNK A   2      -1.061  13.188  19.621  0.00  0.00    +0.000 A 
ATOM     12  C   UNK A   2      -0.660  11.888  19.990  0.00  0.00    +0.000 A 
BRANCH   9  13
ATOM     13  O   UNK A   2       2.042  14.406  18.088  0.00  0.00    +0.000 OA
ATOM     14  C   UNK A   2       3.425  14.204  18.364  0.00  0.00    +0.000 C 
ENDBRANCH   9  13
BRANCH  10  15
ATOM     15  O   UNK A   2      -0.363  15.339  18.632  0.00  0.00    +0.000 OA
ATOM     16  C   UNK A   2      -0.097  16.333  19.619  0.00  0.00    +0.000 C 
ENDBRANCH  10  15
BRANCH  11  17
ATOM     17  O   UNK A   2      -2.319  13.668  19.893  0.00  0.00    +0.000 OA
ATOM     18  C   UNK A   2      -2.597  14.104  21.221  0.00  0.00    +0.000 C 
ENDBRANCH  11  17
ENDBRANCH   4   7
BRANCH   1  19
ATOM     19  C   UNK A   2       1.992   5.832  20.855  0.00  0.00    +0.000 C 
BRANCH  19  23
ATOM     20  N   ALA A   1       3.367   4.066  17.783  0.00  0.00    +0.000 N 
ATOM     21  C   UNK A   2       3.447   4.823  18.954  0.00  0.00    +0.000 C 
ATOM     22  O   UNK A   2       4.434   5.480  19.259  0.00  0.00    +0.000 OA
ATOM     23  C   UNK A   2       2.034   4.983  19.576  0.00  0.00    +0.000 C 
ATOM     24  N   UNK A   2       1.319   3.691  19.639  0.00  0.00    +0.000 N 
ATOM     25  C   UNK A   2       1.054   2.985  20.876  0.00  0.00    +0.000 C 
ATOM     26  C   ALA A   1       1.282   2.906  18.482  0.00  0.00    +0.000 C 
ATOM     27  O   ALA A   1       0.374   2.111  18.247  0.00  0.00    +0.000 OA
ATOM     28  CA  ALA A   1       2.671   2.777  17.828  0.00  0.00    +0.000 C 
ATOM     29  CB  ALA A   1       3.475   1.748  18.631  0.00  0.00    +0.000 C 
BRANCH  20  30
ATOM     30  C   UNK A   0       4.200   4.409  16.638  0.00  0.00    +0.000 C 
BRANCH  30  31
ATOM     31  C   UNK A   0       5.601   3.800  16.768  0.00  0.00    +0.000 C 
BRANCH  31  32
ATOM     32  C   UNK A   0       6.716   4.693  16.191  0.00  0.00    +0.000 C 
BRANCH  32  33
ATOM     33  C   UNK A   0       6.488   6.150  16.577  0.00  0.00    +0.000 C 
BRANCH  33  35
ATOM     34  C   UNK A   0       7.779   8.060  17.577  0.00  0.00    +0.000 C 
ATOM     35  C   UNK A   0       7.394   6.595  17.724  0.00  0.00    +0.000 C 
ENDBRANCH  33  35
ENDBRANCH  32  33
ENDBRANCH  31  32
ENDBRANCH  30  31
ENDBRANCH  20  30
ENDBRANCH  19  23
ENDBRANCH   1  19
TORSDOF 11
ENDMDL
MODEL 5
REMARK VINA RESULT:      -7.6      2.496      3.607
REMARK  Name = 
REMARK  17 active torsions:
REMARK  status: ('A' for Active; 'I' for Inactive)
REMARK    1  A    between atoms: C_1  and  C_2
REMARK    2  A    between atoms: C_2  and  C_3
REMARK    3  A    between atoms: C_3  and  C_4
REMARK    4  A    between atoms: C_4  and  C_5
REMARK    5  A    between atoms: C_5  and  C_6
REMARK    6  A    between atoms: C_6  and  N_7
REMARK    7  A    between atoms: C_10  and  C_11
REMARK    8  A    between atoms: C_11  and  C_12
REMARK    9  A    between atoms: C_15  and  C_16
REMARK   10  A    between atoms: C_18  and  O_19
REMARK   11  A    between atoms: O_19  and  C_20
REMARK   12  A    between atoms: C_21  and  O_22
REMARK   13  A    between atoms: O_22  and  C_23
REMARK   14  A    between atoms: C_24  and  O_25
REMARK   15  A    between atoms: O_25  and  C_26
REMARK   16  A    between atoms: N_30  and  C_31
REMARK   17  A    between atoms: CA_34  and  CB_35
REMARK                            x       y       z     vdW  Elec       q    Type
REMARK                         _______ _______ _______ _____ _____    ______ ____
ROOT
ATOM      1  C   UNK A   2       2.338   7.821  19.208  0.00  0.00    +0.000 A 
ATOM      2  C   UNK A   2       1.621   8.169  20.361  0.00  0.00    +0.000 A 
ATOM      3  C   UNK A   2       0.482   8.984  20.265  0.00  0.00    +0.000 A 
ATOM      4  C   UNK A   2       0.053   9.496  19.029  0.00  0.00    +0.000 A 
ATOM      5  C   UNK A   2       0.816   9.174  17.897  0.00  0.00    +0.000 A 
ATOM      6  C   UNK A   2       1.929   8.342  17.976  0.00  0.00    +0.000 A 
ENDROOT
BRANCH   4   7
ATOM      7  C   UNK A   2      -1.139  10.375  18.901  0.00  0.00    +0.000 A 
ATOM      8  C   UNK A   2      -1.981  10.314  17.786  0.00  0.00    +0.000 A 
ATOM      9  C   UNK A   2      -3.150  11.082  17.705  0.00  0.00    +0.000 A 
ATOM     10  C   UNK A   2      -3.488  11.977  18.743  0.00  0.00    +0.000 A 
ATOM     11  C   UNK A   2      -2.647  12.075  19.868  0.00  0.00    +0.000 A 
ATOM     12  C   UNK A   2      -1.483  11.281  19.919  0.00  0.00    +0.000 A 
BRANCH   9  13
ATOM     13  O   UNK A   2      -4.008  11.007  16.632  0.00  0.00    +0.000 OA
ATOM     14  C   UNK A   2      -3.404  10.750  15.367  0.00  0.00    +0.000 C 
ENDBRANCH   9  13
BRANCH  10  15
ATOM     15  O   UNK A   2      -4.613  12.735  18.529  0.00  0.00    +0.000 OA
ATOM     16  C   UNK A   2      -5.812  12.309  19.171  0.00  0.00    +0.000 C 
ENDBRANCH  10  15
BRANCH  11  17
ATOM     17  O   UNK A   2      -2.967  12.965  20.863  0.00  0.00    +0.000 OA
ATOM     18  C   UNK A   2      -2.500  12.694  22.181  0.00  0.00    +0.000 C 
ENDBRANCH  11  17
ENDBRANCH   4   7
BRANCH   1  19
ATOM     19  C   UNK A   2       3.502   6.858  19.237  0.00  0.00    +0.000 C 
BRANCH  19  23
ATOM     20  N   ALA A   1       4.383   3.778  17.192  0.00  0.00    +0.000 N 
ATOM     21  C   UNK A   2       4.646   4.856  18.041  0.00  0.00    +0.000 C 
ATOM     22  O   UNK A   2       5.776   5.271  18.264  0.00  0.00    +0.000 OA
ATOM     23  C   UNK A   2       3.331   5.625  18.339  0.00  0.00    +0.000 C 
ATOM     24  N   UNK A   2       2.237   4.704  18.714  0.00  0.00    +0.000 N 
ATOM     25  C   UNK A   2       1.700   4.606  20.056  0.00  0.00    +0.000 C 
ATOM     26  C   ALA A   1       2.005   3.595  17.894  0.00  0.00    +0.000 C 
ATOM     27  O   ALA A   1       0.902   3.059  17.796  0.00  0.00    +0.000 OA
ATOM     28  CA  ALA A   1       3.309   2.848  17.552  0.00  0.00    +0.000 C 
ATOM     29  CB  ALA A   1       3.700   2.003  18.770  0.00  0.00    +0.000 C 
BRANCH  20  30
ATOM     30  C   UNK A   0       5.336   3.427  16.148  0.00  0.00    +0.000 C 
BRANCH  30  31
ATOM     31  C   UNK A   0       5.400   4.513  15.067  0.00  0.00    +0.000 C 
BRANCH  31  32
ATOM     32  C   UNK A   0       6.754   4.575  14.337  0.00  0.00    +0.000 C 
BRANCH  32  33
ATOM     33  C   UNK A   0       6.555   4.475  12.829  0.00  0.00    +0.000 C 
BRANCH  33  35
ATOM     34  C   UNK A   0       4.666   3.299  11.664  0.00  0.00    +0.000 C 
ATOM     35  C   UNK A   0       5.981   3.124  12.408  0.00  0.00    +0.000 C 
ENDBRANCH  33  35
ENDBRANCH  32  33
ENDBRANCH  31  32
ENDBRANCH  30  31
ENDBRANCH  20  30
ENDBRANCH  19  23
ENDBRANCH   1  19
TORSDOF 11
ENDMDL
MODEL 6
REMARK VINA RESULT:      -7.5      1.089      1.774
REMARK  Name = 
REMARK  17 active torsions:
REMARK  status: ('A' for Active; 'I' for Inactive)
REMARK    1  A    between atoms: C_1  and  C_2
REMARK    2  A    between atoms: C_2  and  C_3
REMARK    3  A    between atoms: C_3  and  C_4
REMARK    4  A    between atoms: C_4  and  C_5
REMARK    5  A    between atoms: C_5  and  C_6
REMARK    6  A    between atoms: C_6  and  N_7
REMARK    7  A    between atoms: C_10  and  C_11
REMARK    8  A    between atoms: C_11  and  C_12
REMARK    9  A    between atoms: C_15  and  C_16
REMARK   10  A    between atoms: C_18  and  O_19
REMARK   11  A    between atoms: O_19  and  C_20
REMARK   12  A    between atoms: C_21  and  O_22
REMARK   13  A    between atoms: O_22  and  C_23
REMARK   14  A    between atoms: C_24  and  O_25
REMARK   15  A    between atoms: O_25  and  C_26
REMARK   16  A    between atoms: N_30  and  C_31
REMARK   17  A    between atoms: CA_34  and  CB_35
REMARK                            x       y       z     vdW  Elec       q    Type
REMARK                         _______ _______ _______ _____ _____    ______ ____
ROOT
ATOM      1  C   UNK A   2       1.703   7.452  20.239  0.00  0.00    +0.000 A 
ATOM      2  C   UNK A   2       1.905   8.088  19.006  0.00  0.00    +0.000 A 
ATOM      3  C   UNK A   2       1.515   9.425  18.828  0.00  0.00    +0.000 A 
ATOM      4  C   UNK A   2       0.888  10.145  19.858  0.00  0.00    +0.000 A 
ATOM      5  C   UNK A   2       0.651   9.471  21.066  0.00  0.00    +0.000 A 
ATOM      6  C   UNK A   2       1.061   8.156  21.264  0.00  0.00    +0.000 A 
ENDROOT
BRANCH   4   7
ATOM      7  C   UNK A   2       0.449  11.555  19.692  0.00  0.00    +0.000 A 
ATOM      8  C   UNK A   2      -0.811  11.989  20.119  0.00  0.00    +0.000 A 
ATOM      9  C   UNK A   2      -1.189  13.335  20.039  0.00  0.00    +0.000 A 
ATOM     10  C   UNK A   2      -0.313  14.291  19.482  0.00  0.00    +0.000 A 
ATOM     11  C   UNK A   2       0.953  13.879  19.025  0.00  0.00    +0.000 A 
ATOM     12  C   UNK A   2       1.305  12.517  19.128  0.00  0.00    +0.000 A 
BRANCH   9  13
ATOM     13  O   UNK A   2      -2.411  13.784  20.488  0.00  0.00    +0.000 OA
ATOM     14  C   UNK A   2      -3.506  12.890  20.313  0.00  0.00    +0.000 C 
ENDBRANCH   9  13
BRANCH  10  15
ATOM     15  O   UNK A   2      -0.813  15.566  19.383  0.00  0.00    +0.000 OA
ATOM     16  C   UNK A   2      -0.419  16.495  20.391  0.00  0.00    +0.000 C 
ENDBRANCH  10  15
BRANCH  11  17
ATOM     17  O   UNK A   2       1.792  14.808  18.461  0.00  0.00    +0.000 OA
ATOM     18  C   UNK A   2       2.938  15.214  19.203  0.00  0.00    +0.000 C 
ENDBRANCH  11  17
ENDBRANCH   4   7
BRANCH   1  19
ATOM     19  C   UNK A   2       2.203   6.055  20.522  0.00  0.00    +0.000 C 
BRANCH  19  23
ATOM     20  N   ALA A   1       3.324   4.022  17.512  0.00  0.00    +0.000 N 
ATOM     21  C   UNK A   2       3.500   4.874  18.605  0.00  0.00    +0.000 C 
ATOM     22  O   UNK A   2       4.510   5.544  18.775  0.00  0.00    +0.000 OA
ATOM     23  C   UNK A   2       2.140   5.101  19.321  0.00  0.00    +0.000 C 
ATOM     24  N   UNK A   2       1.428   3.826  19.549  0.00  0.00    +0.000 N 
ATOM     25  C   UNK A   2       1.259   3.229  20.858  0.00  0.00    +0.000 C 
ATOM     26  C   ALA A   1       1.296   2.947  18.469  0.00  0.00    +0.000 C 
ATOM     27  O   ALA A   1       0.370   2.144  18.374  0.00  0.00    +0.000 OA
ATOM     28  CA  ALA A   1       2.629   2.749  17.721  0.00  0.00    +0.000 C 
ATOM     29  CB  ALA A   1       3.489   1.783  18.542  0.00  0.00    +0.000 C 
BRANCH  20  30
ATOM     30  C   UNK A   0       4.065   4.259  16.281  0.00  0.00    +0.000 C 
BRANCH  30  31
ATOM     31  C   UNK A   0       5.493   3.710  16.377  0.00  0.00    +0.000 C 
BRANCH  31  32
ATOM     32  C   UNK A   0       6.403   4.155  15.217  0.00  0.00    +0.000 C 
BRANCH  32  33
ATOM     33  C   UNK A   0       5.698   3.962  13.879  0.00  0.00    +0.000 C 
BRANCH  33  35
ATOM     34  C   UNK A   0       7.684   5.058  12.798  0.00  0.00    +0.000 C 
ATOM     35  C   UNK A   0       6.678   3.919  12.708  0.00  0.00    +0.000 C 
ENDBRANCH  33  35
ENDBRANCH  32  33
ENDBRANCH  31  32
ENDBRANCH  30  31
ENDBRANCH  20  30
ENDBRANCH  19  23
ENDBRANCH   1  19
TORSDOF 11
ENDMDL
MODEL 7
REMARK VINA RESULT:      -7.5      1.031      2.804
REMARK  Name = 
REMARK  17 active torsions:
REMARK  status: ('A' for Active; 'I' for Inactive)
REMARK    1  A    between atoms: C_1  and  C_2
REMARK    2  A    between atoms: C_2  and  C_3
REMARK    3  A    between atoms: C_3  and  C_4
REMARK    4  A    between atoms: C_4  and  C_5
REMARK    5  A    between atoms: C_5  and  C_6
REMARK    6  A    between atoms: C_6  and  N_7
REMARK    7  A    between atoms: C_10  and  C_11
REMARK    8  A    between atoms: C_11  and  C_12
REMARK    9  A    between atoms: C_15  and  C_16
REMARK   10  A    between atoms: C_18  and  O_19
REMARK   11  A    between atoms: O_19  and  C_20
REMARK   12  A    between atoms: C_21  and  O_22
REMARK   13  A    between atoms: O_22  and  C_23
REMARK   14  A    between atoms: C_24  and  O_25
REMARK   15  A    between atoms: O_25  and  C_26
REMARK   16  A    between atoms: N_30  and  C_31
REMARK   17  A    between atoms: CA_34  and  CB_35
REMARK                            x       y       z     vdW  Elec       q    Type
REMARK                         _______ _______ _______ _____ _____    ______ ____
ROOT
ATOM      1  C   UNK A   2       1.683   7.349  20.339  0.00  0.00    +0.000 A 
ATOM      2  C   UNK A   2       1.907   7.900  19.070  0.00  0.00    +0.000 A 
ATOM      3  C   UNK A   2       1.621   9.253  18.826  0.00  0.00    +0.000 A 
ATOM      4  C   UNK A   2       1.075  10.075  19.826  0.00  0.00    +0.000 A 
ATOM      5  C   UNK A   2       0.813   9.487  21.073  0.00  0.00    +0.000 A 
ATOM      6  C   UNK A   2       1.122   8.156  21.335  0.00  0.00    +0.000 A 
ENDROOT
BRANCH   4   7
ATOM      7  C   UNK A   2       0.746  11.505  19.592  0.00  0.00    +0.000 A 
ATOM      8  C   UNK A   2       1.640  12.371  18.953  0.00  0.00    +0.000 A 
ATOM      9  C   UNK A   2       1.294  13.695  18.658  0.00  0.00    +0.000 A 
ATOM     10  C   UNK A   2       0.034  14.206  19.037  0.00  0.00    +0.000 A 
ATOM     11  C   UNK A   2      -0.877  13.362  19.700  0.00  0.00    +0.000 A 
ATOM     12  C   UNK A   2      -0.500  12.032  19.975  0.00  0.00    +0.000 A 
BRANCH   9  13
ATOM     13  O   UNK A   2       2.149  14.550  17.998  0.00  0.00    +0.000 OA
ATOM     14  C   UNK A   2       3.433  14.727  18.590  0.00  0.00    +0.000 C 
ENDBRANCH   9  13
BRANCH  10  15
ATOM     15  O   UNK A   2      -0.172  15.536  18.766  0.00  0.00    +0.000 OA
ATOM     16  C   UNK A   2       0.084  16.459  19.823  0.00  0.00    +0.000 C 
ENDBRANCH  10  15
BRANCH  11  17
ATOM     17  O   UNK A   2      -2.092  13.871  20.089  0.00  0.00    +0.000 OA
ATOM     18  C   UNK A   2      -3.087  12.958  20.541  0.00  0.00    +0.000 C 
ENDBRANCH  11  17
ENDBRANCH   4   7
BRANCH   1  19
ATOM     19  C   UNK A   2       2.077   5.933  20.688  0.00  0.00    +0.000 C 
BRANCH  19  23
ATOM     20  N   ALA A   1       3.864   3.945  17.987  0.00  0.00    +0.000 N 
ATOM     21  C   UNK A   2       3.782   4.760  19.118  0.00  0.00    +0.000 C 
ATOM     22  O   UNK A   2       4.735   5.389  19.559  0.00  0.00    +0.000 OA
ATOM     23  C   UNK A   2       2.293   5.015  19.477  0.00  0.00    +0.000 C 
ATOM     24  N   UNK A   2       1.511   3.760  19.474  0.00  0.00    +0.000 N 
ATOM     25  C   UNK A   2       1.002   3.135  20.677  0.00  0.00    +0.000 C 
ATOM     26  C   ALA A   1       1.632   2.916  18.365  0.00  0.00    +0.000 C 
ATOM     27  O   ALA A   1       0.737   2.150  18.013  0.00  0.00    +0.000 OA
ATOM     28  CA  ALA A   1       3.104   2.692  17.969  0.00  0.00    +0.000 C 
ATOM     29  CB  ALA A   1       3.703   1.673  18.945  0.00  0.00    +0.000 C 
BRANCH  20  30
ATOM     30  C   UNK A   0       4.897   4.188  16.989  0.00  0.00    +0.000 C 
BRANCH  30  31
ATOM     31  C   UNK A   0       4.845   5.632  16.476  0.00  0.00    +0.000 C 
BRANCH  31  32
ATOM     32  C   UNK A   0       5.371   5.794  15.038  0.00  0.00    +0.000 C 
BRANCH  32  33
ATOM     33  C   UNK A   0       6.543   4.852  14.787  0.00  0.00    +0.000 C 
BRANCH  33  35
ATOM     34  C   UNK A   0       6.761   3.968  12.445  0.00  0.00    +0.000 C 
ATOM     35  C   UNK A   0       6.180   3.718  13.829  0.00  0.00    +0.000 C 
ENDBRANCH  33  35
ENDBRANCH  32  33
ENDBRANCH  31  32
ENDBRANCH  30  31
ENDBRANCH  20  30
ENDBRANCH  19  23
ENDBRANCH   1  19
TORSDOF 11
ENDMDL
MODEL 8
REMARK VINA RESULT:      -7.5      3.063      9.793
REMARK  Name = 
REMARK  17 active torsions:
REMARK  status: ('A' for Active; 'I' for Inactive)
REMARK    1  A    between atoms: C_1  and  C_2
REMARK    2  A    between atoms: C_2  and  C_3
REMARK    3  A    between atoms: C_3  and  C_4
REMARK    4  A    between atoms: C_4  and  C_5
REMARK    5  A    between atoms: C_5  and  C_6
REMARK    6  A    between atoms: C_6  and  N_7
REMARK    7  A    between atoms: C_10  and  C_11
REMARK    8  A    between atoms: C_11  and  C_12
REMARK    9  A    between atoms: C_15  and  C_16
REMARK   10  A    between atoms: C_18  and  O_19
REMARK   11  A    between atoms: O_19  and  C_20
REMARK   12  A    between atoms: C_21  and  O_22
REMARK   13  A    between atoms: O_22  and  C_23
REMARK   14  A    between atoms: C_24  and  O_25
REMARK   15  A    between atoms: O_25  and  C_26
REMARK   16  A    between atoms: N_30  and  C_31
REMARK   17  A    between atoms: CA_34  and  CB_35
REMARK                            x       y       z     vdW  Elec       q    Type
REMARK                         _______ _______ _______ _____ _____    ______ ____
ROOT
ATOM      1  C   UNK A   2       0.438   9.666  19.736  0.00  0.00    +0.000 A 
ATOM      2  C   UNK A   2       0.804   9.766  18.387  0.00  0.00    +0.000 A 
ATOM      3  C   UNK A   2       1.711   8.849  17.831  0.00  0.00    +0.000 A 
ATOM      4  C   UNK A   2       2.297   7.838  18.611  0.00  0.00    +0.000 A 
ATOM      5  C   UNK A   2       1.953   7.790  19.971  0.00  0.00    +0.000 A 
ATOM      6  C   UNK A   2       1.031   8.674  20.525  0.00  0.00    +0.000 A 
ENDROOT
BRANCH   4   7
ATOM      7  C   UNK A   2       3.273   6.866  18.054  0.00  0.00    +0.000 A 
ATOM      8  C   UNK A   2       2.973   5.504  17.942  0.00  0.00    +0.000 A 
ATOM      9  C   UNK A   2       3.860   4.604  17.340  0.00  0.00    +0.000 A 
ATOM     10  C   UNK A   2       5.112   5.048  16.861  0.00  0.00    +0.000 A 
ATOM     11  C   UNK A   2       5.449   6.410  16.980  0.00  0.00    +0.000 A 
ATOM     12  C   UNK A   2       4.528   7.290  17.584  0.00  0.00    +0.000 A 
BRANCH   9  13
ATOM     13  O   UNK A   2       3.565   3.268  17.189  0.00  0.00    +0.000 OA
ATOM     14  C   UNK A   2       3.469   2.511  18.393  0.00  0.00    +0.000 C 
ENDBRANCH   9  13
BRANCH  10  15
ATOM     15  O   UNK A   2       5.934   4.071  16.357  0.00  0.00    +0.000 OA
ATOM     16  C   UNK A   2       6.067   4.004  14.939  0.00  0.00    +0.000 C 
ENDBRANCH  10  15
BRANCH  11  17
ATOM     17  O   UNK A   2       6.678   6.832  16.535  0.00  0.00    +0.000 OA
ATOM     18  C   UNK A   2       7.588   7.367  17.490  0.00  0.00    +0.000 C 
ENDBRANCH  11  17
ENDBRANCH   4   7
BRANCH   1  19
ATOM     19  C   UNK A   2      -0.616  10.552  20.357  0.00  0.00    +0.000 C 
BRANCH  19  23
ATOM     20  N   ALA A   1      -0.307  14.254  19.551  0.00  0.00    +0.000 N 
ATOM     21  C   UNK A   2      -0.759  12.946  19.359  0.00  0.00    +0.000 C 
ATOM     22  O   UNK A   2      -1.262  12.560  18.311  0.00  0.00    +0.000 OA
ATOM     23  C   UNK A   2      -0.213  12.028  20.485  0.00  0.00    +0.000 C 
ATOM     24  N   UNK A   2      -0.404  12.634  21.820  0.00  0.00    +0.000 N 
ATOM     25  C   UNK A   2      -1.357  12.137  22.792  0.00  0.00    +0.000 C 
ATOM     26  C   ALA A   1      -0.000  13.960  22.001  0.00  0.00    +0.000 C 
ATOM     27  O   ALA A   1       0.345  14.407  23.093  0.00  0.00    +0.000 OA
ATOM     28  CA  ALA A   1      -0.496  14.875  20.865  0.00  0.00    +0.000 C 
ATOM     29  CB  ALA A   1      -1.978  15.178  21.118  0.00  0.00    +0.000 C 
BRANCH  20  30
ATOM     30  C   UNK A   0       0.070  15.068  18.404  0.00  0.00    +0.000 C 
BRANCH  30  31
ATOM     31  C   UNK A   0       0.816  16.334  18.842  0.00  0.00    +0.000 C 
BRANCH  31  32
ATOM     32  C   UNK A   0       2.225  16.461  18.234  0.00  0.00    +0.000 C 
BRANCH  32  33
ATOM     33  C   UNK A   0       2.878  15.089  18.104  0.00  0.00    +0.000 C 
BRANCH  33  35
ATOM     34  C   UNK A   0       3.259  14.009  20.340  0.00  0.00    +0.000 C 
ATOM     35  C   UNK A   0       3.889  14.820  19.217  0.00  0.00    +0.000 C 
ENDBRANCH  33  35
ENDBRANCH  32  33
ENDBRANCH  31  32
ENDBRANCH  30  31
ENDBRANCH  20  30
ENDBRANCH  19  23
ENDBRANCH   1  19
TORSDOF 11
ENDMDL
MODEL 9
REMARK VINA RESULT:      -7.4      3.059      9.965
REMARK  Name = 
REMARK  17 active torsions:
REMARK  status: ('A' for Active; 'I' for Inactive)
REMARK    1  A    between atoms: C_1  and  C_2
REMARK    2  A    between atoms: C_2  and  C_3
REMARK    3  A    between atoms: C_3  and  C_4
REMARK    4  A    between atoms: C_4  and  C_5
REMARK    5  A    between atoms: C_5  and  C_6
REMARK    6  A    between atoms: C_6  and  N_7
REMARK    7  A    between atoms: C_10  and  C_11
REMARK    8  A    between atoms: C_11  and  C_12
REMARK    9  A    between atoms: C_15  and  C_16
REMARK   10  A    between atoms: C_18  and  O_19
REMARK   11  A    between atoms: O_19  and  C_20
REMARK   12  A    between atoms: C_21  and  O_22
REMARK   13  A    between atoms: O_22  and  C_23
REMARK   14  A    between atoms: C_24  and  O_25
REMARK   15  A    between atoms: O_25  and  C_26
REMARK   16  A    between atoms: N_30  and  C_31
REMARK   17  A    between atoms: CA_34  and  CB_35
REMARK                            x       y       z     vdW  Elec       q    Type
REMARK                         _______ _______ _______ _____ _____    ______ ____
ROOT
ATOM      1  C   UNK A   2       0.451   9.653  19.571  0.00  0.00    +0.000 A 
ATOM      2  C   UNK A   2       0.786   9.705  18.211  0.00  0.00    +0.000 A 
ATOM      3  C   UNK A   2       1.705   8.790  17.674  0.00  0.00    +0.000 A 
ATOM      4  C   UNK A   2       2.335   7.829  18.481  0.00  0.00    +0.000 A 
ATOM      5  C   UNK A   2       2.021   7.829  19.849  0.00  0.00    +0.000 A 
ATOM      6  C   UNK A   2       1.087   8.710  20.386  0.00  0.00    +0.000 A 
ENDROOT
BRANCH   4   7
ATOM      7  C   UNK A   2       3.325   6.860  17.944  0.00  0.00    +0.000 A 
ATOM      8  C   UNK A   2       4.572   7.273  17.464  0.00  0.00    +0.000 A 
ATOM      9  C   UNK A   2       5.536   6.351  17.036  0.00  0.00    +0.000 A 
ATOM     10  C   UNK A   2       5.253   4.968  17.043  0.00  0.00    +0.000 A 
ATOM     11  C   UNK A   2       3.997   4.526  17.501  0.00  0.00    +0.000 A 
ATOM     12  C   UNK A   2       3.054   5.481  17.931  0.00  0.00    +0.000 A 
BRANCH   9  13
ATOM     13  O   UNK A   2       6.781   6.738  16.596  0.00  0.00    +0.000 OA
ATOM     14  C   UNK A   2       7.588   7.436  17.542  0.00  0.00    +0.000 C 
ENDBRANCH   9  13
BRANCH  10  15
ATOM     15  O   UNK A   2       6.238   4.159  16.533  0.00  0.00    +0.000 OA
ATOM     16  C   UNK A   2       6.153   3.829  15.149  0.00  0.00    +0.000 C 
ENDBRANCH  10  15
BRANCH  11  17
ATOM     17  O   UNK A   2       3.718   3.182  17.481  0.00  0.00    +0.000 OA
ATOM     18  C   UNK A   2       2.460   2.751  17.992  0.00  0.00    +0.000 C 
ENDBRANCH  11  17
ENDBRANCH   4   7
BRANCH   1  19
ATOM     19  C   UNK A   2      -0.614  10.536  20.178  0.00  0.00    +0.000 C 
BRANCH  19  23
ATOM     20  N   ALA A   1      -0.163  14.257  19.546  0.00  0.00    +0.000 N 
ATOM     21  C   UNK A   2      -0.633  12.970  19.271  0.00  0.00    +0.000 C 
ATOM     22  O   UNK A   2      -1.073  12.639  18.177  0.00  0.00    +0.000 OA
ATOM     23  C   UNK A   2      -0.185  11.994  20.392  0.00  0.00    +0.000 C 
ATOM     24  N   UNK A   2      -0.451  12.552  21.735  0.00  0.00    +0.000 N 
ATOM     25  C   UNK A   2      -1.478  12.043  22.621  0.00  0.00    +0.000 C 
ATOM     26  C   ALA A   1      -0.029  13.859  21.997  0.00  0.00    +0.000 C 
ATOM     27  O   ALA A   1       0.253  14.253  23.127  0.00  0.00    +0.000 OA
ATOM     28  CA  ALA A   1      -0.426  14.831  20.869  0.00  0.00    +0.000 C 
ATOM     29  CB  ALA A   1      -1.913  15.162  21.036  0.00  0.00    +0.000 C 
BRANCH  20  30
ATOM     30  C   UNK A   0       0.309  15.105  18.460  0.00  0.00    +0.000 C 
BRANCH  30  31
ATOM     31  C   UNK A   0       0.944  16.393  18.998  0.00  0.00    +0.000 C 
BRANCH  31  32
ATOM     32  C   UNK A   0       2.483  16.358  19.020  0.00  0.00    +0.000 C 
BRANCH  32  33
ATOM     33  C   UNK A   0       3.021  15.652  17.781  0.00  0.00    +0.000 C 
BRANCH  33  35
ATOM     34  C   UNK A   0       5.397  14.941  18.181  0.00  0.00    +0.000 C 
ATOM     35  C   UNK A   0       3.946  14.487  18.132  0.00  0.00    +0.000 C 
ENDBRANCH  33  35
ENDBRANCH  32  33
ENDBRANCH  31  32
ENDBRANCH  30  31
ENDBRANCH  20  30
ENDBRANCH  19  23
ENDBRANCH   1  19
TORSDOF 11
ENDMDL
