MODEL 1
REMARK VINA RESULT:      -7.5      0.000      0.000
REMARK  Name = 
REMARK  2 active torsions:
REMARK  status: ('A' for Active; 'I' for Inactive)
REMARK    1  A    between atoms: C_2  and  C_14
REMARK    2  A    between atoms: N_3  and  C_4
REMARK                            x       y       z     vdW  Elec       q    Type
REMARK                         _______ _______ _______ _____ _____    ______ ____
ROOT
ATOM      1  O   UNL     1       5.897   4.774  18.172  0.00  0.00    +0.000 OA
ATOM      2  C   UNL     1       5.237   4.974  17.156  0.00  0.00    +0.000 C 
ATOM      3  N   UNL     1       3.891   5.313  17.110  0.00  0.00    +0.000 N 
ATOM      4  H   UNL     1       3.454   5.245  16.198  0.00  0.00    +0.000 HD
ENDROOT
BRANCH   3   5
ATOM      5  C   UNL     1       3.079   5.549  18.258  0.00  0.00    +0.000 A 
ATOM      6  C   UNL     1       2.896   6.866  18.713  0.00  0.00    +0.000 A 
ATOM      7  C   UNL     1       2.197   7.147  19.879  0.00  0.00    +0.000 A 
ATOM      8  C   UNL     1       1.647   6.109  20.613  0.00  0.00    +0.000 A 
ATOM      9  C   UNL     1       1.755   4.786  20.171  0.00  0.00    +0.000 A 
ATOM     10  C   UNL     1       1.174   3.770  20.942  0.00  0.00    +0.000 A 
ATOM     11  C   UNL     1       1.242   2.440  20.544  0.00  0.00    +0.000 A 
ATOM     12  C   UNL     1       1.894   2.111  19.365  0.00  0.00    +0.000 A 
ATOM     13  C   UNL     1       2.494   3.111  18.588  0.00  0.00    +0.000 A 
ATOM     14  C   UNL     1       2.454   4.478  18.967  0.00  0.00    +0.000 A 
ENDBRANCH   3   5
BRANCH   2  15
ATOM     15  C   UNL     1       5.931   4.805  15.855  0.00  0.00    +0.000 A 
ATOM     16  C   UNL     1       7.132   5.480  15.654  0.00  0.00    +0.000 A 
ATOM     17  N   UNL     1       7.818   5.423  14.486  0.00  0.00    +0.000 NA
ATOM     18  C   UNL     1       7.246   4.665  13.526  0.00  0.00    +0.000 A 
ATOM     19  C   UNL     1       6.051   3.982  13.728  0.00  0.00    +0.000 A 
ATOM     20  N   UNL     1       5.359   4.023  14.896  0.00  0.00    +0.000 NA
ENDBRANCH   2  15
TORSDOF 2
ENDMDL
MODEL 2
REMARK VINA RESULT:      -7.5      0.736      2.530
REMARK  Name = 
REMARK  2 active torsions:
REMARK  status: ('A' for Active; 'I' for Inactive)
REMARK    1  A    between atoms: C_2  and  C_14
REMARK    2  A    between atoms: N_3  and  C_4
REMARK                            x       y       z     vdW  Elec       q    Type
REMARK                         _______ _______ _______ _____ _____    ______ ____
ROOT
ATOM      1  O   UNL     1       5.904   4.040  17.991  0.00  0.00    +0.000 OA
ATOM      2  C   UNL     1       5.254   4.028  16.948  0.00  0.00    +0.000 C 
ATOM      3  N   UNL     1       3.893   3.776  16.836  0.00  0.00    +0.000 N 
ATOM      4  H   UNL     1       3.556   3.607  15.895  0.00  0.00    +0.000 HD
ENDROOT
BRANCH   3   5
ATOM      5  C   UNL     1       3.020   3.556  17.942  0.00  0.00    +0.000 A 
ATOM      6  C   UNL     1       2.542   2.259  18.195  0.00  0.00    +0.000 A 
ATOM      7  C   UNL     1       1.615   2.004  19.197  0.00  0.00    +0.000 A 
ATOM      8  C   UNL     1       1.156   3.046  19.984  0.00  0.00    +0.000 A 
ATOM      9  C   UNL     1       1.644   4.345  19.806  0.00  0.00    +0.000 A 
ATOM     10  C   UNL     1       1.156   5.366  20.634  0.00  0.00    +0.000 A 
ATOM     11  C   UNL     1       1.615   6.672  20.508  0.00  0.00    +0.000 A 
ATOM     12  C   UNL     1       2.572   6.971  19.549  0.00  0.00    +0.000 A 
ATOM     13  C   UNL     1       3.061   5.967  18.703  0.00  0.00    +0.000 A 
ATOM     14  C   UNL     1       2.609   4.626  18.795  0.00  0.00    +0.000 A 
ENDBRANCH   3   5
BRANCH   2  15
ATOM     15  C   UNL     1       5.997   4.272  15.686  0.00  0.00    +0.000 A 
ATOM     16  C   UNL     1       7.049   5.184  15.705  0.00  0.00    +0.000 A 
ATOM     17  N   UNL     1       7.760   5.505  14.596  0.00  0.00    +0.000 NA
ATOM     18  C   UNL     1       7.367   4.880  13.466  0.00  0.00    +0.000 A 
ATOM     19  C   UNL     1       6.322   3.962  13.447  0.00  0.00    +0.000 A 
ATOM     20  N   UNL     1       5.609   3.623  14.553  0.00  0.00    +0.000 NA
ENDBRANCH   2  15
TORSDOF 2
ENDMDL
MODEL 3
REMARK VINA RESULT:      -7.4      1.367      3.116
REMARK  Name = 
REMARK  2 active torsions:
REMARK  status: ('A' for Active; 'I' for Inactive)
REMARK    1  A    between atoms: C_2  and  C_14
REMARK    2  A    between atoms: N_3  and  C_4
REMARK                            x       y       z     vdW  Elec       q    Type
REMARK                         _______ _______ _______ _____ _____    ______ ____
ROOT
ATOM      1  O   UNL     1       7.068   4.431  16.879  0.00  0.00    +0.000 OA
ATOM      2  C   UNL     1       6.186   4.460  16.024  0.00  0.00    +0.000 C 
ATOM      3  N   UNL     1       4.818   4.412  16.259  0.00  0.00    +0.000 N 
ATOM      4  H   UNL     1       4.240   4.244  15.443  0.00  0.00    +0.000 HD
ENDROOT
BRANCH   3   5
ATOM      5  C   UNL     1       4.223   4.391  17.554  0.00  0.00    +0.000 A 
ATOM      6  C   UNL     1       4.252   3.204  18.306  0.00  0.00    +0.000 A 
ATOM      7  C   UNL     1       3.605   3.098  19.530  0.00  0.00    +0.000 A 
ATOM      8  C   UNL     1       2.925   4.190  20.041  0.00  0.00    +0.000 A 
ATOM      9  C   UNL     1       2.915   5.410  19.355  0.00  0.00    +0.000 A 
ATOM     10  C   UNL     1       2.220   6.490  19.916  0.00  0.00    +0.000 A 
ATOM     11  C   UNL     1       2.187   7.727  19.283  0.00  0.00    +0.000 A 
ATOM     12  C   UNL     1       2.852   7.897  18.078  0.00  0.00    +0.000 A 
ATOM     13  C   UNL     1       3.539   6.825  17.494  0.00  0.00    +0.000 A 
ATOM     14  C   UNL     1       3.587   5.545  18.105  0.00  0.00    +0.000 A 
ENDBRANCH   3   5
BRANCH   2  15
ATOM     15  C   UNL     1       6.621   4.517  14.606  0.00  0.00    +0.000 A 
ATOM     16  C   UNL     1       5.991   3.681  13.687  0.00  0.00    +0.000 A 
ATOM     17  N   UNL     1       6.346   3.630  12.379  0.00  0.00    +0.000 NA
ATOM     18  C   UNL     1       7.364   4.446  12.033  0.00  0.00    +0.000 A 
ATOM     19  C   UNL     1       7.988   5.288  12.947  0.00  0.00    +0.000 A 
ATOM     20  N   UNL     1       7.636   5.357  14.258  0.00  0.00    +0.000 NA
ENDBRANCH   2  15
TORSDOF 2
ENDMDL
MODEL 4
REMARK VINA RESULT:      -7.1      1.126      1.636
REMARK  Name = 
REMARK  2 active torsions:
REMARK  status: ('A' for Active; 'I' for Inactive)
REMARK    1  A    between atoms: C_2  and  C_14
REMARK    2  A    between atoms: N_3  and  C_4
REMARK                            x       y       z     vdW  Elec       q    Type
REMARK                         _______ _______ _______ _____ _____    ______ ____
ROOT
ATOM      1  O   UNL     1       6.483   4.427  17.046  0.00  0.00    +0.000 OA
ATOM      2  C   UNL     1       5.776   4.760  16.098  0.00  0.00    +0.000 C 
ATOM      3  N   UNL     1       4.453   5.175  16.172  0.00  0.00    +0.000 N 
ATOM      4  H   UNL     1       3.959   5.219  15.287  0.00  0.00    +0.000 HD
ENDROOT
BRANCH   3   5
ATOM      5  C   UNL     1       3.727   5.343  17.387  0.00  0.00    +0.000 A 
ATOM      6  C   UNL     1       3.721   6.599  18.018  0.00  0.00    +0.000 A 
ATOM      7  C   UNL     1       3.112   6.795  19.251  0.00  0.00    +0.000 A 
ATOM      8  C   UNL     1       2.476   5.736  19.875  0.00  0.00    +0.000 A 
ATOM      9  C   UNL     1       2.407   4.481  19.260  0.00  0.00    +0.000 A 
ATOM     10  C   UNL     1       1.744   3.441  19.927  0.00  0.00    +0.000 A 
ATOM     11  C   UNL     1       1.637   2.178  19.357  0.00  0.00    +0.000 A 
ATOM     12  C   UNL     1       2.192   1.941  18.108  0.00  0.00    +0.000 A 
ATOM     13  C   UNL     1       2.872   2.963  17.433  0.00  0.00    +0.000 A 
ATOM     14  C   UNL     1       3.011   4.262  17.987  0.00  0.00    +0.000 A 
ENDBRANCH   3   5
BRANCH   2  15
ATOM     15  C   UNL     1       6.380   4.680  14.745  0.00  0.00    +0.000 A 
ATOM     16  C   UNL     1       5.826   3.793  13.825  0.00  0.00    +0.000 A 
ATOM     17  N   UNL     1       6.332   3.618  12.579  0.00  0.00    +0.000 NA
ATOM     18  C   UNL     1       7.421   4.364  12.297  0.00  0.00    +0.000 A 
ATOM     19  C   UNL     1       7.971   5.257  13.211  0.00  0.00    +0.000 A 
ATOM     20  N   UNL     1       7.467   5.450  14.458  0.00  0.00    +0.000 NA
ENDBRANCH   2  15
TORSDOF 2
ENDMDL
MODEL 5
REMARK VINA RESULT:      -7.1      0.638      1.150
REMARK  Name = 
REMARK  2 active torsions:
REMARK  status: ('A' for Active; 'I' for Inactive)
REMARK    1  A    between atoms: C_2  and  C_14
REMARK    2  A    between atoms: N_3  and  C_4
REMARK                            x       y       z     vdW  Elec       q    Type
REMARK                         _______ _______ _______ _____ _____    ______ ____
ROOT
ATOM      1  O   UNL     1       6.042   5.554  17.859  0.00  0.00    +0.000 OA
ATOM      2  C   UNL     1       5.296   5.314  16.914  0.00  0.00    +0.000 C 
ATOM      3  N   UNL     1       3.910   5.254  16.962  0.00  0.00    +0.000 N 
ATOM      4  H   UNL     1       3.461   4.850  16.147  0.00  0.00    +0.000 HD
ENDROOT
BRANCH   3   5
ATOM      5  C   UNL     1       3.130   5.534  18.122  0.00  0.00    +0.000 A 
ATOM      6  C   UNL     1       2.963   6.868  18.534  0.00  0.00    +0.000 A 
ATOM      7  C   UNL     1       2.297   7.192  19.708  0.00  0.00    +0.000 A 
ATOM      8  C   UNL     1       1.764   6.183  20.493  0.00  0.00    +0.000 A 
ATOM      9  C   UNL     1       1.856   4.845  20.095  0.00  0.00    +0.000 A 
ATOM     10  C   UNL     1       1.292   3.859  20.918  0.00  0.00    +0.000 A 
ATOM     11  C   UNL     1       1.346   2.516  20.566  0.00  0.00    +0.000 A 
ATOM     12  C   UNL     1       1.964   2.143  19.381  0.00  0.00    +0.000 A 
ATOM     13  C   UNL     1       2.547   3.112  18.554  0.00  0.00    +0.000 A 
ATOM     14  C   UNL     1       2.521   4.491  18.884  0.00  0.00    +0.000 A 
ENDBRANCH   3   5
BRANCH   2  15
ATOM     15  C   UNL     1       5.935   5.027  15.605  0.00  0.00    +0.000 A 
ATOM     16  C   UNL     1       5.268   4.191  14.712  0.00  0.00    +0.000 A 
ATOM     17  N   UNL     1       5.788   3.837  13.511  0.00  0.00    +0.000 NA
ATOM     18  C   UNL     1       7.008   4.349  13.246  0.00  0.00    +0.000 A 
ATOM     19  C   UNL     1       7.673   5.191  14.132  0.00  0.00    +0.000 A 
ATOM     20  N   UNL     1       7.158   5.562  15.334  0.00  0.00    +0.000 NA
ENDBRANCH   2  15
TORSDOF 2
ENDMDL
MODEL 6
REMARK VINA RESULT:      -7.1      1.110      2.739
REMARK  Name = 
REMARK  2 active torsions:
REMARK  status: ('A' for Active; 'I' for Inactive)
REMARK    1  A    between atoms: C_2  and  C_14
REMARK    2  A    between atoms: N_3  and  C_4
REMARK                            x       y       z     vdW  Elec       q    Type
REMARK                         _______ _______ _______ _____ _____    ______ ____
ROOT
ATOM      1  O   UNL     1       6.650   4.266  17.160  0.00  0.00    +0.000 OA
ATOM      2  C   UNL     1       5.865   4.154  16.222  0.00  0.00    +0.000 C 
ATOM      3  N   UNL     1       4.512   3.860  16.320  0.00  0.00    +0.000 N 
ATOM      4  H   UNL     1       4.056   3.607  15.451  0.00  0.00    +0.000 HD
ENDROOT
BRANCH   3   5
ATOM      5  C   UNL     1       3.806   3.710  17.550  0.00  0.00    +0.000 A 
ATOM      6  C   UNL     1       3.589   2.421  18.066  0.00  0.00    +0.000 A 
ATOM      7  C   UNL     1       2.826   2.210  19.207  0.00  0.00    +0.000 A 
ATOM      8  C   UNL     1       2.274   3.293  19.870  0.00  0.00    +0.000 A 
ATOM      9  C   UNL     1       2.509   4.599  19.426  0.00  0.00    +0.000 A 
ATOM     10  C   UNL     1       1.937   5.663  20.136  0.00  0.00    +0.000 A 
ATOM     11  C   UNL     1       2.147   6.980  19.745  0.00  0.00    +0.000 A 
ATOM     12  C   UNL     1       2.936   7.247  18.635  0.00  0.00    +0.000 A 
ATOM     13  C   UNL     1       3.503   6.196  17.904  0.00  0.00    +0.000 A 
ATOM     14  C   UNL     1       3.304   4.839  18.267  0.00  0.00    +0.000 A 
ENDBRANCH   3   5
BRANCH   2  15
ATOM     15  C   UNL     1       6.420   4.312  14.854  0.00  0.00    +0.000 A 
ATOM     16  C   UNL     1       7.418   5.263  14.652  0.00  0.00    +0.000 A 
ATOM     17  N   UNL     1       7.958   5.510  13.433  0.00  0.00    +0.000 NA
ATOM     18  C   UNL     1       7.449   4.771  12.424  0.00  0.00    +0.000 A 
ATOM     19  C   UNL     1       6.459   3.815  12.626  0.00  0.00    +0.000 A 
ATOM     20  N   UNL     1       5.918   3.549  13.843  0.00  0.00    +0.000 NA
ENDBRANCH   2  15
TORSDOF 2
ENDMDL
MODEL 7
REMARK VINA RESULT:      -7.0      3.975      7.160
REMARK  Name = 
REMARK  2 active torsions:
REMARK  status: ('A' for Active; 'I' for Inactive)
REMARK    1  A    between atoms: C_2  and  C_14
REMARK    2  A    between atoms: N_3  and  C_4
REMARK                            x       y       z     vdW  Elec       q    Type
REMARK                         _______ _______ _______ _____ _____    ______ ____
ROOT
ATOM      1  O   UNL     1       1.001   9.271  18.838  0.00  0.00    +0.000 OA
ATOM      2  C   UNL     1       1.067   8.844  19.988  0.00  0.00    +0.000 C 
ATOM      3  N   UNL     1       1.663   7.654  20.384  0.00  0.00    +0.000 N 
ATOM      4  H   UNL     1       1.456   7.356  21.331  0.00  0.00    +0.000 HD
ENDROOT
BRANCH   3   5
ATOM      5  C   UNL     1       2.357   6.769  19.509  0.00  0.00    +0.000 A 
ATOM      6  C   UNL     1       3.250   7.298  18.561  0.00  0.00    +0.000 A 
ATOM      7  C   UNL     1       3.879   6.493  17.620  0.00  0.00    +0.000 A 
ATOM      8  C   UNL     1       3.641   5.129  17.619  0.00  0.00    +0.000 A 
ATOM      9  C   UNL     1       2.804   4.549  18.578  0.00  0.00    +0.000 A 
ATOM     10  C   UNL     1       2.601   3.162  18.543  0.00  0.00    +0.000 A 
ATOM     11  C   UNL     1       1.788   2.533  19.478  0.00  0.00    +0.000 A 
ATOM     12  C   UNL     1       1.169   3.287  20.465  0.00  0.00    +0.000 A 
ATOM     13  C   UNL     1       1.348   4.676  20.507  0.00  0.00    +0.000 A 
ATOM     14  C   UNL     1       2.161   5.355  19.564  0.00  0.00    +0.000 A 
ENDBRANCH   3   5
BRANCH   2  15
ATOM     15  C   UNL     1       0.421   9.657  21.049  0.00  0.00    +0.000 A 
ATOM     16  C   UNL     1       0.643   9.305  22.378  0.00  0.00    +0.000 A 
ATOM     17  N   UNL     1       0.065   9.960  23.415  0.00  0.00    +0.000 NA
ATOM     18  C   UNL     1      -0.750  10.977  23.064  0.00  0.00    +0.000 A 
ATOM     19  C   UNL     1      -0.966  11.336  21.737  0.00  0.00    +0.000 A 
ATOM     20  N   UNL     1      -0.385  10.695  20.689  0.00  0.00    +0.000 NA
ENDBRANCH   2  15
TORSDOF 2
ENDMDL
MODEL 8
REMARK VINA RESULT:      -7.0      3.323      6.277
REMARK  Name = 
REMARK  2 active torsions:
REMARK  status: ('A' for Active; 'I' for Inactive)
REMARK    1  A    between atoms: C_2  and  C_14
REMARK    2  A    between atoms: N_3  and  C_4
REMARK                            x       y       z     vdW  Elec       q    Type
REMARK                         _______ _______ _______ _____ _____    ______ ____
ROOT
ATOM      1  O   UNL     1       2.077   8.765  17.323  0.00  0.00    +0.000 OA
ATOM      2  C   UNL     1       1.980   8.474  18.512  0.00  0.00    +0.000 C 
ATOM      3  N   UNL     1       2.364   7.273  19.093  0.00  0.00    +0.000 N 
ATOM      4  H   UNL     1       2.034   7.119  20.039  0.00  0.00    +0.000 HD
ENDROOT
BRANCH   3   5
ATOM      5  C   UNL     1       3.003   6.207  18.394  0.00  0.00    +0.000 A 
ATOM      6  C   UNL     1       4.112   6.485  17.577  0.00  0.00    +0.000 A 
ATOM      7  C   UNL     1       4.711   5.504  16.799  0.00  0.00    +0.000 A 
ATOM      8  C   UNL     1       4.222   4.209  16.834  0.00  0.00    +0.000 A 
ATOM      9  C   UNL     1       3.155   3.871  17.675  0.00  0.00    +0.000 A 
ATOM     10  C   UNL     1       2.701   2.545  17.684  0.00  0.00    +0.000 A 
ATOM     11  C   UNL     1       1.652   2.153  18.507  0.00  0.00    +0.000 A 
ATOM     12  C   UNL     1       1.045   3.087  19.335  0.00  0.00    +0.000 A 
ATOM     13  C   UNL     1       1.476   4.420  19.328  0.00  0.00    +0.000 A 
ATOM     14  C   UNL     1       2.536   4.860  18.495  0.00  0.00    +0.000 A 
ENDBRANCH   3   5
BRANCH   2  15
ATOM     15  C   UNL     1       1.363   9.485  19.407  0.00  0.00    +0.000 A 
ATOM     16  C   UNL     1       1.134  10.762  18.902  0.00  0.00    +0.000 A 
ATOM     17  N   UNL     1       0.614  11.764  19.653  0.00  0.00    +0.000 NA
ATOM     18  C   UNL     1       0.341  11.434  20.934  0.00  0.00    +0.000 A 
ATOM     19  C   UNL     1       0.561  10.157  21.437  0.00  0.00    +0.000 A 
ATOM     20  N   UNL     1       1.071   9.140  20.693  0.00  0.00    +0.000 NA
ENDBRANCH   2  15
TORSDOF 2
ENDMDL
MODEL 9
REMARK VINA RESULT:      -7.0      3.408      6.494
REMARK  Name = 
REMARK  2 active torsions:
REMARK  status: ('A' for Active; 'I' for Inactive)
REMARK    1  A    between atoms: C_2  and  C_14
REMARK    2  A    between atoms: N_3  and  C_4
REMARK                            x       y       z     vdW  Elec       q    Type
REMARK                         _______ _______ _______ _____ _____    ______ ____
ROOT
ATOM      1  O   UNL     1       1.635   8.691  17.892  0.00  0.00    +0.000 OA
ATOM      2  C   UNL     1       1.688   8.397  19.083  0.00  0.00    +0.000 C 
ATOM      3  N   UNL     1       2.179   7.211  19.611  0.00  0.00    +0.000 N 
ATOM      4  H   UNL     1       1.968   7.047  20.589  0.00  0.00    +0.000 HD
ENDROOT
BRANCH   3   5
ATOM      5  C   UNL     1       2.767   6.167  18.839  0.00  0.00    +0.000 A 
ATOM      6  C   UNL     1       3.832   6.467  17.972  0.00  0.00    +0.000 A 
ATOM      7  C   UNL     1       4.377   5.510  17.126  0.00  0.00    +0.000 A 
ATOM      8  C   UNL     1       3.878   4.219  17.141  0.00  0.00    +0.000 A 
ATOM      9  C   UNL     1       2.856   3.859  18.026  0.00  0.00    +0.000 A 
ATOM     10  C   UNL     1       2.389   2.537  18.012  0.00  0.00    +0.000 A 
ATOM     11  C   UNL     1       1.383   2.123  18.877  0.00  0.00    +0.000 A 
ATOM     12  C   UNL     1       0.833   3.030  19.771  0.00  0.00    +0.000 A 
ATOM     13  C   UNL     1       1.276   4.359  19.790  0.00  0.00    +0.000 A 
ATOM     14  C   UNL     1       2.293   4.821  18.916  0.00  0.00    +0.000 A 
ENDBRANCH   3   5
BRANCH   2  15
ATOM     15  C   UNL     1       1.147   9.388  20.048  0.00  0.00    +0.000 A 
ATOM     16  C   UNL     1       1.146   9.060  21.401  0.00  0.00    +0.000 A 
ATOM     17  N   UNL     1       0.636   9.879  22.354  0.00  0.00    +0.000 NA
ATOM     18  C   UNL     1       0.120  11.037  21.891  0.00  0.00    +0.000 A 
ATOM     19  C   UNL     1       0.127  11.371  20.541  0.00  0.00    +0.000 A 
ATOM     20  N   UNL     1       0.645  10.564  19.578  0.00  0.00    +0.000 NA
ENDBRANCH   2  15
TORSDOF 2
ENDMDL
