MODEL 1
REMARK VINA RESULT:      -9.4      0.000      0.000
REMARK  Name = 
REMARK  8 active torsions:
REMARK  status: ('A' for Active; 'I' for Inactive)
REMARK    1  A    between atoms: C_2  and  O_3
REMARK    2  A    between atoms: C_2  and  C_4
REMARK    3  A    between atoms: C_8  and  N_9
REMARK    4  A    between atoms: N_9  and  C_10
REMARK    5  A    between atoms: C_10  and  N_12
REMARK    6  A    between atoms: C_13  and  C_15
REMARK    7  A    between atoms: C_15  and  C_16
REMARK    8  A    between atoms: C_15  and  C_22
REMARK                            x       y       z     vdW  Elec       q    Type
REMARK                         _______ _______ _______ _____ _____    ______ ____
ROOT
ATOM      1  N   UNL     1       4.904   6.255  17.037  0.00  0.00    +0.000 N 
ATOM      2  C   UNL     1       4.228   5.898  18.196  0.00  0.00    +0.000 C 
ATOM      3  O   UNL     1       4.838   5.515  19.202  0.00  0.00    +0.000 OA
ATOM      4  H   UNL     1       4.382   6.620  16.251  0.00  0.00    +0.000 HD
ENDROOT
BRANCH   1   5
ATOM      5  C   UNL     1       6.239   5.996  16.764  0.00  0.00    +0.000 C 
ATOM      6  S   UNL     1       7.388   7.016  17.435  0.00  0.00    +0.000 S 
BRANCH   5   7
ATOM      7  N   UNL     1       6.484   4.886  15.994  0.00  0.00    +0.000 N 
ATOM      8  H   UNL     1       6.360   3.995  16.480  0.00  0.00    +0.000 HD
BRANCH   7  13
ATOM      9  C   UNL     1       6.159   3.688  12.490  0.00  0.00    +0.000 A 
ATOM     10  C   UNL     1       7.212   4.377  11.879  0.00  0.00    +0.000 A 
ATOM     11  C   UNL     1       7.992   5.252  12.636  0.00  0.00    +0.000 A 
ATOM     12  C   UNL     1       7.733   5.416  14.001  0.00  0.00    +0.000 A 
ATOM     13  C   UNL     1       6.644   4.770  14.600  0.00  0.00    +0.000 A 
ATOM     14  C   UNL     1       5.849   3.922  13.835  0.00  0.00    +0.000 A 
BRANCH   9  16
ATOM     15  O   UNL     1       4.222   2.892  11.362  0.00  0.00    +0.000 OA
ATOM     16  C   UNL     1       5.348   2.675  11.772  0.00  0.00    +0.000 C 
BRANCH  16  17
ATOM     17  O   UNL     1       5.944   1.466  11.686  0.00  0.00    +0.000 OA
ATOM     18  H   UNL     1       6.763   1.451  11.157  0.00  0.00    +0.000 HD
ENDBRANCH  16  17
ENDBRANCH   9  16
ENDBRANCH   7  13
ENDBRANCH   5   7
ENDBRANCH   1   5
BRANCH   2  19
ATOM     19  C   UNL     1       2.688   6.016  18.162  0.00  0.00    +0.000 C 
BRANCH  19  20
ATOM     20  C   UNL     1       2.106   4.833  18.941  0.00  0.00    +0.000 A 
ATOM     21  C   UNL     1       2.176   4.802  20.345  0.00  0.00    +0.000 A 
ATOM     22  C   UNL     1       1.648   3.728  21.063  0.00  0.00    +0.000 A 
ATOM     23  C   UNL     1       1.039   2.674  20.388  0.00  0.00    +0.000 A 
ATOM     24  C   UNL     1       0.954   2.694  18.996  0.00  0.00    +0.000 A 
ATOM     25  C   UNL     1       1.483   3.768  18.273  0.00  0.00    +0.000 A 
ENDBRANCH  19  20
BRANCH  19  26
ATOM     26  C   UNL     1       2.187   7.395  18.639  0.00  0.00    +0.000 A 
ATOM     27  C   UNL     1       1.988   8.454  17.730  0.00  0.00    +0.000 A 
ATOM     28  C   UNL     1       1.500   9.693  18.153  0.00  0.00    +0.000 A 
ATOM     29  C   UNL     1       1.177   9.896  19.488  0.00  0.00    +0.000 A 
ATOM     30  C   UNL     1       1.356   8.865  20.405  0.00  0.00    +0.000 A 
ATOM     31  C   UNL     1       1.849   7.627  19.984  0.00  0.00    +0.000 A 
ENDBRANCH  19  26
ENDBRANCH   2  19
TORSDOF 8
ENDMDL
MODEL 2
REMARK VINA RESULT:      -9.3      0.484      1.329
REMARK  Name = 
REMARK  8 active torsions:
REMARK  status: ('A' for Active; 'I' for Inactive)
REMARK    1  A    between atoms: C_2  and  O_3
REMARK    2  A    between atoms: C_2  and  C_4
REMARK    3  A    between atoms: C_8  and  N_9
REMARK    4  A    between atoms: N_9  and  C_10
REMARK    5  A    between atoms: C_10  and  N_12
REMARK    6  A    between atoms: C_13  and  C_15
REMARK    7  A    between atoms: C_15  and  C_16
REMARK    8  A    between atoms: C_15  and  C_22
REMARK                            x       y       z     vdW  Elec       q    Type
REMARK                         _______ _______ _______ _____ _____    ______ ____
ROOT
ATOM      1  N   UNL     1       5.039   6.221  16.942  0.00  0.00    +0.000 N 
ATOM      2  C   UNL     1       4.311   5.874  18.072  0.00  0.00    +0.000 C 
ATOM      3  O   UNL     1       4.877   5.532  19.119  0.00  0.00    +0.000 OA
ATOM      4  H   UNL     1       4.551   6.554  16.121  0.00  0.00    +0.000 HD
ENDROOT
BRANCH   1   5
ATOM      5  C   UNL     1       6.393   5.991  16.746  0.00  0.00    +0.000 C 
ATOM      6  S   UNL     1       7.480   7.010  17.515  0.00  0.00    +0.000 S 
BRANCH   5   7
ATOM      7  N   UNL     1       6.704   4.907  15.963  0.00  0.00    +0.000 N 
ATOM      8  H   UNL     1       6.704   4.012  16.457  0.00  0.00    +0.000 HD
BRANCH   7  13
ATOM      9  C   UNL     1       6.223   3.702  12.480  0.00  0.00    +0.000 A 
ATOM     10  C   UNL     1       7.214   4.429  11.812  0.00  0.00    +0.000 A 
ATOM     11  C   UNL     1       8.004   5.330  12.526  0.00  0.00    +0.000 A 
ATOM     12  C   UNL     1       7.818   5.483  13.904  0.00  0.00    +0.000 A 
ATOM     13  C   UNL     1       6.789   4.798  14.562  0.00  0.00    +0.000 A 
ATOM     14  C   UNL     1       5.982   3.923  13.841  0.00  0.00    +0.000 A 
BRANCH   9  16
ATOM     15  O   UNL     1       4.270   2.853  11.420  0.00  0.00    +0.000 OA
ATOM     16  C   UNL     1       5.409   2.661  11.806  0.00  0.00    +0.000 C 
BRANCH  16  17
ATOM     17  O   UNL     1       6.020   1.459  11.732  0.00  0.00    +0.000 OA
ATOM     18  H   UNL     1       6.334   1.106  12.585  0.00  0.00    +0.000 HD
ENDBRANCH  16  17
ENDBRANCH   9  16
ENDBRANCH   7  13
ENDBRANCH   5   7
ENDBRANCH   1   5
BRANCH   2  19
ATOM     19  C   UNL     1       2.773   5.951  17.954  0.00  0.00    +0.000 C 
BRANCH  19  20
ATOM     20  C   UNL     1       2.193   4.626  18.460  0.00  0.00    +0.000 A 
ATOM     21  C   UNL     1       2.372   3.443  17.721  0.00  0.00    +0.000 A 
ATOM     22  C   UNL     1       1.848   2.232  18.174  0.00  0.00    +0.000 A 
ATOM     23  C   UNL     1       1.142   2.186  19.372  0.00  0.00    +0.000 A 
ATOM     24  C   UNL     1       0.963   3.349  20.121  0.00  0.00    +0.000 A 
ATOM     25  C   UNL     1       1.486   4.565  19.670  0.00  0.00    +0.000 A 
ENDBRANCH  19  20
BRANCH  19  26
ATOM     26  C   UNL     1       2.186   7.200  18.643  0.00  0.00    +0.000 A 
ATOM     27  C   UNL     1       2.015   7.250  20.041  0.00  0.00    +0.000 A 
ATOM     28  C   UNL     1       1.518   8.394  20.673  0.00  0.00    +0.000 A 
ATOM     29  C   UNL     1       1.204   9.522  19.926  0.00  0.00    +0.000 A 
ATOM     30  C   UNL     1       1.371   9.502  18.545  0.00  0.00    +0.000 A 
ATOM     31  C   UNL     1       1.863   8.357  17.911  0.00  0.00    +0.000 A 
ENDBRANCH  19  26
ENDBRANCH   2  19
TORSDOF 8
ENDMDL
MODEL 3
REMARK VINA RESULT:      -9.2      0.105      1.094
REMARK  Name = 
REMARK  8 active torsions:
REMARK  status: ('A' for Active; 'I' for Inactive)
REMARK    1  A    between atoms: C_2  and  O_3
REMARK    2  A    between atoms: C_2  and  C_4
REMARK    3  A    between atoms: C_8  and  N_9
REMARK    4  A    between atoms: N_9  and  C_10
REMARK    5  A    between atoms: C_10  and  N_12
REMARK    6  A    between atoms: C_13  and  C_15
REMARK    7  A    between atoms: C_15  and  C_16
REMARK    8  A    between atoms: C_15  and  C_22
REMARK                            x       y       z     vdW  Elec       q    Type
REMARK                         _______ _______ _______ _____ _____    ______ ____
ROOT
ATOM      1  N   UNL     1       4.836   6.208  16.995  0.00  0.00    +0.000 N 
ATOM      2  C   UNL     1       4.166   5.925  18.178  0.00  0.00    +0.000 C 
ATOM      3  O   UNL     1       4.782   5.623  19.208  0.00  0.00    +0.000 OA
ATOM      4  H   UNL     1       4.309   6.511  16.187  0.00  0.00    +0.000 HD
ENDROOT
BRANCH   1   5
ATOM      5  C   UNL     1       6.175   5.949  16.739  0.00  0.00    +0.000 C 
ATOM      6  S   UNL     1       7.316   6.967  17.427  0.00  0.00    +0.000 S 
BRANCH   5   7
ATOM      7  N   UNL     1       6.428   4.841  15.970  0.00  0.00    +0.000 N 
ATOM      8  H   UNL     1       6.307   3.949  16.455  0.00  0.00    +0.000 HD
BRANCH   7  13
ATOM      9  C   UNL     1       6.123   3.645  12.463  0.00  0.00    +0.000 A 
ATOM     10  C   UNL     1       7.177   4.337  11.857  0.00  0.00    +0.000 A 
ATOM     11  C   UNL     1       7.951   5.213  12.619  0.00  0.00    +0.000 A 
ATOM     12  C   UNL     1       7.686   5.376  13.983  0.00  0.00    +0.000 A 
ATOM     13  C   UNL     1       6.596   4.727  14.576  0.00  0.00    +0.000 A 
ATOM     14  C   UNL     1       5.806   3.877  13.807  0.00  0.00    +0.000 A 
BRANCH   9  16
ATOM     15  O   UNL     1       5.750   1.536  11.427  0.00  0.00    +0.000 OA
ATOM     16  C   UNL     1       5.317   2.631  11.740  0.00  0.00    +0.000 C 
BRANCH  16  17
ATOM     17  O   UNL     1       4.087   3.064  11.393  0.00  0.00    +0.000 OA
ATOM     18  H   UNL     1       4.063   3.649  10.613  0.00  0.00    +0.000 HD
ENDBRANCH  16  17
ENDBRANCH   9  16
ENDBRANCH   7  13
ENDBRANCH   5   7
ENDBRANCH   1   5
BRANCH   2  19
ATOM     19  C   UNL     1       2.624   6.020  18.138  0.00  0.00    +0.000 C 
BRANCH  19  20
ATOM     20  C   UNL     1       2.058   4.819  18.900  0.00  0.00    +0.000 A 
ATOM     21  C   UNL     1       2.103   4.781  20.306  0.00  0.00    +0.000 A 
ATOM     22  C   UNL     1       1.590   3.691  21.008  0.00  0.00    +0.000 A 
ATOM     23  C   UNL     1       1.019   2.627  20.318  0.00  0.00    +0.000 A 
ATOM     24  C   UNL     1       0.958   2.652  18.924  0.00  0.00    +0.000 A 
ATOM     25  C   UNL     1       1.473   3.742  18.216  0.00  0.00    +0.000 A 
ENDBRANCH  19  20
BRANCH  19  26
ATOM     26  C   UNL     1       2.100   7.385  18.629  0.00  0.00    +0.000 A 
ATOM     27  C   UNL     1       1.796   7.603  19.988  0.00  0.00    +0.000 A 
ATOM     28  C   UNL     1       1.356   8.849  20.444  0.00  0.00    +0.000 A 
ATOM     29  C   UNL     1       1.233   9.911  19.558  0.00  0.00    +0.000 A 
ATOM     30  C   UNL     1       1.535   9.725  18.213  0.00  0.00    +0.000 A 
ATOM     31  C   UNL     1       1.970   8.479  17.755  0.00  0.00    +0.000 A 
ENDBRANCH  19  26
ENDBRANCH   2  19
TORSDOF 8
ENDMDL
MODEL 4
REMARK VINA RESULT:      -9.1      0.922      3.563
REMARK  Name = 
REMARK  8 active torsions:
REMARK  status: ('A' for Active; 'I' for Inactive)
REMARK    1  A    between atoms: C_2  and  O_3
REMARK    2  A    between atoms: C_2  and  C_4
REMARK    3  A    between atoms: C_8  and  N_9
REMARK    4  A    between atoms: N_9  and  C_10
REMARK    5  A    between atoms: C_10  and  N_12
REMARK    6  A    between atoms: C_13  and  C_15
REMARK    7  A    between atoms: C_15  and  C_16
REMARK    8  A    between atoms: C_15  and  C_22
REMARK                            x       y       z     vdW  Elec       q    Type
REMARK                         _______ _______ _______ _____ _____    ______ ____
ROOT
ATOM      1  N   UNL     1       5.033   4.978  18.361  0.00  0.00    +0.000 N 
ATOM      2  C   UNL     1       4.180   6.074  18.327  0.00  0.00    +0.000 C 
ATOM      3  O   UNL     1       4.282   6.939  17.448  0.00  0.00    +0.000 OA
ATOM      4  H   UNL     1       4.886   4.257  19.055  0.00  0.00    +0.000 HD
ENDROOT
BRANCH   1   5
ATOM      5  C   UNL     1       6.207   4.841  17.635  0.00  0.00    +0.000 C 
ATOM      6  S   UNL     1       7.555   5.688  18.160  0.00  0.00    +0.000 S 
BRANCH   5   7
ATOM      7  N   UNL     1       6.150   3.976  16.571  0.00  0.00    +0.000 N 
ATOM      8  H   UNL     1       5.724   3.071  16.780  0.00  0.00    +0.000 HD
BRANCH   7  13
ATOM      9  C   UNL     1       6.004   3.669  12.869  0.00  0.00    +0.000 A 
ATOM     10  C   UNL     1       7.042   4.530  12.494  0.00  0.00    +0.000 A 
ATOM     11  C   UNL     1       7.751   5.220  13.477  0.00  0.00    +0.000 A 
ATOM     12  C   UNL     1       7.438   5.032  14.827  0.00  0.00    +0.000 A 
ATOM     13  C   UNL     1       6.363   4.215  15.200  0.00  0.00    +0.000 A 
ATOM     14  C   UNL     1       5.638   3.551  14.215  0.00  0.00    +0.000 A 
BRANCH   9  16
ATOM     15  O   UNL     1       4.193   3.152  11.417  0.00  0.00    +0.000 OA
ATOM     16  C   UNL     1       5.269   2.834  11.888  0.00  0.00    +0.000 C 
BRANCH  16  17
ATOM     17  O   UNL     1       5.868   1.651  11.629  0.00  0.00    +0.000 OA
ATOM     18  H   UNL     1       6.791   1.585  11.932  0.00  0.00    +0.000 HD
ENDBRANCH  16  17
ENDBRANCH   9  16
ENDBRANCH   7  13
ENDBRANCH   5   7
ENDBRANCH   1   5
BRANCH   2  19
ATOM     19  C   UNL     1       3.100   6.143  19.430  0.00  0.00    +0.000 C 
BRANCH  19  20
ATOM     20  C   UNL     1       2.308   7.439  19.236  0.00  0.00    +0.000 A 
ATOM     21  C   UNL     1       1.701   8.074  20.334  0.00  0.00    +0.000 A 
ATOM     22  C   UNL     1       0.978   9.255  20.165  0.00  0.00    +0.000 A 
ATOM     23  C   UNL     1       0.855   9.819  18.899  0.00  0.00    +0.000 A 
ATOM     24  C   UNL     1       1.458   9.206  17.801  0.00  0.00    +0.000 A 
ATOM     25  C   UNL     1       2.183   8.022  17.966  0.00  0.00    +0.000 A 
ENDBRANCH  19  20
BRANCH  19  26
ATOM     26  C   UNL     1       2.228   4.872  19.488  0.00  0.00    +0.000 A 
ATOM     27  C   UNL     1       1.765   4.251  18.310  0.00  0.00    +0.000 A 
ATOM     28  C   UNL     1       1.005   3.079  18.357  0.00  0.00    +0.000 A 
ATOM     29  C   UNL     1       0.711   2.486  19.578  0.00  0.00    +0.000 A 
ATOM     30  C   UNL     1       1.163   3.074  20.755  0.00  0.00    +0.000 A 
ATOM     31  C   UNL     1       1.919   4.249  20.711  0.00  0.00    +0.000 A 
ENDBRANCH  19  26
ENDBRANCH   2  19
TORSDOF 8
ENDMDL
MODEL 5
REMARK VINA RESULT:      -9.1      3.904      8.176
REMARK  Name = 
REMARK  8 active torsions:
REMARK  status: ('A' for Active; 'I' for Inactive)
REMARK    1  A    between atoms: C_2  and  O_3
REMARK    2  A    between atoms: C_2  and  C_4
REMARK    3  A    between atoms: C_8  and  N_9
REMARK    4  A    between atoms: N_9  and  C_10
REMARK    5  A    between atoms: C_10  and  N_12
REMARK    6  A    between atoms: C_13  and  C_15
REMARK    7  A    between atoms: C_15  and  C_16
REMARK    8  A    between atoms: C_15  and  C_22
REMARK                            x       y       z     vdW  Elec       q    Type
REMARK                         _______ _______ _______ _____ _____    ______ ____
ROOT
ATOM      1  N   UNL     1       1.782   7.557  19.664  0.00  0.00    +0.000 N 
ATOM      2  C   UNL     1       2.577   7.407  18.535  0.00  0.00    +0.000 C 
ATOM      3  O   UNL     1       3.081   8.387  17.972  0.00  0.00    +0.000 OA
ATOM      4  H   UNL     1       1.433   6.734  20.137  0.00  0.00    +0.000 HD
ENDROOT
BRANCH   1   5
ATOM      5  C   UNL     1       1.252   8.751  20.131  0.00  0.00    +0.000 C 
ATOM      6  S   UNL     1       1.155   8.968  21.791  0.00  0.00    +0.000 S 
BRANCH   5   7
ATOM      7  N   UNL     1       0.897   9.661  19.167  0.00  0.00    +0.000 N 
ATOM      8  H   UNL     1       1.605   9.814  18.445  0.00  0.00    +0.000 HD
BRANCH   7  13
ATOM      9  C   UNL     1      -2.160  10.742  17.350  0.00  0.00    +0.000 A 
ATOM     10  C   UNL     1      -2.712  11.636  18.274  0.00  0.00    +0.000 A 
ATOM     11  C   UNL     1      -2.074  11.840  19.498  0.00  0.00    +0.000 A 
ATOM     12  C   UNL     1      -0.879  11.170  19.783  0.00  0.00    +0.000 A 
ATOM     13  C   UNL     1      -0.357  10.234  18.883  0.00  0.00    +0.000 A 
ATOM     14  C   UNL     1      -1.012  10.010  17.675  0.00  0.00    +0.000 A 
BRANCH   9  16
ATOM     15  O   UNL     1      -2.728   9.471  15.421  0.00  0.00    +0.000 OA
ATOM     16  C   UNL     1      -2.730  10.545  15.995  0.00  0.00    +0.000 C 
BRANCH  16  17
ATOM     17  O   UNL     1      -3.180  11.684  15.426  0.00  0.00    +0.000 OA
ATOM     18  H   UNL     1      -4.149  11.789  15.430  0.00  0.00    +0.000 HD
ENDBRANCH  16  17
ENDBRANCH   9  16
ENDBRANCH   7  13
ENDBRANCH   5   7
ENDBRANCH   1   5
BRANCH   2  19
ATOM     19  C   UNL     1       2.803   5.963  18.036  0.00  0.00    +0.000 C 
BRANCH  19  20
ATOM     20  C   UNL     1       4.301   5.781  17.778  0.00  0.00    +0.000 A 
ATOM     21  C   UNL     1       4.808   5.817  16.467  0.00  0.00    +0.000 A 
ATOM     22  C   UNL     1       6.172   5.652  16.223  0.00  0.00    +0.000 A 
ATOM     23  C   UNL     1       7.048   5.455  17.286  0.00  0.00    +0.000 A 
ATOM     24  C   UNL     1       6.562   5.426  18.593  0.00  0.00    +0.000 A 
ATOM     25  C   UNL     1       5.196   5.589  18.841  0.00  0.00    +0.000 A 
ENDBRANCH  19  20
BRANCH  19  26
ATOM     26  C   UNL     1       2.191   4.906  18.978  0.00  0.00    +0.000 A 
ATOM     27  C   UNL     1       1.445   3.822  18.472  0.00  0.00    +0.000 A 
ATOM     28  C   UNL     1       0.920   2.843  19.319  0.00  0.00    +0.000 A 
ATOM     29  C   UNL     1       1.148   2.909  20.688  0.00  0.00    +0.000 A 
ATOM     30  C   UNL     1       1.887   3.964  21.212  0.00  0.00    +0.000 A 
ATOM     31  C   UNL     1       2.409   4.948  20.367  0.00  0.00    +0.000 A 
ENDBRANCH  19  26
ENDBRANCH   2  19
TORSDOF 8
ENDMDL
MODEL 6
REMARK VINA RESULT:      -9.0      0.957      3.746
REMARK  Name = 
REMARK  8 active torsions:
REMARK  status: ('A' for Active; 'I' for Inactive)
REMARK    1  A    between atoms: C_2  and  O_3
REMARK    2  A    between atoms: C_2  and  C_4
REMARK    3  A    between atoms: C_8  and  N_9
REMARK    4  A    between atoms: N_9  and  C_10
REMARK    5  A    between atoms: C_10  and  N_12
REMARK    6  A    between atoms: C_13  and  C_15
REMARK    7  A    between atoms: C_15  and  C_16
REMARK    8  A    between atoms: C_15  and  C_22
REMARK                            x       y       z     vdW  Elec       q    Type
REMARK                         _______ _______ _______ _____ _____    ______ ____
ROOT
ATOM      1  N   UNL     1       5.048   4.878  18.389  0.00  0.00    +0.000 N 
ATOM      2  C   UNL     1       4.221   5.993  18.361  0.00  0.00    +0.000 C 
ATOM      3  O   UNL     1       4.333   6.853  17.478  0.00  0.00    +0.000 OA
ATOM      4  H   UNL     1       4.893   4.163  19.087  0.00  0.00    +0.000 HD
ENDROOT
BRANCH   1   5
ATOM      5  C   UNL     1       6.211   4.712  17.651  0.00  0.00    +0.000 C 
ATOM      6  S   UNL     1       7.599   5.481  18.193  0.00  0.00    +0.000 S 
BRANCH   5   7
ATOM      7  N   UNL     1       6.110   3.884  16.560  0.00  0.00    +0.000 N 
ATOM      8  H   UNL     1       5.641   2.994  16.744  0.00  0.00    +0.000 HD
BRANCH   7  13
ATOM      9  C   UNL     1       5.995   3.656  12.852  0.00  0.00    +0.000 A 
ATOM     10  C   UNL     1       7.024   4.537  12.503  0.00  0.00    +0.000 A 
ATOM     11  C   UNL     1       7.717   5.215  13.506  0.00  0.00    +0.000 A 
ATOM     12  C   UNL     1       7.396   4.994  14.850  0.00  0.00    +0.000 A 
ATOM     13  C   UNL     1       6.330   4.155  15.197  0.00  0.00    +0.000 A 
ATOM     14  C   UNL     1       5.620   3.503  14.192  0.00  0.00    +0.000 A 
BRANCH   9  16
ATOM     15  O   UNL     1       4.211   3.157  11.359  0.00  0.00    +0.000 OA
ATOM     16  C   UNL     1       5.278   2.832  11.848  0.00  0.00    +0.000 C 
BRANCH  16  17
ATOM     17  O   UNL     1       5.880   1.652  11.586  0.00  0.00    +0.000 OA
ATOM     18  H   UNL     1       6.852   1.694  11.517  0.00  0.00    +0.000 HD
ENDBRANCH  16  17
ENDBRANCH   9  16
ENDBRANCH   7  13
ENDBRANCH   5   7
ENDBRANCH   1   5
BRANCH   2  19
ATOM     19  C   UNL     1       3.155   6.090  19.476  0.00  0.00    +0.000 C 
BRANCH  19  20
ATOM     20  C   UNL     1       2.357   7.378  19.254  0.00  0.00    +0.000 A 
ATOM     21  C   UNL     1       2.233   7.926  17.965  0.00  0.00    +0.000 A 
ATOM     22  C   UNL     1       1.507   9.099  17.755  0.00  0.00    +0.000 A 
ATOM     23  C   UNL     1       0.891   9.736  18.827  0.00  0.00    +0.000 A 
ATOM     24  C   UNL     1       0.997   9.200  20.110  0.00  0.00    +0.000 A 
ATOM     25  C   UNL     1       1.725   8.026  20.326  0.00  0.00    +0.000 A 
ENDBRANCH  19  20
BRANCH  19  26
ATOM     26  C   UNL     1       2.288   4.819  19.581  0.00  0.00    +0.000 A 
ATOM     27  C   UNL     1       1.970   4.254  20.832  0.00  0.00    +0.000 A 
ATOM     28  C   UNL     1       1.154   3.124  20.934  0.00  0.00    +0.000 A 
ATOM     29  C   UNL     1       0.618   2.546  19.791  0.00  0.00    +0.000 A 
ATOM     30  C   UNL     1       0.910   3.088  18.543  0.00  0.00    +0.000 A 
ATOM     31  C   UNL     1       1.730   4.215  18.439  0.00  0.00    +0.000 A 
ENDBRANCH  19  26
ENDBRANCH   2  19
TORSDOF 8
ENDMDL
MODEL 7
REMARK VINA RESULT:      -8.9      4.241      8.571
REMARK  Name = 
REMARK  8 active torsions:
REMARK  status: ('A' for Active; 'I' for Inactive)
REMARK    1  A    between atoms: C_2  and  O_3
REMARK    2  A    between atoms: C_2  and  C_4
REMARK    3  A    between atoms: C_8  and  N_9
REMARK    4  A    between atoms: N_9  and  C_10
REMARK    5  A    between atoms: C_10  and  N_12
REMARK    6  A    between atoms: C_13  and  C_15
REMARK    7  A    between atoms: C_15  and  C_16
REMARK    8  A    between atoms: C_15  and  C_22
REMARK                            x       y       z     vdW  Elec       q    Type
REMARK                         _______ _______ _______ _____ _____    ______ ____
ROOT
ATOM      1  N   UNL     1       2.010   8.235  17.898  0.00  0.00    +0.000 N 
ATOM      2  C   UNL     1       2.558   7.202  18.646  0.00  0.00    +0.000 C 
ATOM      3  O   UNL     1       2.530   7.220  19.883  0.00  0.00    +0.000 OA
ATOM      4  H   UNL     1       1.994   8.163  16.889  0.00  0.00    +0.000 HD
ENDROOT
BRANCH   1   5
ATOM      5  C   UNL     1       1.623   9.474  18.387  0.00  0.00    +0.000 C 
ATOM      6  S   UNL     1       2.457  10.824  17.848  0.00  0.00    +0.000 S 
BRANCH   5   7
ATOM      7  N   UNL     1       0.549   9.466  19.243  0.00  0.00    +0.000 N 
ATOM      8  H   UNL     1       0.692   8.928  20.100  0.00  0.00    +0.000 HD
BRANCH   7  13
ATOM      9  C   UNL     1      -2.508  11.249  18.105  0.00  0.00    +0.000 A 
ATOM     10  C   UNL     1      -2.749  12.083  19.203  0.00  0.00    +0.000 A 
ATOM     11  C   UNL     1      -1.908  12.016  20.314  0.00  0.00    +0.000 A 
ATOM     12  C   UNL     1      -0.820  11.136  20.316  0.00  0.00    +0.000 A 
ATOM     13  C   UNL     1      -0.613  10.261  19.242  0.00  0.00    +0.000 A 
ATOM     14  C   UNL     1      -1.472  10.309  18.147  0.00  0.00    +0.000 A 
BRANCH   9  16
ATOM     15  O   UNL     1      -4.519  11.280  16.834  0.00  0.00    +0.000 OA
ATOM     16  C   UNL     1      -3.302  11.330  16.855  0.00  0.00    +0.000 C 
BRANCH  16  17
ATOM     17  O   UNL     1      -2.547  11.385  15.737  0.00  0.00    +0.000 OA
ATOM     18  H   UNL     1      -2.885  10.860  14.988  0.00  0.00    +0.000 HD
ENDBRANCH  16  17
ENDBRANCH   9  16
ENDBRANCH   7  13
ENDBRANCH   5   7
ENDBRANCH   1   5
BRANCH   2  19
ATOM     19  C   UNL     1       3.188   6.035  17.854  0.00  0.00    +0.000 C 
BRANCH  19  20
ATOM     20  C   UNL     1       4.707   6.101  18.041  0.00  0.00    +0.000 A 
ATOM     21  C   UNL     1       5.497   6.884  17.179  0.00  0.00    +0.000 A 
ATOM     22  C   UNL     1       6.880   6.950  17.343  0.00  0.00    +0.000 A 
ATOM     23  C   UNL     1       7.493   6.241  18.371  0.00  0.00    +0.000 A 
ATOM     24  C   UNL     1       6.723   5.467  19.239  0.00  0.00    +0.000 A 
ATOM     25  C   UNL     1       5.336   5.397  19.078  0.00  0.00    +0.000 A 
ENDBRANCH  19  20
BRANCH  19  26
ATOM     26  C   UNL     1       2.567   4.669  18.213  0.00  0.00    +0.000 A 
ATOM     27  C   UNL     1       1.656   4.541  19.281  0.00  0.00    +0.000 A 
ATOM     28  C   UNL     1       1.063   3.313  19.588  0.00  0.00    +0.000 A 
ATOM     29  C   UNL     1       1.346   2.191  18.820  0.00  0.00    +0.000 A 
ATOM     30  C   UNL     1       2.236   2.292  17.755  0.00  0.00    +0.000 A 
ATOM     31  C   UNL     1       2.834   3.518  17.451  0.00  0.00    +0.000 A 
ENDBRANCH  19  26
ENDBRANCH   2  19
TORSDOF 8
ENDMDL
MODEL 8
REMARK VINA RESULT:      -8.9      4.187      7.844
REMARK  Name = 
REMARK  8 active torsions:
REMARK  status: ('A' for Active; 'I' for Inactive)
REMARK    1  A    between atoms: C_2  and  O_3
REMARK    2  A    between atoms: C_2  and  C_4
REMARK    3  A    between atoms: C_8  and  N_9
REMARK    4  A    between atoms: N_9  and  C_10
REMARK    5  A    between atoms: C_10  and  N_12
REMARK    6  A    between atoms: C_13  and  C_15
REMARK    7  A    between atoms: C_15  and  C_16
REMARK    8  A    between atoms: C_15  and  C_22
REMARK                            x       y       z     vdW  Elec       q    Type
REMARK                         _______ _______ _______ _____ _____    ______ ____
ROOT
ATOM      1  N   UNL     1       2.143   7.671  20.448  0.00  0.00    +0.000 N 
ATOM      2  C   UNL     1       2.518   6.963  19.315  0.00  0.00    +0.000 C 
ATOM      3  O   UNL     1       2.155   7.320  18.187  0.00  0.00    +0.000 OA
ATOM      4  H   UNL     1       2.505   7.390  21.351  0.00  0.00    +0.000 HD
ENDROOT
BRANCH   1   5
ATOM      5  C   UNL     1       1.159   8.647  20.508  0.00  0.00    +0.000 C 
ATOM      6  S   UNL     1       0.005   8.523  21.718  0.00  0.00    +0.000 S 
BRANCH   5   7
ATOM      7  N   UNL     1       1.263   9.653  19.579  0.00  0.00    +0.000 N 
ATOM      8  H   UNL     1       2.109   9.617  19.006  0.00  0.00    +0.000 HD
BRANCH   7  13
ATOM      9  C   UNL     1      -1.609  11.154  17.758  0.00  0.00    +0.000 A 
ATOM     10  C   UNL     1      -1.423  12.510  18.048  0.00  0.00    +0.000 A 
ATOM     11  C   UNL     1      -0.364  12.898  18.869  0.00  0.00    +0.000 A 
ATOM     12  C   UNL     1       0.516  11.936  19.376  0.00  0.00    +0.000 A 
ATOM     13  C   UNL     1       0.297  10.575  19.133  0.00  0.00    +0.000 A 
ATOM     14  C   UNL     1      -0.778  10.188  18.339  0.00  0.00    +0.000 A 
BRANCH   9  16
ATOM     15  O   UNL     1      -3.253   9.626  16.969  0.00  0.00    +0.000 OA
ATOM     16  C   UNL     1      -2.655  10.677  16.821  0.00  0.00    +0.000 C 
BRANCH  16  17
ATOM     17  O   UNL     1      -2.824  11.477  15.746  0.00  0.00    +0.000 OA
ATOM     18  H   UNL     1      -3.375  11.099  15.037  0.00  0.00    +0.000 HD
ENDBRANCH  16  17
ENDBRANCH   9  16
ENDBRANCH   7  13
ENDBRANCH   5   7
ENDBRANCH   1   5
BRANCH   2  19
ATOM     19  C   UNL     1       3.415   5.725  19.538  0.00  0.00    +0.000 C 
BRANCH  19  20
ATOM     20  C   UNL     1       2.575   4.476  19.258  0.00  0.00    +0.000 A 
ATOM     21  C   UNL     1       2.874   3.648  18.161  0.00  0.00    +0.000 A 
ATOM     22  C   UNL     1       2.114   2.508  17.898  0.00  0.00    +0.000 A 
ATOM     23  C   UNL     1       1.048   2.178  18.729  0.00  0.00    +0.000 A 
ATOM     24  C   UNL     1       0.743   2.984  19.826  0.00  0.00    +0.000 A 
ATOM     25  C   UNL     1       1.502   4.128  20.092  0.00  0.00    +0.000 A 
ENDBRANCH  19  20
BRANCH  19  26
ATOM     26  C   UNL     1       4.732   5.794  18.738  0.00  0.00    +0.000 A 
ATOM     27  C   UNL     1       4.791   6.436  17.484  0.00  0.00    +0.000 A 
ATOM     28  C   UNL     1       5.990   6.532  16.772  0.00  0.00    +0.000 A 
ATOM     29  C   UNL     1       7.161   6.011  17.306  0.00  0.00    +0.000 A 
ATOM     30  C   UNL     1       7.133   5.380  18.545  0.00  0.00    +0.000 A 
ATOM     31  C   UNL     1       5.933   5.278  19.256  0.00  0.00    +0.000 A 
ENDBRANCH  19  26
ENDBRANCH   2  19
TORSDOF 8
ENDMDL
MODEL 9
REMARK VINA RESULT:      -8.9      4.004      7.903
REMARK  Name = 
REMARK  8 active torsions:
REMARK  status: ('A' for Active; 'I' for Inactive)
REMARK    1  A    between atoms: C_2  and  O_3
REMARK    2  A    between atoms: C_2  and  C_4
REMARK    3  A    between atoms: C_8  and  N_9
REMARK    4  A    between atoms: N_9  and  C_10
REMARK    5  A    between atoms: C_10  and  N_12
REMARK    6  A    between atoms: C_13  and  C_15
REMARK    7  A    between atoms: C_15  and  C_16
REMARK    8  A    between atoms: C_15  and  C_22
REMARK                            x       y       z     vdW  Elec       q    Type
REMARK                         _______ _______ _______ _____ _____    ______ ____
ROOT
ATOM      1  N   UNL     1       1.999   7.860  20.370  0.00  0.00    +0.000 N 
ATOM      2  C   UNL     1       2.314   7.177  19.203  0.00  0.00    +0.000 C 
ATOM      3  O   UNL     1       1.823   7.505  18.115  0.00  0.00    +0.000 OA
ATOM      4  H   UNL     1       2.462   7.607  21.233  0.00  0.00    +0.000 HD
ENDROOT
BRANCH   1   5
ATOM      5  C   UNL     1       0.959   8.765  20.525  0.00  0.00    +0.000 C 
ATOM      6  S   UNL     1      -0.040   8.590  21.859  0.00  0.00    +0.000 S 
BRANCH   5   7
ATOM      7  N   UNL     1       0.886   9.754  19.575  0.00  0.00    +0.000 N 
ATOM      8  H   UNL     1       1.715   9.837  18.982  0.00  0.00    +0.000 HD
BRANCH   7  13
ATOM      9  C   UNL     1      -1.926  11.006  17.490  0.00  0.00    +0.000 A 
ATOM     10  C   UNL     1      -2.232  12.200  18.153  0.00  0.00    +0.000 A 
ATOM     11  C   UNL     1      -1.518  12.552  19.299  0.00  0.00    +0.000 A 
ATOM     12  C   UNL     1      -0.490  11.725  19.763  0.00  0.00    +0.000 A 
ATOM     13  C   UNL     1      -0.222  10.503  19.134  0.00  0.00    +0.000 A 
ATOM     14  C   UNL     1      -0.956  10.140  18.008  0.00  0.00    +0.000 A 
BRANCH   9  16
ATOM     15  O   UNL     1      -2.567   9.473  15.788  0.00  0.00    +0.000 OA
ATOM     16  C   UNL     1      -2.578  10.612  16.217  0.00  0.00    +0.000 C 
BRANCH  16  17
ATOM     17  O   UNL     1      -3.115  11.651  15.541  0.00  0.00    +0.000 OA
ATOM     18  H   UNL     1      -3.589  11.407  14.725  0.00  0.00    +0.000 HD
ENDBRANCH  16  17
ENDBRANCH   9  16
ENDBRANCH   7  13
ENDBRANCH   5   7
ENDBRANCH   1   5
BRANCH   2  19
ATOM     19  C   UNL     1       3.312   6.005  19.337  0.00  0.00    +0.000 C 
BRANCH  19  20
ATOM     20  C   UNL     1       2.547   4.793  19.877  0.00  0.00    +0.000 A 
ATOM     21  C   UNL     1       2.899   4.222  21.113  0.00  0.00    +0.000 A 
ATOM     22  C   UNL     1       2.208   3.118  21.613  0.00  0.00    +0.000 A 
ATOM     23  C   UNL     1       1.154   2.572  20.887  0.00  0.00    +0.000 A 
ATOM     24  C   UNL     1       0.787   3.132  19.663  0.00  0.00    +0.000 A 
ATOM     25  C   UNL     1       1.478   4.237  19.158  0.00  0.00    +0.000 A 
ENDBRANCH  19  20
BRANCH  19  26
ATOM     26  C   UNL     1       4.086   5.732  18.031  0.00  0.00    +0.000 A 
ATOM     27  C   UNL     1       4.205   4.427  17.512  0.00  0.00    +0.000 A 
ATOM     28  C   UNL     1       4.875   4.180  16.310  0.00  0.00    +0.000 A 
ATOM     29  C   UNL     1       5.419   5.234  15.586  0.00  0.00    +0.000 A 
ATOM     30  C   UNL     1       5.308   6.533  16.072  0.00  0.00    +0.000 A 
ATOM     31  C   UNL     1       4.644   6.780  17.276  0.00  0.00    +0.000 A 
ENDBRANCH  19  26
ENDBRANCH   2  19
TORSDOF 8
ENDMDL
