MODEL 1
REMARK VINA RESULT:      -8.4      0.000      0.000
REMARK  Name = 
REMARK  7 active torsions:
REMARK  status: ('A' for Active; 'I' for Inactive)
REMARK    1  A    between atoms: C_2  and  C_21
REMARK    2  A    between atoms: N_3  and  C_4
REMARK    3  A    between atoms: C_4  and  C_5
REMARK    4  A    between atoms: C_4  and  C_11
REMARK    5  A    between atoms: C_5  and  N_6
REMARK    6  A    between atoms: N_13  and  C_14
REMARK    7  A    between atoms: C_14  and  C_15
REMARK                            x       y       z     vdW  Elec       q    Type
REMARK                         _______ _______ _______ _____ _____    ______ ____
ROOT
ATOM      1  C   UNL     1       4.484   4.873  19.120  0.00  0.00    +0.000 C 
ENDROOT
BRANCH   1   4
ATOM      2  O   UNL     1       2.530   6.011  20.795  0.00  0.00    +0.000 OA
ATOM      3  C   UNL     1       2.760   6.576  19.729  0.00  0.00    +0.000 C 
ATOM      4  N   UNL     1       3.708   6.096  18.857  0.00  0.00    +0.000 N 
ATOM      5  H   UNL     1       4.007   6.658  18.062  0.00  0.00    +0.000 HD
BRANCH   3   6
ATOM      6  C   UNL     1       2.040   7.842  19.388  0.00  0.00    +0.000 A 
ATOM      7  C   UNL     1       2.206   8.256  18.052  0.00  0.00    +0.000 A 
ATOM      8  C   UNL     1       1.582   9.400  17.573  0.00  0.00    +0.000 A 
ATOM      9  C   UNL     1       0.766  10.139  18.421  0.00  0.00    +0.000 A 
ATOM     10  C   UNL     1       0.597   9.772  19.764  0.00  0.00    +0.000 A 
ATOM     11  C   UNL     1      -0.221  10.567  20.583  0.00  0.00    +0.000 A 
ATOM     12  C   UNL     1      -0.377  10.282  21.935  0.00  0.00    +0.000 A 
ATOM     13  C   UNL     1       0.304   9.210  22.489  0.00  0.00    +0.000 A 
ATOM     14  C   UNL     1       1.118   8.403  21.684  0.00  0.00    +0.000 A 
ATOM     15  C   UNL     1       1.262   8.629  20.290  0.00  0.00    +0.000 A 
ENDBRANCH   3   6
ENDBRANCH   1   4
BRANCH   1  16
ATOM     16  C   UNL     1       5.837   4.993  18.378  0.00  0.00    +0.000 C 
ATOM     17  O   UNL     1       6.910   4.889  18.976  0.00  0.00    +0.000 OA
ATOM     18  N   UNL     1       5.770   5.212  17.016  0.00  0.00    +0.000 N 
ATOM     19  H   UNL     1       4.913   5.022  16.514  0.00  0.00    +0.000 HD
BRANCH  18  20
ATOM     20  C   UNL     1       6.975   5.406  16.234  0.00  0.00    +0.000 C 
BRANCH  20  21
ATOM     21  C   UNL     1       6.817   4.873  14.833  0.00  0.00    +0.000 A 
ATOM     22  C   UNL     1       7.671   5.298  13.809  0.00  0.00    +0.000 A 
ATOM     23  C   UNL     1       7.499   4.781  12.534  0.00  0.00    +0.000 A 
ATOM     24  N   UNL     1       6.547   3.881  12.214  0.00  0.00    +0.000 NA
ATOM     25  C   UNL     1       5.732   3.481  13.212  0.00  0.00    +0.000 A 
ATOM     26  C   UNL     1       5.821   3.945  14.516  0.00  0.00    +0.000 A 
ENDBRANCH  20  21
ENDBRANCH  18  20
ENDBRANCH   1  16
BRANCH   1  27
ATOM     27  C   UNL     1       3.751   3.572  18.737  0.00  0.00    +0.000 C 
BRANCH  27  28
ATOM     28  N   UNL     1       2.856   3.091  19.770  0.00  0.00    +0.000 N 
ATOM     29  C   UNL     1       1.498   2.983  19.672  0.00  0.00    +0.000 A 
ATOM     30  C   UNL     1       1.084   2.589  20.922  0.00  0.00    +0.000 A 
ATOM     31  N   UNL     1       2.159   2.393  21.748  0.00  0.00    +0.000 NA
ATOM     32  C   UNL     1       3.216   2.672  21.018  0.00  0.00    +0.000 A 
ENDBRANCH  27  28
ENDBRANCH   1  27
TORSDOF 7
ENDMDL
MODEL 2
REMARK VINA RESULT:      -8.3      4.083      7.052
REMARK  Name = 
REMARK  7 active torsions:
REMARK  status: ('A' for Active; 'I' for Inactive)
REMARK    1  A    between atoms: C_2  and  C_21
REMARK    2  A    between atoms: N_3  and  C_4
REMARK    3  A    between atoms: C_4  and  C_5
REMARK    4  A    between atoms: C_4  and  C_11
REMARK    5  A    between atoms: C_5  and  N_6
REMARK    6  A    between atoms: N_13  and  C_14
REMARK    7  A    between atoms: C_14  and  C_15
REMARK                            x       y       z     vdW  Elec       q    Type
REMARK                         _______ _______ _______ _____ _____    ______ ____
ROOT
ATOM      1  C   UNL     1       0.967  10.001  19.469  0.00  0.00    +0.000 C 
ENDROOT
BRANCH   1   4
ATOM      2  O   UNL     1      -0.151  12.294  18.281  0.00  0.00    +0.000 OA
ATOM      3  C   UNL     1      -0.874  11.307  18.397  0.00  0.00    +0.000 C 
ATOM      4  N   UNL     1      -0.405  10.141  18.953  0.00  0.00    +0.000 N 
ATOM      5  H   UNL     1      -0.954   9.286  18.893  0.00  0.00    +0.000 HD
BRANCH   3   6
ATOM      6  C   UNL     1      -2.275  11.347  17.876  0.00  0.00    +0.000 A 
ATOM      7  C   UNL     1      -2.409  10.894  16.549  0.00  0.00    +0.000 A 
ATOM      8  C   UNL     1      -3.651  10.847  15.930  0.00  0.00    +0.000 A 
ATOM      9  C   UNL     1      -4.782  11.238  16.635  0.00  0.00    +0.000 A 
ATOM     10  C   UNL     1      -4.685  11.720  17.949  0.00  0.00    +0.000 A 
ATOM     11  C   UNL     1      -5.857  12.123  18.609  0.00  0.00    +0.000 A 
ATOM     12  C   UNL     1      -5.811  12.661  19.890  0.00  0.00    +0.000 A 
ATOM     13  C   UNL     1      -4.586  12.824  20.517  0.00  0.00    +0.000 A 
ATOM     14  C   UNL     1      -3.409  12.421  19.877  0.00  0.00    +0.000 A 
ATOM     15  C   UNL     1      -3.417  11.819  18.590  0.00  0.00    +0.000 A 
ENDBRANCH   3   6
ENDBRANCH   1   4
BRANCH   1  16
ATOM     16  C   UNL     1       1.689   8.920  18.627  0.00  0.00    +0.000 C 
ATOM     17  O   UNL     1       1.834   9.045  17.410  0.00  0.00    +0.000 OA
ATOM     18  N   UNL     1       2.165   7.824  19.318  0.00  0.00    +0.000 N 
ATOM     19  H   UNL     1       2.279   7.868  20.322  0.00  0.00    +0.000 HD
BRANCH  18  20
ATOM     20  C   UNL     1       2.797   6.722  18.620  0.00  0.00    +0.000 C 
BRANCH  20  21
ATOM     21  C   UNL     1       2.146   5.406  18.958  0.00  0.00    +0.000 A 
ATOM     22  C   UNL     1       1.794   5.103  20.279  0.00  0.00    +0.000 A 
ATOM     23  C   UNL     1       1.191   3.885  20.549  0.00  0.00    +0.000 A 
ATOM     24  N   UNL     1       0.918   2.960  19.608  0.00  0.00    +0.000 NA
ATOM     25  C   UNL     1       1.262   3.266  18.340  0.00  0.00    +0.000 A 
ATOM     26  C   UNL     1       1.874   4.454  17.971  0.00  0.00    +0.000 A 
ENDBRANCH  20  21
ENDBRANCH  18  20
ENDBRANCH   1  16
BRANCH   1  27
ATOM     27  C   UNL     1       1.040   9.676  20.973  0.00  0.00    +0.000 C 
BRANCH  27  28
ATOM     28  N   UNL     1       0.147  10.485  21.779  0.00  0.00    +0.000 N 
ATOM     29  C   UNL     1      -0.023  11.837  21.682  0.00  0.00    +0.000 A 
ATOM     30  C   UNL     1      -0.877  12.160  22.710  0.00  0.00    +0.000 A 
ATOM     31  N   UNL     1      -1.276  11.034  23.380  0.00  0.00    +0.000 NA
ATOM     32  C   UNL     1      -0.668  10.036  22.777  0.00  0.00    +0.000 A 
ENDBRANCH  27  28
ENDBRANCH   1  27
TORSDOF 7
ENDMDL
MODEL 3
REMARK VINA RESULT:      -8.3      3.807      6.481
REMARK  Name = 
REMARK  7 active torsions:
REMARK  status: ('A' for Active; 'I' for Inactive)
REMARK    1  A    between atoms: C_2  and  C_21
REMARK    2  A    between atoms: N_3  and  C_4
REMARK    3  A    between atoms: C_4  and  C_5
REMARK    4  A    between atoms: C_4  and  C_11
REMARK    5  A    between atoms: C_5  and  N_6
REMARK    6  A    between atoms: N_13  and  C_14
REMARK    7  A    between atoms: C_14  and  C_15
REMARK                            x       y       z     vdW  Elec       q    Type
REMARK                         _______ _______ _______ _____ _____    ______ ____
ROOT
ATOM      1  C   UNL     1       1.174   9.463  19.340  0.00  0.00    +0.000 C 
ENDROOT
BRANCH   1   4
ATOM      2  O   UNL     1       0.071  11.913  18.504  0.00  0.00    +0.000 OA
ATOM      3  C   UNL     1      -0.632  10.912  18.400  0.00  0.00    +0.000 C 
ATOM      4  N   UNL     1      -0.168   9.672  18.772  0.00  0.00    +0.000 N 
ATOM      5  H   UNL     1      -0.692   8.834  18.528  0.00  0.00    +0.000 HD
BRANCH   3   6
ATOM      6  C   UNL     1      -2.001  11.023  17.807  0.00  0.00    +0.000 A 
ATOM      7  C   UNL     1      -2.105  10.510  16.500  0.00  0.00    +0.000 A 
ATOM      8  C   UNL     1      -3.316  10.518  15.821  0.00  0.00    +0.000 A 
ATOM      9  C   UNL     1      -4.448  11.026  16.447  0.00  0.00    +0.000 A 
ATOM     10  C   UNL     1      -4.377  11.569  17.739  0.00  0.00    +0.000 A 
ATOM     11  C   UNL     1      -5.546  12.090  18.317  0.00  0.00    +0.000 A 
ATOM     12  C   UNL     1      -5.522  12.691  19.570  0.00  0.00    +0.000 A 
ATOM     13  C   UNL     1      -4.319  12.801  20.250  0.00  0.00    +0.000 A 
ATOM     14  C   UNL     1      -3.145  12.281  19.691  0.00  0.00    +0.000 A 
ATOM     15  C   UNL     1      -3.138  11.612  18.438  0.00  0.00    +0.000 A 
ENDBRANCH   3   6
ENDBRANCH   1   4
BRANCH   1  16
ATOM     16  C   UNL     1       1.969   8.555  18.371  0.00  0.00    +0.000 C 
ATOM     17  O   UNL     1       2.198   8.899  17.210  0.00  0.00    +0.000 OA
ATOM     18  N   UNL     1       2.413   7.353  18.885  0.00  0.00    +0.000 N 
ATOM     19  H   UNL     1       2.456   7.214  19.886  0.00  0.00    +0.000 HD
BRANCH  18  20
ATOM     20  C   UNL     1       3.110   6.397  18.047  0.00  0.00    +0.000 C 
BRANCH  20  21
ATOM     21  C   UNL     1       2.789   4.978  18.440  0.00  0.00    +0.000 A 
ATOM     22  C   UNL     1       1.578   4.390  18.058  0.00  0.00    +0.000 A 
ATOM     23  C   UNL     1       1.322   3.080  18.433  0.00  0.00    +0.000 A 
ATOM     24  N   UNL     1       2.176   2.327  19.153  0.00  0.00    +0.000 NA
ATOM     25  C   UNL     1       3.340   2.908  19.514  0.00  0.00    +0.000 A 
ATOM     26  C   UNL     1       3.685   4.212  19.192  0.00  0.00    +0.000 A 
ENDBRANCH  20  21
ENDBRANCH  18  20
ENDBRANCH   1  16
BRANCH   1  27
ATOM     27  C   UNL     1       1.165   8.883  20.768  0.00  0.00    +0.000 C 
BRANCH  27  28
ATOM     28  N   UNL     1       0.420   9.691  21.712  0.00  0.00    +0.000 N 
ATOM     29  C   UNL     1      -0.503   9.235  22.611  0.00  0.00    +0.000 A 
ATOM     30  C   UNL     1      -1.010  10.367  23.202  0.00  0.00    +0.000 A 
ATOM     31  N   UNL     1      -0.373  11.485  22.732  0.00  0.00    +0.000 NA
ATOM     32  C   UNL     1       0.506  11.045  21.859  0.00  0.00    +0.000 A 
ENDBRANCH  27  28
ENDBRANCH   1  27
TORSDOF 7
ENDMDL
MODEL 4
REMARK VINA RESULT:      -8.2      1.423      1.564
REMARK  Name = 
REMARK  7 active torsions:
REMARK  status: ('A' for Active; 'I' for Inactive)
REMARK    1  A    between atoms: C_2  and  C_21
REMARK    2  A    between atoms: N_3  and  C_4
REMARK    3  A    between atoms: C_4  and  C_5
REMARK    4  A    between atoms: C_4  and  C_11
REMARK    5  A    between atoms: C_5  and  N_6
REMARK    6  A    between atoms: N_13  and  C_14
REMARK    7  A    between atoms: C_14  and  C_15
REMARK                            x       y       z     vdW  Elec       q    Type
REMARK                         _______ _______ _______ _____ _____    ______ ____
ROOT
ATOM      1  C   UNL     1       4.022   5.826  18.157  0.00  0.00    +0.000 C 
ENDROOT
BRANCH   1   4
ATOM      2  O   UNL     1       2.205   6.447  20.214  0.00  0.00    +0.000 OA
ATOM      3  C   UNL     1       2.309   7.249  19.291  0.00  0.00    +0.000 C 
ATOM      4  N   UNL     1       3.182   7.032  18.251  0.00  0.00    +0.000 N 
ATOM      5  H   UNL     1       3.380   7.773  17.583  0.00  0.00    +0.000 HD
BRANCH   3   6
ATOM      6  C   UNL     1       1.515   8.516  19.314  0.00  0.00    +0.000 A 
ATOM      7  C   UNL     1       1.398   9.145  18.059  0.00  0.00    +0.000 A 
ATOM      8  C   UNL     1       0.672  10.318  17.910  0.00  0.00    +0.000 A 
ATOM      9  C   UNL     1       0.035  10.873  19.013  0.00  0.00    +0.000 A 
ATOM     10  C   UNL     1       0.150  10.290  20.284  0.00  0.00    +0.000 A 
ATOM     11  C   UNL     1      -0.495  10.904  21.369  0.00  0.00    +0.000 A 
ATOM     12  C   UNL     1      -0.368  10.400  22.659  0.00  0.00    +0.000 A 
ATOM     13  C   UNL     1       0.429   9.288  22.881  0.00  0.00    +0.000 A 
ATOM     14  C   UNL     1       1.073   8.659  21.808  0.00  0.00    +0.000 A 
ATOM     15  C   UNL     1       0.926   9.111  20.470  0.00  0.00    +0.000 A 
ENDBRANCH   3   6
ENDBRANCH   1   4
BRANCH   1  16
ATOM     16  C   UNL     1       5.294   6.189  17.353  0.00  0.00    +0.000 C 
ATOM     17  O   UNL     1       5.728   7.342  17.321  0.00  0.00    +0.000 OA
ATOM     18  N   UNL     1       5.914   5.150  16.688  0.00  0.00    +0.000 N 
ATOM     19  H   UNL     1       5.712   4.192  16.943  0.00  0.00    +0.000 HD
BRANCH  18  20
ATOM     20  C   UNL     1       7.074   5.388  15.851  0.00  0.00    +0.000 C 
BRANCH  20  21
ATOM     21  C   UNL     1       6.886   4.817  14.469  0.00  0.00    +0.000 A 
ATOM     22  C   UNL     1       7.731   5.198  13.420  0.00  0.00    +0.000 A 
ATOM     23  C   UNL     1       7.531   4.646  12.164  0.00  0.00    +0.000 A 
ATOM     24  N   UNL     1       6.560   3.754  11.885  0.00  0.00    +0.000 NA
ATOM     25  C   UNL     1       5.754   3.396  12.906  0.00  0.00    +0.000 A 
ATOM     26  C   UNL     1       5.871   3.896  14.195  0.00  0.00    +0.000 A 
ENDBRANCH  20  21
ENDBRANCH  18  20
ENDBRANCH   1  16
BRANCH   1  27
ATOM     27  C   UNL     1       3.303   4.608  17.545  0.00  0.00    +0.000 C 
BRANCH  27  28
ATOM     28  N   UNL     1       3.513   3.383  18.289  0.00  0.00    +0.000 N 
ATOM     29  C   UNL     1       4.130   3.273  19.503  0.00  0.00    +0.000 A 
ATOM     30  C   UNL     1       4.185   1.922  19.751  0.00  0.00    +0.000 A 
ATOM     31  N   UNL     1       3.561   1.222  18.753  0.00  0.00    +0.000 NA
ATOM     32  C   UNL     1       3.137   2.129  17.902  0.00  0.00    +0.000 A 
ENDBRANCH  27  28
ENDBRANCH   1  27
TORSDOF 7
ENDMDL
MODEL 5
REMARK VINA RESULT:      -8.2      1.108      1.553
REMARK  Name = 
REMARK  7 active torsions:
REMARK  status: ('A' for Active; 'I' for Inactive)
REMARK    1  A    between atoms: C_2  and  C_21
REMARK    2  A    between atoms: N_3  and  C_4
REMARK    3  A    between atoms: C_4  and  C_5
REMARK    4  A    between atoms: C_4  and  C_11
REMARK    5  A    between atoms: C_5  and  N_6
REMARK    6  A    between atoms: N_13  and  C_14
REMARK    7  A    between atoms: C_14  and  C_15
REMARK                            x       y       z     vdW  Elec       q    Type
REMARK                         _______ _______ _______ _____ _____    ______ ____
ROOT
ATOM      1  C   UNL     1       3.994   5.622  18.151  0.00  0.00    +0.000 C 
ENDROOT
BRANCH   1   4
ATOM      2  O   UNL     1       2.370   6.424  20.305  0.00  0.00    +0.000 OA
ATOM      3  C   UNL     1       2.394   7.149  19.314  0.00  0.00    +0.000 C 
ATOM      4  N   UNL     1       3.170   6.840  18.223  0.00  0.00    +0.000 N 
ATOM      5  H   UNL     1       3.311   7.525  17.482  0.00  0.00    +0.000 HD
BRANCH   3   6
ATOM      6  C   UNL     1       1.610   8.424  19.306  0.00  0.00    +0.000 A 
ATOM      7  C   UNL     1       1.524   9.037  18.041  0.00  0.00    +0.000 A 
ATOM      8  C   UNL     1       0.811  10.215  17.864  0.00  0.00    +0.000 A 
ATOM      9  C   UNL     1       0.157  10.789  18.947  0.00  0.00    +0.000 A 
ATOM     10  C   UNL     1       0.241  10.220  20.227  0.00  0.00    +0.000 A 
ATOM     11  C   UNL     1      -0.420  10.853  21.291  0.00  0.00    +0.000 A 
ATOM     12  C   UNL     1      -0.323  10.364  22.589  0.00  0.00    +0.000 A 
ATOM     13  C   UNL     1       0.459   9.248  22.840  0.00  0.00    +0.000 A 
ATOM     14  C   UNL     1       1.120   8.601  21.789  0.00  0.00    +0.000 A 
ATOM     15  C   UNL     1       1.003   9.037  20.443  0.00  0.00    +0.000 A 
ENDBRANCH   3   6
ENDBRANCH   1   4
BRANCH   1  16
ATOM     16  C   UNL     1       5.299   5.968  17.394  0.00  0.00    +0.000 C 
ATOM     17  O   UNL     1       5.699   7.129  17.302  0.00  0.00    +0.000 OA
ATOM     18  N   UNL     1       5.987   4.905  16.844  0.00  0.00    +0.000 N 
ATOM     19  H   UNL     1       5.798   3.962  17.157  0.00  0.00    +0.000 HD
BRANCH  18  20
ATOM     20  C   UNL     1       7.185   5.121  16.057  0.00  0.00    +0.000 C 
BRANCH  20  21
ATOM     21  C   UNL     1       6.983   4.720  14.619  0.00  0.00    +0.000 A 
ATOM     22  C   UNL     1       6.019   3.766  14.274  0.00  0.00    +0.000 A 
ATOM     23  C   UNL     1       5.858   3.428  12.939  0.00  0.00    +0.000 A 
ATOM     24  N   UNL     1       6.582   3.968  11.938  0.00  0.00    +0.000 NA
ATOM     25  C   UNL     1       7.507   4.886  12.286  0.00  0.00    +0.000 A 
ATOM     26  C   UNL     1       7.746   5.286  13.593  0.00  0.00    +0.000 A 
ENDBRANCH  20  21
ENDBRANCH  18  20
ENDBRANCH   1  16
BRANCH   1  27
ATOM     27  C   UNL     1       3.277   4.419  17.507  0.00  0.00    +0.000 C 
BRANCH  27  28
ATOM     28  N   UNL     1       2.490   3.648  18.448  0.00  0.00    +0.000 N 
ATOM     29  C   UNL     1       2.971   2.950  19.519  0.00  0.00    +0.000 A 
ATOM     30  C   UNL     1       1.876   2.303  20.040  0.00  0.00    +0.000 A 
ATOM     31  N   UNL     1       0.741   2.644  19.354  0.00  0.00    +0.000 NA
ATOM     32  C   UNL     1       1.135   3.481  18.420  0.00  0.00    +0.000 A 
ENDBRANCH  27  28
ENDBRANCH   1  27
TORSDOF 7
ENDMDL
MODEL 6
REMARK VINA RESULT:      -8.0      4.028      7.007
REMARK  Name = 
REMARK  7 active torsions:
REMARK  status: ('A' for Active; 'I' for Inactive)
REMARK    1  A    between atoms: C_2  and  C_21
REMARK    2  A    between atoms: N_3  and  C_4
REMARK    3  A    between atoms: C_4  and  C_5
REMARK    4  A    between atoms: C_4  and  C_11
REMARK    5  A    between atoms: C_5  and  N_6
REMARK    6  A    between atoms: N_13  and  C_14
REMARK    7  A    between atoms: C_14  and  C_15
REMARK                            x       y       z     vdW  Elec       q    Type
REMARK                         _______ _______ _______ _____ _____    ______ ____
ROOT
ATOM      1  C   UNL     1       0.994   9.988  19.519  0.00  0.00    +0.000 C 
ENDROOT
BRANCH   1   4
ATOM      2  O   UNL     1      -0.100  12.274  18.296  0.00  0.00    +0.000 OA
ATOM      3  C   UNL     1      -0.829  11.294  18.416  0.00  0.00    +0.000 C 
ATOM      4  N   UNL     1      -0.372  10.131  18.989  0.00  0.00    +0.000 N 
ATOM      5  H   UNL     1      -0.926   9.278  18.934  0.00  0.00    +0.000 HD
BRANCH   3   6
ATOM      6  C   UNL     1      -2.226  11.336  17.882  0.00  0.00    +0.000 A 
ATOM      7  C   UNL     1      -2.344  10.899  16.548  0.00  0.00    +0.000 A 
ATOM      8  C   UNL     1      -3.580  10.856  15.915  0.00  0.00    +0.000 A 
ATOM      9  C   UNL     1      -4.719  11.235  16.614  0.00  0.00    +0.000 A 
ATOM     10  C   UNL     1      -4.637  11.699  17.935  0.00  0.00    +0.000 A 
ATOM     11  C   UNL     1      -5.817  12.089  18.589  0.00  0.00    +0.000 A 
ATOM     12  C   UNL     1      -5.786  12.610  19.877  0.00  0.00    +0.000 A 
ATOM     13  C   UNL     1      -4.568  12.770  20.518  0.00  0.00    +0.000 A 
ATOM     14  C   UNL     1      -3.383  12.379  19.885  0.00  0.00    +0.000 A 
ATOM     15  C   UNL     1      -3.376  11.794  18.590  0.00  0.00    +0.000 A 
ENDBRANCH   3   6
ENDBRANCH   1   4
BRANCH   1  16
ATOM     16  C   UNL     1       1.732   8.929  18.666  0.00  0.00    +0.000 C 
ATOM     17  O   UNL     1       1.965   9.115  17.471  0.00  0.00    +0.000 OA
ATOM     18  N   UNL     1       2.121   7.778  19.322  0.00  0.00    +0.000 N 
ATOM     19  H   UNL     1       2.168   7.761  20.333  0.00  0.00    +0.000 HD
BRANCH  18  20
ATOM     20  C   UNL     1       2.760   6.692  18.605  0.00  0.00    +0.000 C 
BRANCH  20  21
ATOM     21  C   UNL     1       2.756   5.418  19.410  0.00  0.00    +0.000 A 
ATOM     22  C   UNL     1       3.569   4.340  19.043  0.00  0.00    +0.000 A 
ATOM     23  C   UNL     1       3.543   3.188  19.812  0.00  0.00    +0.000 A 
ATOM     24  N   UNL     1       2.771   3.036  20.907  0.00  0.00    +0.000 NA
ATOM     25  C   UNL     1       1.993   4.084  21.249  0.00  0.00    +0.000 A 
ATOM     26  C   UNL     1       1.945   5.276  20.541  0.00  0.00    +0.000 A 
ENDBRANCH  20  21
ENDBRANCH  18  20
ENDBRANCH   1  16
BRANCH   1  27
ATOM     27  C   UNL     1       1.050   9.635  21.019  0.00  0.00    +0.000 C 
BRANCH  27  28
ATOM     28  N   UNL     1       0.141  10.422  21.829  0.00  0.00    +0.000 N 
ATOM     29  C   UNL     1      -0.048  11.772  21.745  0.00  0.00    +0.000 A 
ATOM     30  C   UNL     1      -0.912  12.072  22.772  0.00  0.00    +0.000 A 
ATOM     31  N   UNL     1      -1.297  10.933  23.427  0.00  0.00    +0.000 NA
ATOM     32  C   UNL     1      -0.672   9.950  22.818  0.00  0.00    +0.000 A 
ENDBRANCH  27  28
ENDBRANCH   1  27
TORSDOF 7
ENDMDL
MODEL 7
REMARK VINA RESULT:      -8.0      1.028      1.446
REMARK  Name = 
REMARK  7 active torsions:
REMARK  status: ('A' for Active; 'I' for Inactive)
REMARK    1  A    between atoms: C_2  and  C_21
REMARK    2  A    between atoms: N_3  and  C_4
REMARK    3  A    between atoms: C_4  and  C_5
REMARK    4  A    between atoms: C_4  and  C_11
REMARK    5  A    between atoms: C_5  and  N_6
REMARK    6  A    between atoms: N_13  and  C_14
REMARK    7  A    between atoms: C_14  and  C_15
REMARK                            x       y       z     vdW  Elec       q    Type
REMARK                         _______ _______ _______ _____ _____    ______ ____
ROOT
ATOM      1  C   UNL     1       3.802   5.555  19.253  0.00  0.00    +0.000 C 
ENDROOT
BRANCH   1   4
ATOM      2  O   UNL     1       1.838   6.531  21.016  0.00  0.00    +0.000 OA
ATOM      3  C   UNL     1       2.088   7.204  20.019  0.00  0.00    +0.000 C 
ATOM      4  N   UNL     1       3.043   6.808  19.112  0.00  0.00    +0.000 N 
ATOM      5  H   UNL     1       3.357   7.448  18.385  0.00  0.00    +0.000 HD
BRANCH   3   6
ATOM      6  C   UNL     1       1.385   8.507  19.806  0.00  0.00    +0.000 A 
ATOM      7  C   UNL     1       1.480   9.003  18.491  0.00  0.00    +0.000 A 
ATOM      8  C   UNL     1       0.861  10.191  18.127  0.00  0.00    +0.000 A 
ATOM      9  C   UNL     1       0.122  10.894  19.071  0.00  0.00    +0.000 A 
ATOM     10  C   UNL     1       0.027  10.444  20.396  0.00  0.00    +0.000 A 
ATOM     11  C   UNL     1      -0.715  11.205  21.316  0.00  0.00    +0.000 A 
ATOM     12  C   UNL     1      -0.795  10.836  22.654  0.00  0.00    +0.000 A 
ATOM     13  C   UNL     1      -0.112   9.713  23.093  0.00  0.00    +0.000 A 
ATOM     14  C   UNL     1       0.626   8.939  22.188  0.00  0.00    +0.000 A 
ATOM     15  C   UNL     1       0.689   9.252  20.804  0.00  0.00    +0.000 A 
ENDBRANCH   3   6
ENDBRANCH   1   4
BRANCH   1  16
ATOM     16  C   UNL     1       5.103   5.686  18.424  0.00  0.00    +0.000 C 
ATOM     17  O   UNL     1       5.374   6.722  17.813  0.00  0.00    +0.000 OA
ATOM     18  N   UNL     1       5.940   4.588  18.421  0.00  0.00    +0.000 N 
ATOM     19  H   UNL     1       5.841   3.873  19.130  0.00  0.00    +0.000 HD
BRANCH  18  20
ATOM     20  C   UNL     1       7.152   4.578  17.625  0.00  0.00    +0.000 C 
BRANCH  20  21
ATOM     21  C   UNL     1       6.848   4.444  16.155  0.00  0.00    +0.000 A 
ATOM     22  C   UNL     1       5.789   3.641  15.717  0.00  0.00    +0.000 A 
ATOM     23  C   UNL     1       5.537   3.547  14.357  0.00  0.00    +0.000 A 
ATOM     24  N   UNL     1       6.257   4.191  13.417  0.00  0.00    +0.000 NA
ATOM     25  C   UNL     1       7.273   4.962  13.855  0.00  0.00    +0.000 A 
ATOM     26  C   UNL     1       7.608   5.114  15.192  0.00  0.00    +0.000 A 
ENDBRANCH  20  21
ENDBRANCH  18  20
ENDBRANCH   1  16
BRANCH   1  27
ATOM     27  C   UNL     1       3.011   4.295  18.852  0.00  0.00    +0.000 C 
BRANCH  27  28
ATOM     28  N   UNL     1       2.554   3.518  19.986  0.00  0.00    +0.000 N 
ATOM     29  C   UNL     1       1.255   3.226  20.293  0.00  0.00    +0.000 A 
ATOM     30  C   UNL     1       1.315   2.569  21.498  0.00  0.00    +0.000 A 
ATOM     31  N   UNL     1       2.615   2.398  21.892  0.00  0.00    +0.000 NA
ATOM     32  C   UNL     1       3.342   2.952  20.946  0.00  0.00    +0.000 A 
ENDBRANCH  27  28
ENDBRANCH   1  27
TORSDOF 7
ENDMDL
MODEL 8
REMARK VINA RESULT:      -8.0      4.496      7.330
REMARK  Name = 
REMARK  7 active torsions:
REMARK  status: ('A' for Active; 'I' for Inactive)
REMARK    1  A    between atoms: C_2  and  C_21
REMARK    2  A    between atoms: N_3  and  C_4
REMARK    3  A    between atoms: C_4  and  C_5
REMARK    4  A    between atoms: C_4  and  C_11
REMARK    5  A    between atoms: C_5  and  N_6
REMARK    6  A    between atoms: N_13  and  C_14
REMARK    7  A    between atoms: C_14  and  C_15
REMARK                            x       y       z     vdW  Elec       q    Type
REMARK                         _______ _______ _______ _____ _____    ______ ____
ROOT
ATOM      1  C   UNL     1       1.258  10.379  19.497  0.00  0.00    +0.000 C 
ENDROOT
BRANCH   1   4
ATOM      2  O   UNL     1       2.045  12.693  20.892  0.00  0.00    +0.000 OA
ATOM      3  C   UNL     1       1.918  12.783  19.674  0.00  0.00    +0.000 C 
ATOM      4  N   UNL     1       1.551  11.699  18.913  0.00  0.00    +0.000 N 
ATOM      5  H   UNL     1       1.610  11.740  17.897  0.00  0.00    +0.000 HD
BRANCH   3   6
ATOM      6  C   UNL     1       2.221  14.078  18.988  0.00  0.00    +0.000 A 
ATOM      7  C   UNL     1       3.524  14.158  18.460  0.00  0.00    +0.000 A 
ATOM      8  C   UNL     1       3.951  15.287  17.774  0.00  0.00    +0.000 A 
ATOM      9  C   UNL     1       3.073  16.348  17.590  0.00  0.00    +0.000 A 
ATOM     10  C   UNL     1       1.776  16.314  18.123  0.00  0.00    +0.000 A 
ATOM     11  C   UNL     1       0.936  17.423  17.926  0.00  0.00    +0.000 A 
ATOM     12  C   UNL     1      -0.338  17.466  18.481  0.00  0.00    +0.000 A 
ATOM     13  C   UNL     1      -0.778  16.408  19.261  0.00  0.00    +0.000 A 
ATOM     14  C   UNL     1       0.044  15.292  19.461  0.00  0.00    +0.000 A 
ATOM     15  C   UNL     1       1.330  15.186  18.869  0.00  0.00    +0.000 A 
ENDBRANCH   3   6
ENDBRANCH   1   4
BRANCH   1  16
ATOM     16  C   UNL     1       1.805   9.297  18.535  0.00  0.00    +0.000 C 
ATOM     17  O   UNL     1       1.947   9.519  17.332  0.00  0.00    +0.000 OA
ATOM     18  N   UNL     1       2.131   8.082  19.105  0.00  0.00    +0.000 N 
ATOM     19  H   UNL     1       2.267   8.010  20.104  0.00  0.00    +0.000 HD
BRANCH  18  20
ATOM     20  C   UNL     1       2.589   6.976  18.286  0.00  0.00    +0.000 C 
BRANCH  20  21
ATOM     21  C   UNL     1       2.094   5.654  18.815  0.00  0.00    +0.000 A 
ATOM     22  C   UNL     1       1.909   5.461  20.189  0.00  0.00    +0.000 A 
ATOM     23  C   UNL     1       1.446   4.233  20.637  0.00  0.00    +0.000 A 
ATOM     24  N   UNL     1       1.160   3.199  19.821  0.00  0.00    +0.000 NA
ATOM     25  C   UNL     1       1.343   3.401  18.500  0.00  0.00    +0.000 A 
ATOM     26  C   UNL     1       1.807   4.589  17.956  0.00  0.00    +0.000 A 
ENDBRANCH  20  21
ENDBRANCH  18  20
ENDBRANCH   1  16
BRANCH   1  27
ATOM     27  C   UNL     1      -0.234  10.149  19.807  0.00  0.00    +0.000 C 
BRANCH  27  28
ATOM     28  N   UNL     1      -0.606  10.526  21.156  0.00  0.00    +0.000 N 
ATOM     29  C   UNL     1      -1.266  11.665  21.521  0.00  0.00    +0.000 A 
ATOM     30  C   UNL     1      -1.296  11.631  22.894  0.00  0.00    +0.000 A 
ATOM     31  N   UNL     1      -0.731  10.475  23.362  0.00  0.00    +0.000 NA
ATOM     32  C   UNL     1      -0.353   9.813  22.291  0.00  0.00    +0.000 A 
ENDBRANCH  27  28
ENDBRANCH   1  27
TORSDOF 7
ENDMDL
MODEL 9
REMARK VINA RESULT:      -7.9      3.918      6.357
REMARK  Name = 
REMARK  7 active torsions:
REMARK  status: ('A' for Active; 'I' for Inactive)
REMARK    1  A    between atoms: C_2  and  C_21
REMARK    2  A    between atoms: N_3  and  C_4
REMARK    3  A    between atoms: C_4  and  C_5
REMARK    4  A    between atoms: C_4  and  C_11
REMARK    5  A    between atoms: C_5  and  N_6
REMARK    6  A    between atoms: N_13  and  C_14
REMARK    7  A    between atoms: C_14  and  C_15
REMARK                            x       y       z     vdW  Elec       q    Type
REMARK                         _______ _______ _______ _____ _____    ______ ____
ROOT
ATOM      1  C   UNL     1       1.069   9.681  19.244  0.00  0.00    +0.000 C 
ENDROOT
BRANCH   1   4
ATOM      2  O   UNL     1      -0.123  12.137  18.561  0.00  0.00    +0.000 OA
ATOM      3  C   UNL     1      -0.788  11.119  18.390  0.00  0.00    +0.000 C 
ATOM      4  N   UNL     1      -0.279   9.876  18.683  0.00  0.00    +0.000 N 
ATOM      5  H   UNL     1      -0.770   9.036  18.385  0.00  0.00    +0.000 HD
BRANCH   3   6
ATOM      6  C   UNL     1      -2.159  11.217  17.799  0.00  0.00    +0.000 A 
ATOM      7  C   UNL     1      -2.243  10.778  16.464  0.00  0.00    +0.000 A 
ATOM      8  C   UNL     1      -3.452  10.784  15.782  0.00  0.00    +0.000 A 
ATOM      9  C   UNL     1      -4.602  11.214  16.432  0.00  0.00    +0.000 A 
ATOM     10  C   UNL     1      -4.553  11.682  17.754  0.00  0.00    +0.000 A 
ATOM     11  C   UNL     1      -5.741  12.126  18.357  0.00  0.00    +0.000 A 
ATOM     12  C   UNL     1      -5.740  12.652  19.644  0.00  0.00    +0.000 A 
ATOM     13  C   UNL     1      -4.543  12.764  20.333  0.00  0.00    +0.000 A 
ATOM     14  C   UNL     1      -3.351  12.320  19.749  0.00  0.00    +0.000 A 
ATOM     15  C   UNL     1      -3.317  11.727  18.459  0.00  0.00    +0.000 A 
ENDBRANCH   3   6
ENDBRANCH   1   4
BRANCH   1  16
ATOM     16  C   UNL     1       1.921   8.930  18.192  0.00  0.00    +0.000 C 
ATOM     17  O   UNL     1       2.294   9.480  17.155  0.00  0.00    +0.000 OA
ATOM     18  N   UNL     1       2.245   7.621  18.491  0.00  0.00    +0.000 N 
ATOM     19  H   UNL     1       2.171   7.284  19.441  0.00  0.00    +0.000 HD
BRANCH  18  20
ATOM     20  C   UNL     1       2.984   6.804  17.547  0.00  0.00    +0.000 C 
BRANCH  20  21
ATOM     21  C   UNL     1       3.699   5.672  18.237  0.00  0.00    +0.000 A 
ATOM     22  C   UNL     1       5.088   5.707  18.411  0.00  0.00    +0.000 A 
ATOM     23  C   UNL     1       5.710   4.649  19.056  0.00  0.00    +0.000 A 
ATOM     24  N   UNL     1       5.053   3.574  19.534  0.00  0.00    +0.000 NA
ATOM     25  C   UNL     1       3.715   3.554  19.360  0.00  0.00    +0.000 A 
ATOM     26  C   UNL     1       3.004   4.560  18.723  0.00  0.00    +0.000 A 
ENDBRANCH  20  21
ENDBRANCH  18  20
ENDBRANCH   1  16
BRANCH   1  27
ATOM     27  C   UNL     1       1.083   8.949  20.600  0.00  0.00    +0.000 C 
BRANCH  27  28
ATOM     28  N   UNL     1       0.389   9.670  21.649  0.00  0.00    +0.000 N 
ATOM     29  C   UNL     1      -0.390   9.117  22.626  0.00  0.00    +0.000 A 
ATOM     30  C   UNL     1      -0.912  10.189  23.309  0.00  0.00    +0.000 A 
ATOM     31  N   UNL     1      -0.418  11.366  22.814  0.00  0.00    +0.000 NA
ATOM     32  C   UNL     1       0.388  11.022  21.834  0.00  0.00    +0.000 A 
ENDBRANCH  27  28
ENDBRANCH   1  27
TORSDOF 7
ENDMDL
