MODEL 1
REMARK VINA RESULT:      -8.1      0.000      0.000
REMARK  Name = 
REMARK  4 active torsions:
REMARK  status: ('A' for Active; 'I' for Inactive)
REMARK    1  A    between atoms: C_1  and  C_2
REMARK    2  A    between atoms: C_2  and  N_3
REMARK    3  A    between atoms: C_2  and  C_13
REMARK    4  A    between atoms: N_6  and  C_7
REMARK                            x       y       z     vdW  Elec       q    Type
REMARK                         _______ _______ _______ _____ _____    ______ ____
ROOT
ATOM      1  C   UNL     1       7.546   6.651  17.564  0.00  0.00    +0.000 C 
ATOM      2  C   UNL     1       6.467   5.780  16.928  0.00  0.00    +0.000 C 
ENDROOT
BRANCH   2   3
ATOM      3  C   UNL     1       5.037   6.206  17.360  0.00  0.00    +0.000 C 
ATOM      4  O   UNL     1       4.702   7.392  17.314  0.00  0.00    +0.000 OA
ATOM      5  N   UNL     1       4.109   5.202  17.666  0.00  0.00    +0.000 N 
ATOM      6  C   UNL     1       2.696   5.551  17.872  0.00  0.00    +0.000 C 
ATOM      7  C   UNL     1       2.303   5.422  19.343  0.00  0.00    +0.000 C 
ATOM      8  C   UNL     1       2.675   4.041  19.890  0.00  0.00    +0.000 C 
ATOM      9  C   UNL     1       4.148   3.738  19.620  0.00  0.00    +0.000 C 
ATOM     10  C   UNL     1       4.472   3.868  18.139  0.00  0.00    +0.000 C 
ATOM     11  O   UNL     1       1.847   3.041  19.272  0.00  0.00    +0.000 OA
ATOM     12  C   UNL     1       1.491   2.154  20.330  0.00  0.00    +0.000 C 
ATOM     13  C   UNL     1       1.446   3.048  21.539  0.00  0.00    +0.000 C 
ATOM     14  O   UNL     1       2.477   4.006  21.313  0.00  0.00    +0.000 OA
ENDBRANCH   2   3
BRANCH   2  15
ATOM     15  N   UNL     1       6.605   5.803  15.473  0.00  0.00    +0.000 N 
ATOM     16  C   UNL     1       6.454   4.606  14.796  0.00  0.00    +0.000 C 
ATOM     17  O   UNL     1       6.146   3.589  15.398  0.00  0.00    +0.000 OA
ATOM     18  N   UNL     1       6.673   4.709  13.440  0.00  0.00    +0.000 N 
ATOM     19  H   UNL     1       7.218   6.499  15.077  0.00  0.00    +0.000 HD
ATOM     20  H   UNL     1       7.153   5.527  13.100  0.00  0.00    +0.000 HD
BRANCH  18  21
ATOM     21  C   UNL     1       6.474   3.644  12.525  0.00  0.00    +0.000 A 
ATOM     22  C   UNL     1       5.196   3.192  12.177  0.00  0.00    +0.000 A 
ATOM     23  C   UNL     1       5.022   2.105  11.322  0.00  0.00    +0.000 A 
ATOM     24  C   UNL     1       6.132   1.462  10.792  0.00  0.00    +0.000 A 
ATOM     25  C   UNL     1       7.412   1.926  11.098  0.00  0.00    +0.000 A 
ATOM     26  C   UNL     1       7.585   3.025  11.950  0.00  0.00    +0.000 A 
ENDBRANCH  18  21
ENDBRANCH   2  15
TORSDOF 3
ENDMDL
MODEL 2
REMARK VINA RESULT:      -7.7      0.331      1.030
REMARK  Name = 
REMARK  4 active torsions:
REMARK  status: ('A' for Active; 'I' for Inactive)
REMARK    1  A    between atoms: C_1  and  C_2
REMARK    2  A    between atoms: C_2  and  N_3
REMARK    3  A    between atoms: C_2  and  C_13
REMARK    4  A    between atoms: N_6  and  C_7
REMARK                            x       y       z     vdW  Elec       q    Type
REMARK                         _______ _______ _______ _____ _____    ______ ____
ROOT
ATOM      1  C   UNL     1       7.064   7.056  17.275  0.00  0.00    +0.000 C 
ATOM      2  C   UNL     1       6.044   6.044  16.761  0.00  0.00    +0.000 C 
ENDROOT
BRANCH   2   3
ATOM      3  C   UNL     1       4.606   6.354  17.260  0.00  0.00    +0.000 C 
ATOM      4  O   UNL     1       4.171   7.508  17.222  0.00  0.00    +0.000 OA
ATOM      5  N   UNL     1       3.781   5.280  17.616  0.00  0.00    +0.000 N 
ATOM      6  C   UNL     1       2.355   5.512  17.889  0.00  0.00    +0.000 C 
ATOM      7  C   UNL     1       2.045   5.366  19.379  0.00  0.00    +0.000 C 
ATOM      8  C   UNL     1       2.557   4.027  19.915  0.00  0.00    +0.000 C 
ATOM      9  C   UNL     1       4.035   3.845  19.576  0.00  0.00    +0.000 C 
ATOM     10  C   UNL     1       4.276   3.985  18.080  0.00  0.00    +0.000 C 
ATOM     11  O   UNL     1       1.786   2.956  19.345  0.00  0.00    +0.000 OA
ATOM     12  C   UNL     1       1.557   2.053  20.425  0.00  0.00    +0.000 C 
ATOM     13  C   UNL     1       1.496   2.952  21.629  0.00  0.00    +0.000 C 
ATOM     14  O   UNL     1       2.431   3.991  21.346  0.00  0.00    +0.000 OA
ENDBRANCH   2   3
BRANCH   2  15
ATOM     15  N   UNL     1       6.093   5.989  15.301  0.00  0.00    +0.000 N 
ATOM     16  C   UNL     1       6.229   4.744  14.712  0.00  0.00    +0.000 C 
ATOM     17  O   UNL     1       6.234   3.732  15.396  0.00  0.00    +0.000 OA
ATOM     18  N   UNL     1       6.341   4.794  13.340  0.00  0.00    +0.000 N 
ATOM     19  H   UNL     1       6.478   6.787  14.820  0.00  0.00    +0.000 HD
ATOM     20  H   UNL     1       6.569   5.680  12.917  0.00  0.00    +0.000 HD
BRANCH  18  21
ATOM     21  C   UNL     1       6.383   3.645  12.509  0.00  0.00    +0.000 A 
ATOM     22  C   UNL     1       7.574   3.183  11.939  0.00  0.00    +0.000 A 
ATOM     23  C   UNL     1       7.585   2.087  11.078  0.00  0.00    +0.000 A 
ATOM     24  C   UNL     1       6.399   1.429  10.786  0.00  0.00    +0.000 A 
ATOM     25  C   UNL     1       5.208   1.853  11.379  0.00  0.00    +0.000 A 
ATOM     26  C   UNL     1       5.200   2.950  12.251  0.00  0.00    +0.000 A 
ENDBRANCH  18  21
ENDBRANCH   2  15
TORSDOF 3
ENDMDL
MODEL 3
REMARK VINA RESULT:      -7.3      3.696      7.052
REMARK  Name = 
REMARK  4 active torsions:
REMARK  status: ('A' for Active; 'I' for Inactive)
REMARK    1  A    between atoms: C_1  and  C_2
REMARK    2  A    between atoms: C_2  and  N_3
REMARK    3  A    between atoms: C_2  and  C_13
REMARK    4  A    between atoms: N_6  and  C_7
REMARK                            x       y       z     vdW  Elec       q    Type
REMARK                         _______ _______ _______ _____ _____    ______ ____
ROOT
ATOM      1  C   UNL     1       7.216   6.497  16.172  0.00  0.00    +0.000 C 
ATOM      2  C   UNL     1       6.884   6.493  17.662  0.00  0.00    +0.000 C 
ENDROOT
BRANCH   2   3
ATOM      3  C   UNL     1       6.585   5.065  18.194  0.00  0.00    +0.000 C 
ATOM      4  O   UNL     1       7.432   4.174  18.092  0.00  0.00    +0.000 OA
ATOM      5  N   UNL     1       5.398   4.858  18.908  0.00  0.00    +0.000 N 
ATOM      6  C   UNL     1       5.177   3.583  19.606  0.00  0.00    +0.000 C 
ATOM      7  C   UNL     1       4.107   2.746  18.905  0.00  0.00    +0.000 C 
ATOM      8  C   UNL     1       2.825   3.558  18.701  0.00  0.00    +0.000 C 
ATOM      9  C   UNL     1       3.133   4.875  17.993  0.00  0.00    +0.000 C 
ATOM     10  C   UNL     1       4.192   5.668  18.745  0.00  0.00    +0.000 C 
ATOM     11  O   UNL     1       2.213   3.817  19.976  0.00  0.00    +0.000 OA
ATOM     12  C   UNL     1       0.817   3.617  19.760  0.00  0.00    +0.000 C 
ATOM     13  C   UNL     1       0.773   2.553  18.698  0.00  0.00    +0.000 C 
ATOM     14  O   UNL     1       1.906   2.824  17.875  0.00  0.00    +0.000 OA
ENDBRANCH   2   3
BRANCH   2  15
ATOM     15  N   UNL     1       7.972   7.117  18.413  0.00  0.00    +0.000 N 
ATOM     16  C   UNL     1       8.105   8.491  18.326  0.00  0.00    +0.000 C 
ATOM     17  O   UNL     1       7.292   9.153  17.698  0.00  0.00    +0.000 OA
ATOM     18  N   UNL     1       9.198   8.983  19.005  0.00  0.00    +0.000 N 
ATOM     19  H   UNL     1       8.804   6.567  18.566  0.00  0.00    +0.000 HD
ATOM     20  H   UNL     1       9.919   8.332  19.272  0.00  0.00    +0.000 HD
BRANCH  18  21
ATOM     21  C   UNL     1       9.481  10.365  19.148  0.00  0.00    +0.000 A 
ATOM     22  C   UNL     1       9.862  11.163  18.064  0.00  0.00    +0.000 A 
ATOM     23  C   UNL     1      10.193  12.506  18.236  0.00  0.00    +0.000 A 
ATOM     24  C   UNL     1      10.135  13.073  19.502  0.00  0.00    +0.000 A 
ATOM     25  C   UNL     1       9.718  12.300  20.587  0.00  0.00    +0.000 A 
ATOM     26  C   UNL     1       9.376  10.952  20.411  0.00  0.00    +0.000 A 
ENDBRANCH  18  21
ENDBRANCH   2  15
TORSDOF 3
ENDMDL
MODEL 4
REMARK VINA RESULT:      -7.1      3.040      6.567
REMARK  Name = 
REMARK  4 active torsions:
REMARK  status: ('A' for Active; 'I' for Inactive)
REMARK    1  A    between atoms: C_1  and  C_2
REMARK    2  A    between atoms: C_2  and  N_3
REMARK    3  A    between atoms: C_2  and  C_13
REMARK    4  A    between atoms: N_6  and  C_7
REMARK                            x       y       z     vdW  Elec       q    Type
REMARK                         _______ _______ _______ _____ _____    ______ ____
ROOT
ATOM      1  C   UNL     1       6.559   5.472  15.204  0.00  0.00    +0.000 C 
ATOM      2  C   UNL     1       6.524   6.104  16.594  0.00  0.00    +0.000 C 
ENDROOT
BRANCH   2   3
ATOM      3  C   UNL     1       6.363   5.043  17.717  0.00  0.00    +0.000 C 
ATOM      4  O   UNL     1       7.334   4.377  18.085  0.00  0.00    +0.000 OA
ATOM      5  N   UNL     1       5.135   4.966  18.386  0.00  0.00    +0.000 N 
ATOM      6  C   UNL     1       5.009   4.129  19.589  0.00  0.00    +0.000 C 
ATOM      7  C   UNL     1       4.167   2.884  19.310  0.00  0.00    +0.000 C 
ATOM      8  C   UNL     1       2.820   3.263  18.688  0.00  0.00    +0.000 C 
ATOM      9  C   UNL     1       3.028   4.148  17.461  0.00  0.00    +0.000 C 
ATOM     10  C   UNL     1       3.858   5.376  17.805  0.00  0.00    +0.000 C 
ATOM     11  O   UNL     1       2.019   3.952  19.662  0.00  0.00    +0.000 OA
ATOM     12  C   UNL     1       0.705   3.422  19.498  0.00  0.00    +0.000 C 
ATOM     13  C   UNL     1       0.949   2.005  19.056  0.00  0.00    +0.000 C 
ATOM     14  O   UNL     1       2.128   2.079  18.258  0.00  0.00    +0.000 OA
ENDBRANCH   2   3
BRANCH   2  15
ATOM     15  N   UNL     1       7.724   6.912  16.801  0.00  0.00    +0.000 N 
ATOM     16  C   UNL     1       7.579   8.113  17.471  0.00  0.00    +0.000 C 
ATOM     17  O   UNL     1       6.495   8.440  17.930  0.00  0.00    +0.000 OA
ATOM     18  N   UNL     1       8.746   8.840  17.556  0.00  0.00    +0.000 N 
ATOM     19  H   UNL     1       8.458   6.836  16.113  0.00  0.00    +0.000 HD
ATOM     20  H   UNL     1       9.503   8.592  16.939  0.00  0.00    +0.000 HD
BRANCH  18  21
ATOM     21  C   UNL     1       8.871  10.050  18.286  0.00  0.00    +0.000 A 
ATOM     22  C   UNL     1       8.663  11.300  17.694  0.00  0.00    +0.000 A 
ATOM     23  C   UNL     1       8.848  12.480  18.413  0.00  0.00    +0.000 A 
ATOM     24  C   UNL     1       9.232  12.421  19.745  0.00  0.00    +0.000 A 
ATOM     25  C   UNL     1       9.405  11.180  20.361  0.00  0.00    +0.000 A 
ATOM     26  C   UNL     1       9.210   9.995  19.640  0.00  0.00    +0.000 A 
ENDBRANCH  18  21
ENDBRANCH   2  15
TORSDOF 3
ENDMDL
MODEL 5
REMARK VINA RESULT:      -6.9      1.538      1.992
REMARK  Name = 
REMARK  4 active torsions:
REMARK  status: ('A' for Active; 'I' for Inactive)
REMARK    1  A    between atoms: C_1  and  C_2
REMARK    2  A    between atoms: C_2  and  N_3
REMARK    3  A    between atoms: C_2  and  C_13
REMARK    4  A    between atoms: N_6  and  C_7
REMARK                            x       y       z     vdW  Elec       q    Type
REMARK                         _______ _______ _______ _____ _____    ______ ____
ROOT
ATOM      1  C   UNL     1       7.008   7.748  17.442  0.00  0.00    +0.000 C 
ATOM      2  C   UNL     1       7.185   6.309  16.966  0.00  0.00    +0.000 C 
ENDROOT
BRANCH   2   3
ATOM      3  C   UNL     1       6.867   5.277  18.082  0.00  0.00    +0.000 C 
ATOM      4  O   UNL     1       7.776   4.630  18.608  0.00  0.00    +0.000 OA
ATOM      5  N   UNL     1       5.553   5.206  18.564  0.00  0.00    +0.000 N 
ATOM      6  C   UNL     1       5.255   4.399  19.757  0.00  0.00    +0.000 C 
ATOM      7  C   UNL     1       4.471   3.139  19.392  0.00  0.00    +0.000 C 
ATOM      8  C   UNL     1       3.230   3.487  18.567  0.00  0.00    +0.000 C 
ATOM      9  C   UNL     1       3.612   4.342  17.360  0.00  0.00    +0.000 C 
ATOM     10  C   UNL     1       4.374   5.587  17.789  0.00  0.00    +0.000 C 
ATOM     11  O   UNL     1       2.288   4.195  19.392  0.00  0.00    +0.000 OA
ATOM     12  C   UNL     1       1.017   3.648  19.050  0.00  0.00    +0.000 C 
ATOM     13  C   UNL     1       1.332   2.222  18.689  0.00  0.00    +0.000 C 
ATOM     14  O   UNL     1       2.616   2.285  18.073  0.00  0.00    +0.000 OA
ENDBRANCH   2   3
BRANCH   2  15
ATOM     15  N   UNL     1       6.360   6.074  15.781  0.00  0.00    +0.000 N 
ATOM     16  C   UNL     1       6.745   5.058  14.925  0.00  0.00    +0.000 C 
ATOM     17  O   UNL     1       7.699   4.346  15.197  0.00  0.00    +0.000 OA
ATOM     18  N   UNL     1       5.954   4.957  13.801  0.00  0.00    +0.000 N 
ATOM     19  H   UNL     1       5.874   6.867  15.391  0.00  0.00    +0.000 HD
ATOM     20  H   UNL     1       5.363   5.739  13.568  0.00  0.00    +0.000 HD
BRANCH  18  21
ATOM     21  C   UNL     1       6.086   3.929  12.833  0.00  0.00    +0.000 A 
ATOM     22  C   UNL     1       4.989   3.187  12.382  0.00  0.00    +0.000 A 
ATOM     23  C   UNL     1       5.148   2.141  11.475  0.00  0.00    +0.000 A 
ATOM     24  C   UNL     1       6.413   1.832  10.995  0.00  0.00    +0.000 A 
ATOM     25  C   UNL     1       7.512   2.589  11.405  0.00  0.00    +0.000 A 
ATOM     26  C   UNL     1       7.350   3.646  12.310  0.00  0.00    +0.000 A 
ENDBRANCH  18  21
ENDBRANCH   2  15
TORSDOF 3
ENDMDL
MODEL 6
REMARK VINA RESULT:      -6.9      3.566      8.225
REMARK  Name = 
REMARK  4 active torsions:
REMARK  status: ('A' for Active; 'I' for Inactive)
REMARK    1  A    between atoms: C_1  and  C_2
REMARK    2  A    between atoms: C_2  and  N_3
REMARK    3  A    between atoms: C_2  and  C_13
REMARK    4  A    between atoms: N_6  and  C_7
REMARK                            x       y       z     vdW  Elec       q    Type
REMARK                         _______ _______ _______ _____ _____    ______ ____
ROOT
ATOM      1  C   UNL     1       2.649   4.672  19.219  0.00  0.00    +0.000 C 
ATOM      2  C   UNL     1       3.634   5.838  19.234  0.00  0.00    +0.000 C 
ENDROOT
BRANCH   2   3
ATOM      3  C   UNL     1       5.082   5.387  18.901  0.00  0.00    +0.000 C 
ATOM      4  O   UNL     1       5.993   5.574  19.711  0.00  0.00    +0.000 OA
ATOM      5  N   UNL     1       5.294   4.647  17.730  0.00  0.00    +0.000 N 
ATOM      6  C   UNL     1       6.603   4.024  17.486  0.00  0.00    +0.000 C 
ATOM      7  C   UNL     1       7.356   4.739  16.364  0.00  0.00    +0.000 C 
ATOM      8  C   UNL     1       6.489   4.847  15.107  0.00  0.00    +0.000 C 
ATOM      9  C   UNL     1       5.140   5.481  15.440  0.00  0.00    +0.000 C 
ATOM     10  C   UNL     1       4.434   4.717  16.550  0.00  0.00    +0.000 C 
ATOM     11  O   UNL     1       6.292   3.538  14.546  0.00  0.00    +0.000 OA
ATOM     12  C   UNL     1       6.430   3.718  13.138  0.00  0.00    +0.000 C 
ATOM     13  C   UNL     1       7.421   4.843  13.021  0.00  0.00    +0.000 C 
ATOM     14  O   UNL     1       7.137   5.686  14.136  0.00  0.00    +0.000 OA
ENDBRANCH   2   3
BRANCH   2  15
ATOM     15  N   UNL     1       3.182   6.880  18.313  0.00  0.00    +0.000 N 
ATOM     16  C   UNL     1       2.304   7.829  18.803  0.00  0.00    +0.000 C 
ATOM     17  O   UNL     1       1.983   7.827  19.982  0.00  0.00    +0.000 OA
ATOM     18  N   UNL     1       1.875   8.726  17.850  0.00  0.00    +0.000 N 
ATOM     19  H   UNL     1       3.128   6.642  17.335  0.00  0.00    +0.000 HD
ATOM     20  H   UNL     1       2.009   8.485  16.881  0.00  0.00    +0.000 HD
BRANCH  18  21
ATOM     21  C   UNL     1       1.058   9.850  18.134  0.00  0.00    +0.000 A 
ATOM     22  C   UNL     1       1.592  11.065  18.576  0.00  0.00    +0.000 A 
ATOM     23  C   UNL     1       0.768  12.140  18.908  0.00  0.00    +0.000 A 
ATOM     24  C   UNL     1      -0.609  12.014  18.786  0.00  0.00    +0.000 A 
ATOM     25  C   UNL     1      -1.155  10.821  18.308  0.00  0.00    +0.000 A 
ATOM     26  C   UNL     1      -0.325   9.745  17.967  0.00  0.00    +0.000 A 
ENDBRANCH  18  21
ENDBRANCH   2  15
TORSDOF 3
ENDMDL
MODEL 7
REMARK VINA RESULT:      -6.8      0.948      1.007
REMARK  Name = 
REMARK  4 active torsions:
REMARK  status: ('A' for Active; 'I' for Inactive)
REMARK    1  A    between atoms: C_1  and  C_2
REMARK    2  A    between atoms: C_2  and  N_3
REMARK    3  A    between atoms: C_2  and  C_13
REMARK    4  A    between atoms: N_6  and  C_7
REMARK                            x       y       z     vdW  Elec       q    Type
REMARK                         _______ _______ _______ _____ _____    ______ ____
ROOT
ATOM      1  C   UNL     1       8.285   4.868  18.101  0.00  0.00    +0.000 C 
ATOM      2  C   UNL     1       6.952   4.598  17.409  0.00  0.00    +0.000 C 
ENDROOT
BRANCH   2   3
ATOM      3  C   UNL     1       5.790   5.421  18.030  0.00  0.00    +0.000 C 
ATOM      4  O   UNL     1       5.938   6.622  18.269  0.00  0.00    +0.000 OA
ATOM      5  N   UNL     1       4.543   4.801  18.179  0.00  0.00    +0.000 N 
ATOM      6  C   UNL     1       3.370   5.600  18.563  0.00  0.00    +0.000 C 
ATOM      7  C   UNL     1       2.937   5.294  19.996  0.00  0.00    +0.000 C 
ATOM      8  C   UNL     1       2.741   3.789  20.199  0.00  0.00    +0.000 C 
ATOM      9  C   UNL     1       3.987   3.024  19.760  0.00  0.00    +0.000 C 
ATOM     10  C   UNL     1       4.358   3.358  18.322  0.00  0.00    +0.000 C 
ATOM     11  O   UNL     1       1.601   3.348  19.443  0.00  0.00    +0.000 OA
ATOM     12  C   UNL     1       0.916   2.443  20.307  0.00  0.00    +0.000 C 
ATOM     13  C   UNL     1       1.201   2.983  21.681  0.00  0.00    +0.000 C 
ATOM     14  O   UNL     1       2.524   3.506  21.591  0.00  0.00    +0.000 OA
ENDBRANCH   2   3
BRANCH   2  15
ATOM     15  N   UNL     1       7.075   4.863  15.976  0.00  0.00    +0.000 N 
ATOM     16  C   UNL     1       6.463   3.979  15.107  0.00  0.00    +0.000 C 
ATOM     17  O   UNL     1       5.787   3.056  15.536  0.00  0.00    +0.000 OA
ATOM     18  N   UNL     1       6.693   4.264  13.779  0.00  0.00    +0.000 N 
ATOM     19  H   UNL     1       7.908   5.338  15.663  0.00  0.00    +0.000 HD
ATOM     20  H   UNL     1       7.451   4.888  13.555  0.00  0.00    +0.000 HD
BRANCH  18  21
ATOM     21  C   UNL     1       6.085   3.565  12.705  0.00  0.00    +0.000 A 
ATOM     22  C   UNL     1       4.779   3.839  12.283  0.00  0.00    +0.000 A 
ATOM     23  C   UNL     1       4.178   3.101  11.265  0.00  0.00    +0.000 A 
ATOM     24  C   UNL     1       4.887   2.081  10.644  0.00  0.00    +0.000 A 
ATOM     25  C   UNL     1       6.204   1.822  11.026  0.00  0.00    +0.000 A 
ATOM     26  C   UNL     1       6.810   2.571  12.044  0.00  0.00    +0.000 A 
ENDBRANCH  18  21
ENDBRANCH   2  15
TORSDOF 3
ENDMDL
MODEL 8
REMARK VINA RESULT:      -6.6      3.527      6.537
REMARK  Name = 
REMARK  4 active torsions:
REMARK  status: ('A' for Active; 'I' for Inactive)
REMARK    1  A    between atoms: C_1  and  C_2
REMARK    2  A    between atoms: C_2  and  N_3
REMARK    3  A    between atoms: C_2  and  C_13
REMARK    4  A    between atoms: N_6  and  C_7
REMARK                            x       y       z     vdW  Elec       q    Type
REMARK                         _______ _______ _______ _____ _____    ______ ____
ROOT
ATOM      1  C   UNL     1       7.479   4.523  17.344  0.00  0.00    +0.000 C 
ATOM      2  C   UNL     1       7.087   5.997  17.274  0.00  0.00    +0.000 C 
ENDROOT
BRANCH   2   3
ATOM      3  C   UNL     1       5.547   6.196  17.284  0.00  0.00    +0.000 C 
ATOM      4  O   UNL     1       5.053   7.238  16.845  0.00  0.00    +0.000 OA
ATOM      5  N   UNL     1       4.741   5.118  17.670  0.00  0.00    +0.000 N 
ATOM      6  C   UNL     1       3.283   5.194  17.492  0.00  0.00    +0.000 C 
ATOM      7  C   UNL     1       2.568   5.335  18.835  0.00  0.00    +0.000 C 
ATOM      8  C   UNL     1       3.005   4.235  19.805  0.00  0.00    +0.000 C 
ATOM      9  C   UNL     1       4.528   4.200  19.923  0.00  0.00    +0.000 C 
ATOM     10  C   UNL     1       5.180   4.043  18.557  0.00  0.00    +0.000 C 
ATOM     11  O   UNL     1       2.519   2.964  19.341  0.00  0.00    +0.000 OA
ATOM     12  C   UNL     1       2.058   2.297  20.514  0.00  0.00    +0.000 C 
ATOM     13  C   UNL     1       1.581   3.419  21.394  0.00  0.00    +0.000 C 
ATOM     14  O   UNL     1       2.473   4.496  21.115  0.00  0.00    +0.000 OA
ENDBRANCH   2   3
BRANCH   2  15
ATOM     15  N   UNL     1       7.719   6.730  18.371  0.00  0.00    +0.000 N 
ATOM     16  C   UNL     1       8.135   8.025  18.119  0.00  0.00    +0.000 C 
ATOM     17  O   UNL     1       7.911   8.548  17.038  0.00  0.00    +0.000 OA
ATOM     18  N   UNL     1       8.784   8.611  19.183  0.00  0.00    +0.000 N 
ATOM     19  H   UNL     1       8.228   6.191  19.055  0.00  0.00    +0.000 HD
ATOM     20  H   UNL     1       9.122   8.011  19.918  0.00  0.00    +0.000 HD
BRANCH  18  21
ATOM     21  C   UNL     1       9.206   9.965  19.201  0.00  0.00    +0.000 A 
ATOM     22  C   UNL     1       9.265  10.711  20.383  0.00  0.00    +0.000 A 
ATOM     23  C   UNL     1       9.625  12.057  20.372  0.00  0.00    +0.000 A 
ATOM     24  C   UNL     1       9.946  12.673  19.171  0.00  0.00    +0.000 A 
ATOM     25  C   UNL     1       9.931  11.933  17.987  0.00  0.00    +0.000 A 
ATOM     26  C   UNL     1       9.577  10.577  18.002  0.00  0.00    +0.000 A 
ENDBRANCH  18  21
ENDBRANCH   2  15
TORSDOF 3
ENDMDL
MODEL 9
REMARK VINA RESULT:      -6.6      6.929      9.349
REMARK  Name = 
REMARK  4 active torsions:
REMARK  status: ('A' for Active; 'I' for Inactive)
REMARK    1  A    between atoms: C_1  and  C_2
REMARK    2  A    between atoms: C_2  and  N_3
REMARK    3  A    between atoms: C_2  and  C_13
REMARK    4  A    between atoms: N_6  and  C_7
REMARK                            x       y       z     vdW  Elec       q    Type
REMARK                         _______ _______ _______ _____ _____    ______ ____
ROOT
ATOM      1  C   UNL     1      -0.813  10.019  19.210  0.00  0.00    +0.000 C 
ATOM      2  C   UNL     1       0.693  10.259  19.271  0.00  0.00    +0.000 C 
ENDROOT
BRANCH   2   3
ATOM      3  C   UNL     1       1.069  11.380  20.277  0.00  0.00    +0.000 C 
ATOM      4  O   UNL     1       1.089  11.147  21.489  0.00  0.00    +0.000 OA
ATOM      5  N   UNL     1       1.517  12.606  19.769  0.00  0.00    +0.000 N 
ATOM      6  C   UNL     1       2.080  13.615  20.679  0.00  0.00    +0.000 C 
ATOM      7  C   UNL     1       1.130  14.800  20.848  0.00  0.00    +0.000 C 
ATOM      8  C   UNL     1       0.720  15.370  19.488  0.00  0.00    +0.000 C 
ATOM      9  C   UNL     1       0.167  14.265  18.590  0.00  0.00    +0.000 C 
ATOM     10  C   UNL     1       1.162  13.123  18.448  0.00  0.00    +0.000 C 
ATOM     11  O   UNL     1       1.858  15.987  18.863  0.00  0.00    +0.000 OA
ATOM     12  C   UNL     1       1.355  17.193  18.292  0.00  0.00    +0.000 C 
ATOM     13  C   UNL     1       0.245  17.589  19.227  0.00  0.00    +0.000 C 
ATOM     14  O   UNL     1      -0.316  16.352  19.660  0.00  0.00    +0.000 OA
ENDBRANCH   2   3
BRANCH   2  15
ATOM     15  N   UNL     1       1.381   9.010  19.594  0.00  0.00    +0.000 N 
ATOM     16  C   UNL     1       2.031   8.353  18.565  0.00  0.00    +0.000 C 
ATOM     17  O   UNL     1       2.080   8.846  17.448  0.00  0.00    +0.000 OA
ATOM     18  N   UNL     1       2.587   7.151  18.944  0.00  0.00    +0.000 N 
ATOM     19  H   UNL     1       1.008   8.457  20.350  0.00  0.00    +0.000 HD
ATOM     20  H   UNL     1       2.277   6.739  19.809  0.00  0.00    +0.000 HD
BRANCH  18  21
ATOM     21  C   UNL     1       3.392   6.350  18.093  0.00  0.00    +0.000 A 
ATOM     22  C   UNL     1       4.495   6.869  17.407  0.00  0.00    +0.000 A 
ATOM     23  C   UNL     1       5.238   6.081  16.530  0.00  0.00    +0.000 A 
ATOM     24  C   UNL     1       4.890   4.752  16.337  0.00  0.00    +0.000 A 
ATOM     25  C   UNL     1       3.816   4.208  17.044  0.00  0.00    +0.000 A 
ATOM     26  C   UNL     1       3.076   4.999  17.933  0.00  0.00    +0.000 A 
ENDBRANCH  18  21
ENDBRANCH   2  15
TORSDOF 3
ENDMDL
