MODEL 1
REMARK VINA RESULT:      -7.0      0.000      0.000
REMARK  Name = 
REMARK  7 active torsions:
REMARK  status: ('A' for Active; 'I' for Inactive)
REMARK    1  A    between atoms: N_1  and  C_2
REMARK    2  A    between atoms: C_5  and  C_6
REMARK    3  A    between atoms: C_7  and  C_8
REMARK    4  A    between atoms: C_11  and  O_12
REMARK    5  A    between atoms: O_12  and  C_13
REMARK    6  A    between atoms: C_13  and  C_14
REMARK    7  A    between atoms: C_14  and  N_15
REMARK                            x       y       z     vdW  Elec       q    Type
REMARK                         _______ _______ _______ _____ _____    ______ ____
ROOT
ATOM      1  C   UNL     1       7.584  15.940  18.785  0.00  0.00    +0.000 A 
ATOM      2  C   UNL     1       8.762  15.293  18.599  0.00  0.00    +0.000 A 
ATOM      3  C   UNL     1       9.945  16.070  18.176  0.00  0.00    +0.000 A 
ATOM      4  C   UNL     1      11.185  15.473  17.899  0.00  0.00    +0.000 A 
ATOM      5  C   UNL     1      12.274  16.241  17.472  0.00  0.00    +0.000 A 
ATOM      6  C   UNL     1      12.137  17.619  17.316  0.00  0.00    +0.000 A 
ATOM      7  C   UNL     1      10.912  18.225  17.582  0.00  0.00    +0.000 A 
ATOM      8  C   UNL     1       9.836  17.443  18.006  0.00  0.00    +0.000 A 
ATOM      9  O   UNL     1       8.626  18.106  18.246  0.00  0.00    +0.000 OA
ATOM     10  C   UNL     1       7.483  17.420  18.629  0.00  0.00    +0.000 A 
ATOM     11  O   UNL     1       6.431  18.025  18.821  0.00  0.00    +0.000 OA
ENDROOT
BRANCH   1  15
ATOM     12  C   UNL     1       3.889  13.931  19.726  0.00  0.00    +0.000 A 
ATOM     13  C   UNL     1       4.264  14.154  18.399  0.00  0.00    +0.000 A 
ATOM     14  C   UNL     1       5.486  14.759  18.087  0.00  0.00    +0.000 A 
ATOM     15  C   UNL     1       6.336  15.201  19.107  0.00  0.00    +0.000 A 
ATOM     16  C   UNL     1       5.947  15.009  20.441  0.00  0.00    +0.000 A 
ATOM     17  C   UNL     1       4.724  14.401  20.741  0.00  0.00    +0.000 A 
BRANCH  12  18
ATOM     18  N   UNL     1       2.600  13.470  20.023  0.00  0.00    +0.000 N 
ATOM     19  H   UNL     1       2.572  12.512  20.351  0.00  0.00    +0.000 HD
ATOM     20  H   UNL     1       2.067  14.099  20.615  0.00  0.00    +0.000 HD
ENDBRANCH  12  18
ENDBRANCH   1  15
BRANCH   2  21
ATOM     21  C   UNL     1       8.788  13.814  18.692  0.00  0.00    +0.000 A 
ATOM     22  C   UNL     1       9.166  13.253  19.909  0.00  0.00    +0.000 A 
ATOM     23  C   UNL     1       9.242  11.874  20.044  0.00  0.00    +0.000 A 
ATOM     24  C   UNL     1       8.937  11.024  18.972  0.00  0.00    +0.000 A 
ATOM     25  C   UNL     1       8.531  11.585  17.760  0.00  0.00    +0.000 A 
ATOM     26  C   UNL     1       8.454  12.978  17.618  0.00  0.00    +0.000 A 
BRANCH  24  27
ATOM     27  O   UNL     1       9.011   9.645  19.031  0.00  0.00    +0.000 OA
BRANCH  27  28
ATOM     28  C   UNL     1       8.201   9.018  18.031  0.00  0.00    +0.000 C 
BRANCH  28  29
ATOM     29  C   UNL     1       7.943   7.526  18.252  0.00  0.00    +0.000 C 
BRANCH  29  30
ATOM     30  N   UNL     1       7.234   6.921  17.095  0.00  0.00    +0.000 NA
ATOM     31  C   UNL     1       7.499   5.476  17.036  0.00  0.00    +0.000 C 
ATOM     32  C   UNL     1       6.840   4.832  15.812  0.00  0.00    +0.000 C 
ATOM     33  C   UNL     1       5.341   5.096  15.784  0.00  0.00    +0.000 C 
ATOM     34  C   UNL     1       5.076   6.590  15.891  0.00  0.00    +0.000 C 
ATOM     35  C   UNL     1       5.785   7.193  17.103  0.00  0.00    +0.000 C 
ENDBRANCH  29  30
ENDBRANCH  28  29
ENDBRANCH  27  28
ENDBRANCH  24  27
ENDBRANCH   2  21
TORSDOF 7
ENDMDL
MODEL 2
REMARK VINA RESULT:      -6.9      8.178     13.378
REMARK  Name = 
REMARK  7 active torsions:
REMARK  status: ('A' for Active; 'I' for Inactive)
REMARK    1  A    between atoms: N_1  and  C_2
REMARK    2  A    between atoms: C_5  and  C_6
REMARK    3  A    between atoms: C_7  and  C_8
REMARK    4  A    between atoms: C_11  and  O_12
REMARK    5  A    between atoms: O_12  and  C_13
REMARK    6  A    between atoms: C_13  and  C_14
REMARK    7  A    between atoms: C_14  and  N_15
REMARK                            x       y       z     vdW  Elec       q    Type
REMARK                         _______ _______ _______ _____ _____    ______ ____
ROOT
ATOM      1  C   UNL     1      -2.392  11.921  18.632  0.00  0.00    +0.000 A 
ATOM      2  C   UNL     1      -3.138  12.259  19.713  0.00  0.00    +0.000 A 
ATOM      3  C   UNL     1      -4.605  12.098  19.646  0.00  0.00    +0.000 A 
ATOM      4  C   UNL     1      -5.459  12.483  20.693  0.00  0.00    +0.000 A 
ATOM      5  C   UNL     1      -6.846  12.340  20.579  0.00  0.00    +0.000 A 
ATOM      6  C   UNL     1      -7.400  11.813  19.414  0.00  0.00    +0.000 A 
ATOM      7  C   UNL     1      -6.567  11.432  18.365  0.00  0.00    +0.000 A 
ATOM      8  C   UNL     1      -5.185  11.581  18.496  0.00  0.00    +0.000 A 
ATOM      9  O   UNL     1      -4.399  11.193  17.403  0.00  0.00    +0.000 OA
ATOM     10  C   UNL     1      -3.020  11.338  17.411  0.00  0.00    +0.000 A 
ATOM     11  O   UNL     1      -2.355  11.002  16.434  0.00  0.00    +0.000 OA
ENDROOT
BRANCH   1  15
ATOM     12  C   UNL     1       1.863  12.564  18.387  0.00  0.00    +0.000 A 
ATOM     13  C   UNL     1       0.967  13.601  18.116  0.00  0.00    +0.000 A 
ATOM     14  C   UNL     1      -0.413  13.413  18.244  0.00  0.00    +0.000 A 
ATOM     15  C   UNL     1      -0.925  12.158  18.599  0.00  0.00    +0.000 A 
ATOM     16  C   UNL     1      -0.029  11.107  18.838  0.00  0.00    +0.000 A 
ATOM     17  C   UNL     1       1.349  11.308  18.709  0.00  0.00    +0.000 A 
BRANCH  12  18
ATOM     18  N   UNL     1       3.226  12.723  18.103  0.00  0.00    +0.000 N 
ATOM     19  H   UNL     1       3.519  12.285  17.238  0.00  0.00    +0.000 HD
ATOM     20  H   UNL     1       3.550  13.681  18.183  0.00  0.00    +0.000 HD
ENDBRANCH  12  18
ENDBRANCH   1  15
BRANCH   2  21
ATOM     21  C   UNL     1      -2.473  12.905  20.869  0.00  0.00    +0.000 A 
ATOM     22  C   UNL     1      -2.380  14.295  20.862  0.00  0.00    +0.000 A 
ATOM     23  C   UNL     1      -1.738  14.953  21.902  0.00  0.00    +0.000 A 
ATOM     24  C   UNL     1      -1.179  14.242  22.972  0.00  0.00    +0.000 A 
ATOM     25  C   UNL     1      -1.295  12.850  22.994  0.00  0.00    +0.000 A 
ATOM     26  C   UNL     1      -1.943  12.181  21.945  0.00  0.00    +0.000 A 
BRANCH  24  27
ATOM     27  O   UNL     1      -0.507  14.831  24.027  0.00  0.00    +0.000 OA
BRANCH  27  28
ATOM     28  C   UNL     1      -1.314  15.800  24.706  0.00  0.00    +0.000 C 
BRANCH  28  29
ATOM     29  C   UNL     1      -2.454  15.216  25.544  0.00  0.00    +0.000 C 
BRANCH  29  30
ATOM     30  N   UNL     1      -3.780  15.575  24.979  0.00  0.00    +0.000 NA
ATOM     31  C   UNL     1      -3.674  16.801  24.173  0.00  0.00    +0.000 C 
ATOM     32  C   UNL     1      -5.039  17.240  23.633  0.00  0.00    +0.000 C 
ATOM     33  C   UNL     1      -5.701  16.131  22.826  0.00  0.00    +0.000 C 
ATOM     34  C   UNL     1      -5.764  14.855  23.651  0.00  0.00    +0.000 C 
ATOM     35  C   UNL     1      -4.388  14.481  24.200  0.00  0.00    +0.000 C 
ENDBRANCH  29  30
ENDBRANCH  28  29
ENDBRANCH  27  28
ENDBRANCH  24  27
ENDBRANCH   2  21
TORSDOF 7
ENDMDL
MODEL 3
REMARK VINA RESULT:      -6.9      5.479      8.973
REMARK  Name = 
REMARK  7 active torsions:
REMARK  status: ('A' for Active; 'I' for Inactive)
REMARK    1  A    between atoms: N_1  and  C_2
REMARK    2  A    between atoms: C_5  and  C_6
REMARK    3  A    between atoms: C_7  and  C_8
REMARK    4  A    between atoms: C_11  and  O_12
REMARK    5  A    between atoms: O_12  and  C_13
REMARK    6  A    between atoms: C_13  and  C_14
REMARK    7  A    between atoms: C_14  and  N_15
REMARK                            x       y       z     vdW  Elec       q    Type
REMARK                         _______ _______ _______ _____ _____    ______ ____
ROOT
ATOM      1  C   UNL     1       0.425  14.374  21.223  0.00  0.00    +0.000 A 
ATOM      2  C   UNL     1      -0.345  13.264  21.348  0.00  0.00    +0.000 A 
ATOM      3  C   UNL     1      -1.422  13.253  22.359  0.00  0.00    +0.000 A 
ATOM      4  C   UNL     1      -2.224  12.126  22.601  0.00  0.00    +0.000 A 
ATOM      5  C   UNL     1      -3.216  12.146  23.588  0.00  0.00    +0.000 A 
ATOM      6  C   UNL     1      -3.418  13.296  24.350  0.00  0.00    +0.000 A 
ATOM      7  C   UNL     1      -2.627  14.420  24.126  0.00  0.00    +0.000 A 
ATOM      8  C   UNL     1      -1.642  14.381  23.136  0.00  0.00    +0.000 A 
ATOM      9  O   UNL     1      -0.869  15.537  22.966  0.00  0.00    +0.000 OA
ATOM     10  C   UNL     1       0.163  15.593  22.042  0.00  0.00    +0.000 A 
ATOM     11  O   UNL     1       0.834  16.615  21.921  0.00  0.00    +0.000 OA
ENDROOT
BRANCH   1  15
ATOM     12  C   UNL     1       3.817  14.627  18.575  0.00  0.00    +0.000 A 
ATOM     13  C   UNL     1       3.985  14.302  19.924  0.00  0.00    +0.000 A 
ATOM     14  C   UNL     1       2.884  14.168  20.776  0.00  0.00    +0.000 A 
ATOM     15  C   UNL     1       1.589  14.409  20.300  0.00  0.00    +0.000 A 
ATOM     16  C   UNL     1       1.421  14.767  18.955  0.00  0.00    +0.000 A 
ATOM     17  C   UNL     1       2.529  14.896  18.112  0.00  0.00    +0.000 A 
BRANCH  12  18
ATOM     18  N   UNL     1       4.933  14.909  17.777  0.00  0.00    +0.000 N 
ATOM     19  H   UNL     1       4.740  14.900  16.783  0.00  0.00    +0.000 HD
ATOM     20  H   UNL     1       5.442  15.739  18.066  0.00  0.00    +0.000 HD
ENDBRANCH  12  18
ENDBRANCH   1  15
BRANCH   2  21
ATOM     21  C   UNL     1       0.008  12.056  20.566  0.00  0.00    +0.000 A 
ATOM     22  C   UNL     1       0.830  11.112  21.178  0.00  0.00    +0.000 A 
ATOM     23  C   UNL     1       1.221   9.977  20.482  0.00  0.00    +0.000 A 
ATOM     24  C   UNL     1       0.798   9.755  19.164  0.00  0.00    +0.000 A 
ATOM     25  C   UNL     1      -0.048  10.687  18.559  0.00  0.00    +0.000 A 
ATOM     26  C   UNL     1      -0.445  11.836  19.259  0.00  0.00    +0.000 A 
BRANCH  24  27
ATOM     27  O   UNL     1       1.166   8.659  18.406  0.00  0.00    +0.000 OA
BRANCH  27  28
ATOM     28  C   UNL     1       2.178   7.875  19.049  0.00  0.00    +0.000 C 
BRANCH  28  29
ATOM     29  C   UNL     1       2.751   6.740  18.197  0.00  0.00    +0.000 C 
BRANCH  29  30
ATOM     30  N   UNL     1       2.514   5.416  18.828  0.00  0.00    +0.000 NA
ATOM     31  C   UNL     1       1.921   5.588  20.162  0.00  0.00    +0.000 C 
ATOM     32  C   UNL     1       1.728   4.244  20.871  0.00  0.00    +0.000 C 
ATOM     33  C   UNL     1       0.883   3.291  20.036  0.00  0.00    +0.000 C 
ATOM     34  C   UNL     1       1.477   3.155  18.643  0.00  0.00    +0.000 C 
ATOM     35  C   UNL     1       1.688   4.523  17.994  0.00  0.00    +0.000 C 
ENDBRANCH  29  30
ENDBRANCH  28  29
ENDBRANCH  27  28
ENDBRANCH  24  27
ENDBRANCH   2  21
TORSDOF 7
ENDMDL
MODEL 4
REMARK VINA RESULT:      -6.8      6.531      9.808
REMARK  Name = 
REMARK  7 active torsions:
REMARK  status: ('A' for Active; 'I' for Inactive)
REMARK    1  A    between atoms: N_1  and  C_2
REMARK    2  A    between atoms: C_5  and  C_6
REMARK    3  A    between atoms: C_7  and  C_8
REMARK    4  A    between atoms: C_11  and  O_12
REMARK    5  A    between atoms: O_12  and  C_13
REMARK    6  A    between atoms: C_13  and  C_14
REMARK    7  A    between atoms: C_14  and  N_15
REMARK                            x       y       z     vdW  Elec       q    Type
REMARK                         _______ _______ _______ _____ _____    ______ ____
ROOT
ATOM      1  C   UNL     1      -0.937  13.990  21.227  0.00  0.00    +0.000 A 
ATOM      2  C   UNL     1      -1.494  12.903  21.817  0.00  0.00    +0.000 A 
ATOM      3  C   UNL     1      -2.606  13.098  22.769  0.00  0.00    +0.000 A 
ATOM      4  C   UNL     1      -3.198  12.037  23.473  0.00  0.00    +0.000 A 
ATOM      5  C   UNL     1      -4.230  12.268  24.389  0.00  0.00    +0.000 A 
ATOM      6  C   UNL     1      -4.685  13.565  24.615  0.00  0.00    +0.000 A 
ATOM      7  C   UNL     1      -4.105  14.629  23.929  0.00  0.00    +0.000 A 
ATOM      8  C   UNL     1      -3.075  14.380  23.019  0.00  0.00    +0.000 A 
ATOM      9  O   UNL     1      -2.522  15.491  22.368  0.00  0.00    +0.000 OA
ATOM     10  C   UNL     1      -1.467  15.362  21.478  0.00  0.00    +0.000 A 
ATOM     11  O   UNL     1      -0.991  16.354  20.931  0.00  0.00    +0.000 OA
ENDROOT
BRANCH   1  15
ATOM     12  C   UNL     1       2.499  13.481  18.675  0.00  0.00    +0.000 A 
ATOM     13  C   UNL     1       1.214  13.572  18.134  0.00  0.00    +0.000 A 
ATOM     14  C   UNL     1       0.101  13.789  18.953  0.00  0.00    +0.000 A 
ATOM     15  C   UNL     1       0.251  13.868  20.343  0.00  0.00    +0.000 A 
ATOM     16  C   UNL     1       1.536  13.744  20.890  0.00  0.00    +0.000 A 
ATOM     17  C   UNL     1       2.642  13.530  20.062  0.00  0.00    +0.000 A 
BRANCH  12  18
ATOM     18  N   UNL     1       3.577  13.109  17.861  0.00  0.00    +0.000 N 
ATOM     19  H   UNL     1       3.799  12.122  17.900  0.00  0.00    +0.000 HD
ATOM     20  H   UNL     1       3.509  13.455  16.910  0.00  0.00    +0.000 HD
ENDBRANCH  12  18
ENDBRANCH   1  15
BRANCH   2  21
ATOM     21  C   UNL     1      -0.879  11.573  21.593  0.00  0.00    +0.000 A 
ATOM     22  C   UNL     1      -0.288  10.946  22.687  0.00  0.00    +0.000 A 
ATOM     23  C   UNL     1       0.334   9.715  22.530  0.00  0.00    +0.000 A 
ATOM     24  C   UNL     1       0.374   9.080  21.281  0.00  0.00    +0.000 A 
ATOM     25  C   UNL     1      -0.243   9.694  20.189  0.00  0.00    +0.000 A 
ATOM     26  C   UNL     1      -0.871  10.939  20.344  0.00  0.00    +0.000 A 
BRANCH  24  27
ATOM     27  O   UNL     1       0.993   7.866  21.049  0.00  0.00    +0.000 OA
BRANCH  27  28
ATOM     28  C   UNL     1       1.793   7.886  19.862  0.00  0.00    +0.000 C 
BRANCH  28  29
ATOM     29  C   UNL     1       2.679   6.656  19.661  0.00  0.00    +0.000 C 
BRANCH  29  30
ATOM     30  N   UNL     1       1.881   5.403  19.690  0.00  0.00    +0.000 NA
ATOM     31  C   UNL     1       2.116   4.622  18.466  0.00  0.00    +0.000 C 
ATOM     32  C   UNL     1       1.253   3.356  18.431  0.00  0.00    +0.000 C 
ATOM     33  C   UNL     1       1.484   2.491  19.663  0.00  0.00    +0.000 C 
ATOM     34  C   UNL     1       1.284   3.319  20.923  0.00  0.00    +0.000 C 
ATOM     35  C   UNL     1       2.134   4.589  20.893  0.00  0.00    +0.000 C 
ENDBRANCH  29  30
ENDBRANCH  28  29
ENDBRANCH  27  28
ENDBRANCH  24  27
ENDBRANCH   2  21
TORSDOF 7
ENDMDL
MODEL 5
REMARK VINA RESULT:      -6.8      5.384      8.899
REMARK  Name = 
REMARK  7 active torsions:
REMARK  status: ('A' for Active; 'I' for Inactive)
REMARK    1  A    between atoms: N_1  and  C_2
REMARK    2  A    between atoms: C_5  and  C_6
REMARK    3  A    between atoms: C_7  and  C_8
REMARK    4  A    between atoms: C_11  and  O_12
REMARK    5  A    between atoms: O_12  and  C_13
REMARK    6  A    between atoms: C_13  and  C_14
REMARK    7  A    between atoms: C_14  and  N_15
REMARK                            x       y       z     vdW  Elec       q    Type
REMARK                         _______ _______ _______ _____ _____    ______ ____
ROOT
ATOM      1  C   UNL     1       0.196  14.585  21.525  0.00  0.00    +0.000 A 
ATOM      2  C   UNL     1      -0.621  13.501  21.533  0.00  0.00    +0.000 A 
ATOM      3  C   UNL     1      -1.686  13.417  22.553  0.00  0.00    +0.000 A 
ATOM      4  C   UNL     1      -2.534  12.304  22.676  0.00  0.00    +0.000 A 
ATOM      5  C   UNL     1      -3.512  12.251  23.674  0.00  0.00    +0.000 A 
ATOM      6  C   UNL     1      -3.655  13.311  24.568  0.00  0.00    +0.000 A 
ATOM      7  C   UNL     1      -2.818  14.420  24.463  0.00  0.00    +0.000 A 
ATOM      8  C   UNL     1      -1.847  14.456  23.460  0.00  0.00    +0.000 A 
ATOM      9  O   UNL     1      -1.027  15.590  23.412  0.00  0.00    +0.000 OA
ATOM     10  C   UNL     1      -0.003  15.710  22.484  0.00  0.00    +0.000 A 
ATOM     11  O   UNL     1       0.710  16.710  22.472  0.00  0.00    +0.000 OA
ENDROOT
BRANCH   1  15
ATOM     12  C   UNL     1       3.512  14.709  18.774  0.00  0.00    +0.000 A 
ATOM     13  C   UNL     1       2.247  15.160  18.390  0.00  0.00    +0.000 A 
ATOM     14  C   UNL     1       1.180  15.171  19.294  0.00  0.00    +0.000 A 
ATOM     15  C   UNL     1       1.350  14.678  20.593  0.00  0.00    +0.000 A 
ATOM     16  C   UNL     1       2.610  14.193  20.971  0.00  0.00    +0.000 A 
ATOM     17  C   UNL     1       3.670  14.190  20.059  0.00  0.00    +0.000 A 
BRANCH  12  18
ATOM     18  N   UNL     1       4.524  14.560  17.817  0.00  0.00    +0.000 N 
ATOM     19  H   UNL     1       5.461  14.618  18.197  0.00  0.00    +0.000 HD
ATOM     20  H   UNL     1       4.399  13.754  17.213  0.00  0.00    +0.000 HD
ENDBRANCH  12  18
ENDBRANCH   1  15
BRANCH   2  21
ATOM     21  C   UNL     1      -0.330  12.378  20.610  0.00  0.00    +0.000 A 
ATOM     22  C   UNL     1       0.495  11.359  21.079  0.00  0.00    +0.000 A 
ATOM     23  C   UNL     1       0.830  10.299  20.248  0.00  0.00    +0.000 A 
ATOM     24  C   UNL     1       0.346  10.229  18.935  0.00  0.00    +0.000 A 
ATOM     25  C   UNL     1      -0.504  11.236  18.473  0.00  0.00    +0.000 A 
ATOM     26  C   UNL     1      -0.844  12.310  19.309  0.00  0.00    +0.000 A 
BRANCH  24  27
ATOM     27  O   UNL     1       0.655   9.215  18.048  0.00  0.00    +0.000 OA
BRANCH  27  28
ATOM     28  C   UNL     1       2.047   8.877  18.080  0.00  0.00    +0.000 C 
BRANCH  28  29
ATOM     29  C   UNL     1       2.371   7.547  18.762  0.00  0.00    +0.000 C 
BRANCH  29  30
ATOM     30  N   UNL     1       2.944   6.570  17.800  0.00  0.00    +0.000 NA
ATOM     31  C   UNL     1       4.316   6.958  17.438  0.00  0.00    +0.000 C 
ATOM     32  C   UNL     1       4.912   6.010  16.392  0.00  0.00    +0.000 C 
ATOM     33  C   UNL     1       4.880   4.565  16.869  0.00  0.00    +0.000 C 
ATOM     34  C   UNL     1       3.467   4.186  17.285  0.00  0.00    +0.000 C 
ATOM     35  C   UNL     1       2.901   5.182  18.297  0.00  0.00    +0.000 C 
ENDBRANCH  29  30
ENDBRANCH  28  29
ENDBRANCH  27  28
ENDBRANCH  24  27
ENDBRANCH   2  21
TORSDOF 7
ENDMDL
MODEL 6
REMARK VINA RESULT:      -6.8      8.184     13.363
REMARK  Name = 
REMARK  7 active torsions:
REMARK  status: ('A' for Active; 'I' for Inactive)
REMARK    1  A    between atoms: N_1  and  C_2
REMARK    2  A    between atoms: C_5  and  C_6
REMARK    3  A    between atoms: C_7  and  C_8
REMARK    4  A    between atoms: C_11  and  O_12
REMARK    5  A    between atoms: O_12  and  C_13
REMARK    6  A    between atoms: C_13  and  C_14
REMARK    7  A    between atoms: C_14  and  N_15
REMARK                            x       y       z     vdW  Elec       q    Type
REMARK                         _______ _______ _______ _____ _____    ______ ____
ROOT
ATOM      1  C   UNL     1      -2.384  11.940  18.577  0.00  0.00    +0.000 A 
ATOM      2  C   UNL     1      -3.107  12.277  19.674  0.00  0.00    +0.000 A 
ATOM      3  C   UNL     1      -4.571  12.076  19.653  0.00  0.00    +0.000 A 
ATOM      4  C   UNL     1      -5.404  12.456  20.718  0.00  0.00    +0.000 A 
ATOM      5  C   UNL     1      -6.790  12.274  20.648  0.00  0.00    +0.000 A 
ATOM      6  C   UNL     1      -7.363  11.710  19.509  0.00  0.00    +0.000 A 
ATOM      7  C   UNL     1      -6.550  11.333  18.443  0.00  0.00    +0.000 A 
ATOM      8  C   UNL     1      -5.169  11.522  18.530  0.00  0.00    +0.000 A 
ATOM      9  O   UNL     1      -4.405  11.136  17.421  0.00  0.00    +0.000 OA
ATOM     10  C   UNL     1      -3.031  11.318  17.385  0.00  0.00    +0.000 A 
ATOM     11  O   UNL     1      -2.386  10.982  16.395  0.00  0.00    +0.000 OA
ENDROOT
BRANCH   1  15
ATOM     12  C   UNL     1       1.841  12.788  18.491  0.00  0.00    +0.000 A 
ATOM     13  C   UNL     1       1.374  11.517  18.834  0.00  0.00    +0.000 A 
ATOM     14  C   UNL     1       0.007  11.221  18.813  0.00  0.00    +0.000 A 
ATOM     15  C   UNL     1      -0.926  12.216  18.496  0.00  0.00    +0.000 A 
ATOM     16  C   UNL     1      -0.462  13.501  18.184  0.00  0.00    +0.000 A 
ATOM     17  C   UNL     1       0.908  13.785  18.205  0.00  0.00    +0.000 A 
BRANCH  12  18
ATOM     18  N   UNL     1       3.193  13.110  18.667  0.00  0.00    +0.000 N 
ATOM     19  H   UNL     1       3.468  13.213  19.637  0.00  0.00    +0.000 HD
ATOM     20  H   UNL     1       3.826  12.512  18.146  0.00  0.00    +0.000 HD
ENDBRANCH  12  18
ENDBRANCH   1  15
BRANCH   2  21
ATOM     21  C   UNL     1      -2.427  12.962  20.798  0.00  0.00    +0.000 A 
ATOM     22  C   UNL     1      -1.906  12.166  21.815  0.00  0.00    +0.000 A 
ATOM     23  C   UNL     1      -1.288  12.754  22.910  0.00  0.00    +0.000 A 
ATOM     24  C   UNL     1      -1.170  14.146  23.012  0.00  0.00    +0.000 A 
ATOM     25  C   UNL     1      -1.666  14.945  21.979  0.00  0.00    +0.000 A 
ATOM     26  C   UNL     1      -2.293  14.355  20.872  0.00  0.00    +0.000 A 
BRANCH  24  27
ATOM     27  O   UNL     1      -0.586  14.798  24.082  0.00  0.00    +0.000 OA
BRANCH  27  28
ATOM     28  C   UNL     1      -1.473  15.748  24.684  0.00  0.00    +0.000 C 
BRANCH  28  29
ATOM     29  C   UNL     1      -2.620  15.136  25.492  0.00  0.00    +0.000 C 
BRANCH  29  30
ATOM     30  N   UNL     1      -3.940  15.479  24.903  0.00  0.00    +0.000 NA
ATOM     31  C   UNL     1      -3.840  16.720  24.121  0.00  0.00    +0.000 C 
ATOM     32  C   UNL     1      -5.201  17.142  23.557  0.00  0.00    +0.000 C 
ATOM     33  C   UNL     1      -5.822  16.036  22.715  0.00  0.00    +0.000 C 
ATOM     34  C   UNL     1      -5.879  14.744  23.517  0.00  0.00    +0.000 C 
ATOM     35  C   UNL     1      -4.508  14.387  24.091  0.00  0.00    +0.000 C 
ENDBRANCH  29  30
ENDBRANCH  28  29
ENDBRANCH  27  28
ENDBRANCH  24  27
ENDBRANCH   2  21
TORSDOF 7
ENDMDL
MODEL 7
REMARK VINA RESULT:      -6.7      7.130     10.376
REMARK  Name = 
REMARK  7 active torsions:
REMARK  status: ('A' for Active; 'I' for Inactive)
REMARK    1  A    between atoms: N_1  and  C_2
REMARK    2  A    between atoms: C_5  and  C_6
REMARK    3  A    between atoms: C_7  and  C_8
REMARK    4  A    between atoms: C_11  and  O_12
REMARK    5  A    between atoms: O_12  and  C_13
REMARK    6  A    between atoms: C_13  and  C_14
REMARK    7  A    between atoms: C_14  and  N_15
REMARK                            x       y       z     vdW  Elec       q    Type
REMARK                         _______ _______ _______ _____ _____    ______ ____
ROOT
ATOM      1  C   UNL     1      -0.071  14.010  21.818  0.00  0.00    +0.000 A 
ATOM      2  C   UNL     1       0.605  13.546  20.737  0.00  0.00    +0.000 A 
ATOM      3  C   UNL     1       1.926  14.125  20.419  0.00  0.00    +0.000 A 
ATOM      4  C   UNL     1       2.666  13.750  19.285  0.00  0.00    +0.000 A 
ATOM      5  C   UNL     1       3.901  14.344  19.003  0.00  0.00    +0.000 A 
ATOM      6  C   UNL     1       4.415  15.323  19.851  0.00  0.00    +0.000 A 
ATOM      7  C   UNL     1       3.691  15.709  20.977  0.00  0.00    +0.000 A 
ATOM      8  C   UNL     1       2.460  15.106  21.243  0.00  0.00    +0.000 A 
ATOM      9  O   UNL     1       1.772  15.545  22.382  0.00  0.00    +0.000 OA
ATOM     10  C   UNL     1       0.523  15.044  22.715  0.00  0.00    +0.000 A 
ATOM     11  O   UNL     1      -0.065  15.455  23.713  0.00  0.00    +0.000 OA
ENDROOT
BRANCH   1  15
ATOM     12  C   UNL     1      -4.062  12.751  22.847  0.00  0.00    +0.000 A 
ATOM     13  C   UNL     1      -3.853  13.835  21.990  0.00  0.00    +0.000 A 
ATOM     14  C   UNL     1      -2.561  14.215  21.611  0.00  0.00    +0.000 A 
ATOM     15  C   UNL     1      -1.447  13.544  22.130  0.00  0.00    +0.000 A 
ATOM     16  C   UNL     1      -1.653  12.478  23.016  0.00  0.00    +0.000 A 
ATOM     17  C   UNL     1      -2.949  12.105  23.385  0.00  0.00    +0.000 A 
BRANCH  12  18
ATOM     18  N   UNL     1      -5.347  12.483  23.337  0.00  0.00    +0.000 N 
ATOM     19  H   UNL     1      -5.355  11.948  24.197  0.00  0.00    +0.000 HD
ATOM     20  H   UNL     1      -5.945  13.301  23.383  0.00  0.00    +0.000 HD
ENDBRANCH  12  18
ENDBRANCH   1  15
BRANCH   2  21
ATOM     21  C   UNL     1      -0.062  12.576  19.838  0.00  0.00    +0.000 A 
ATOM     22  C   UNL     1      -0.725  13.085  18.723  0.00  0.00    +0.000 A 
ATOM     23  C   UNL     1      -1.397  12.228  17.864  0.00  0.00    +0.000 A 
ATOM     24  C   UNL     1      -1.419  10.845  18.092  0.00  0.00    +0.000 A 
ATOM     25  C   UNL     1      -0.732  10.331  19.193  0.00  0.00    +0.000 A 
ATOM     26  C   UNL     1      -0.052  11.194  20.066  0.00  0.00    +0.000 A 
BRANCH  24  27
ATOM     27  O   UNL     1      -2.085   9.937  17.290  0.00  0.00    +0.000 OA
BRANCH  27  28
ATOM     28  C   UNL     1      -3.493   9.915  17.555  0.00  0.00    +0.000 C 
BRANCH  28  29
ATOM     29  C   UNL     1      -4.300  10.997  16.835  0.00  0.00    +0.000 C 
BRANCH  29  30
ATOM     30  N   UNL     1      -5.492  11.399  17.627  0.00  0.00    +0.000 NA
ATOM     31  C   UNL     1      -5.120  11.610  19.034  0.00  0.00    +0.000 C 
ATOM     32  C   UNL     1      -6.340  11.957  19.893  0.00  0.00    +0.000 C 
ATOM     33  C   UNL     1      -7.072  13.177  19.351  0.00  0.00    +0.000 C 
ATOM     34  C   UNL     1      -7.412  12.970  17.884  0.00  0.00    +0.000 C 
ATOM     35  C   UNL     1      -6.172  12.586  17.076  0.00  0.00    +0.000 C 
ENDBRANCH  29  30
ENDBRANCH  28  29
ENDBRANCH  27  28
ENDBRANCH  24  27
ENDBRANCH   2  21
TORSDOF 7
ENDMDL
MODEL 8
REMARK VINA RESULT:      -6.7      8.227     13.193
REMARK  Name = 
REMARK  7 active torsions:
REMARK  status: ('A' for Active; 'I' for Inactive)
REMARK    1  A    between atoms: N_1  and  C_2
REMARK    2  A    between atoms: C_5  and  C_6
REMARK    3  A    between atoms: C_7  and  C_8
REMARK    4  A    between atoms: C_11  and  O_12
REMARK    5  A    between atoms: O_12  and  C_13
REMARK    6  A    between atoms: C_13  and  C_14
REMARK    7  A    between atoms: C_14  and  N_15
REMARK                            x       y       z     vdW  Elec       q    Type
REMARK                         _______ _______ _______ _____ _____    ______ ____
ROOT
ATOM      1  C   UNL     1      -2.321  11.892  18.522  0.00  0.00    +0.000 A 
ATOM      2  C   UNL     1      -3.081  12.241  19.590  0.00  0.00    +0.000 A 
ATOM      3  C   UNL     1      -4.547  12.081  19.507  0.00  0.00    +0.000 A 
ATOM      4  C   UNL     1      -5.413  12.476  20.539  0.00  0.00    +0.000 A 
ATOM      5  C   UNL     1      -6.799  12.334  20.409  0.00  0.00    +0.000 A 
ATOM      6  C   UNL     1      -7.339  11.796  19.242  0.00  0.00    +0.000 A 
ATOM      7  C   UNL     1      -6.493  11.404  18.208  0.00  0.00    +0.000 A 
ATOM      8  C   UNL     1      -5.112  11.553  18.355  0.00  0.00    +0.000 A 
ATOM      9  O   UNL     1      -4.313  11.154  17.275  0.00  0.00    +0.000 OA
ATOM     10  C   UNL     1      -2.934  11.298  17.299  0.00  0.00    +0.000 A 
ATOM     11  O   UNL     1      -2.258  10.951  16.333  0.00  0.00    +0.000 OA
ENDROOT
BRANCH   1  15
ATOM     12  C   UNL     1       1.936  12.537  18.321  0.00  0.00    +0.000 A 
ATOM     13  C   UNL     1       1.042  13.587  18.094  0.00  0.00    +0.000 A 
ATOM     14  C   UNL     1      -0.338  13.396  18.208  0.00  0.00    +0.000 A 
ATOM     15  C   UNL     1      -0.854  12.128  18.505  0.00  0.00    +0.000 A 
ATOM     16  C   UNL     1       0.040  11.065  18.700  0.00  0.00    +0.000 A 
ATOM     17  C   UNL     1       1.419  11.269  18.585  0.00  0.00    +0.000 A 
BRANCH  12  18
ATOM     18  N   UNL     1       3.300  12.706  18.050  0.00  0.00    +0.000 N 
ATOM     19  H   UNL     1       3.682  12.014  17.417  0.00  0.00    +0.000 HD
ATOM     20  H   UNL     1       3.549  13.654  17.785  0.00  0.00    +0.000 HD
ENDBRANCH  12  18
ENDBRANCH   1  15
BRANCH   2  21
ATOM     21  C   UNL     1      -2.429  12.898  20.748  0.00  0.00    +0.000 A 
ATOM     22  C   UNL     1      -1.890  12.075  21.734  0.00  0.00    +0.000 A 
ATOM     23  C   UNL     1      -1.298  12.634  22.858  0.00  0.00    +0.000 A 
ATOM     24  C   UNL     1      -1.224  14.024  23.021  0.00  0.00    +0.000 A 
ATOM     25  C   UNL     1      -1.739  14.851  22.019  0.00  0.00    +0.000 A 
ATOM     26  C   UNL     1      -2.340  14.290  20.883  0.00  0.00    +0.000 A 
BRANCH  24  27
ATOM     27  O   UNL     1      -0.668  14.647  24.122  0.00  0.00    +0.000 OA
BRANCH  27  28
ATOM     28  C   UNL     1      -1.500  15.701  24.623  0.00  0.00    +0.000 C 
BRANCH  28  29
ATOM     29  C   UNL     1      -2.714  15.236  25.429  0.00  0.00    +0.000 C 
BRANCH  29  30
ATOM     30  N   UNL     1      -3.747  14.629  24.550  0.00  0.00    +0.000 NA
ATOM     31  C   UNL     1      -4.163  13.323  25.082  0.00  0.00    +0.000 C 
ATOM     32  C   UNL     1      -5.177  12.636  24.161  0.00  0.00    +0.000 C 
ATOM     33  C   UNL     1      -6.393  13.520  23.917  0.00  0.00    +0.000 C 
ATOM     34  C   UNL     1      -5.951  14.884  23.410  0.00  0.00    +0.000 C 
ATOM     35  C   UNL     1      -4.911  15.510  24.340  0.00  0.00    +0.000 C 
ENDBRANCH  29  30
ENDBRANCH  28  29
ENDBRANCH  27  28
ENDBRANCH  24  27
ENDBRANCH   2  21
TORSDOF 7
ENDMDL
MODEL 9
REMARK VINA RESULT:      -6.7      5.987      7.971
REMARK  Name = 
REMARK  7 active torsions:
REMARK  status: ('A' for Active; 'I' for Inactive)
REMARK    1  A    between atoms: N_1  and  C_2
REMARK    2  A    between atoms: C_5  and  C_6
REMARK    3  A    between atoms: C_7  and  C_8
REMARK    4  A    between atoms: C_11  and  O_12
REMARK    5  A    between atoms: O_12  and  C_13
REMARK    6  A    between atoms: C_13  and  C_14
REMARK    7  A    between atoms: C_14  and  N_15
REMARK                            x       y       z     vdW  Elec       q    Type
REMARK                         _______ _______ _______ _____ _____    ______ ____
ROOT
ATOM      1  C   UNL     1      -0.445  14.664  20.481  0.00  0.00    +0.000 A 
ATOM      2  C   UNL     1       0.570  14.003  19.869  0.00  0.00    +0.000 A 
ATOM      3  C   UNL     1       1.528  14.771  19.047  0.00  0.00    +0.000 A 
ATOM      4  C   UNL     1       2.569  14.162  18.326  0.00  0.00    +0.000 A 
ATOM      5  C   UNL     1       3.437  14.921  17.536  0.00  0.00    +0.000 A 
ATOM      6  C   UNL     1       3.276  16.303  17.452  0.00  0.00    +0.000 A 
ATOM      7  C   UNL     1       2.246  16.922  18.156  0.00  0.00    +0.000 A 
ATOM      8  C   UNL     1       1.388  16.148  18.941  0.00  0.00    +0.000 A 
ATOM      9  O   UNL     1       0.363  16.823  19.615  0.00  0.00    +0.000 OA
ATOM     10  C   UNL     1      -0.570  16.147  20.386  0.00  0.00    +0.000 A 
ATOM     11  O   UNL     1      -1.467  16.763  20.957  0.00  0.00    +0.000 OA
ENDROOT
BRANCH   1  15
ATOM     12  C   UNL     1      -3.571  12.689  22.696  0.00  0.00    +0.000 A 
ATOM     13  C   UNL     1      -3.692  12.897  21.319  0.00  0.00    +0.000 A 
ATOM     14  C   UNL     1      -2.658  13.490  20.587  0.00  0.00    +0.000 A 
ATOM     15  C   UNL     1      -1.499  13.936  21.234  0.00  0.00    +0.000 A 
ATOM     16  C   UNL     1      -1.390  13.759  22.620  0.00  0.00    +0.000 A 
ATOM     17  C   UNL     1      -2.429  13.162  23.342  0.00  0.00    +0.000 A 
BRANCH  12  18
ATOM     18  N   UNL     1      -4.672  12.239  23.436  0.00  0.00    +0.000 N 
ATOM     19  H   UNL     1      -5.040  11.348  23.125  0.00  0.00    +0.000 HD
ATOM     20  H   UNL     1      -4.529  12.271  24.440  0.00  0.00    +0.000 HD
ENDBRANCH  12  18
ENDBRANCH   1  15
BRANCH   2  21
ATOM     21  C   UNL     1       0.603  12.523  19.932  0.00  0.00    +0.000 A 
ATOM     22  C   UNL     1       0.141  11.822  18.821  0.00  0.00    +0.000 A 
ATOM     23  C   UNL     1       0.115  10.435  18.836  0.00  0.00    +0.000 A 
ATOM     24  C   UNL     1       0.555   9.716  19.956  0.00  0.00    +0.000 A 
ATOM     25  C   UNL     1       1.045  10.417  21.060  0.00  0.00    +0.000 A 
ATOM     26  C   UNL     1       1.070  11.819  21.049  0.00  0.00    +0.000 A 
BRANCH  24  27
ATOM     27  O   UNL     1       0.538   8.336  20.047  0.00  0.00    +0.000 OA
BRANCH  27  28
ATOM     28  C   UNL     1       1.842   7.796  20.289  0.00  0.00    +0.000 C 
BRANCH  28  29
ATOM     29  C   UNL     1       2.464   7.059  19.102  0.00  0.00    +0.000 C 
BRANCH  29  30
ATOM     30  N   UNL     1       2.364   5.585  19.266  0.00  0.00    +0.000 NA
ATOM     31  C   UNL     1       1.598   5.260  20.478  0.00  0.00    +0.000 C 
ATOM     32  C   UNL     1       1.536   3.748  20.716  0.00  0.00    +0.000 C 
ATOM     33  C   UNL     1       0.956   3.019  19.512  0.00  0.00    +0.000 C 
ATOM     34  C   UNL     1       1.725   3.396  18.256  0.00  0.00    +0.000 C 
ATOM     35  C   UNL     1       1.794   4.914  18.083  0.00  0.00    +0.000 C 
ENDBRANCH  29  30
ENDBRANCH  28  29
ENDBRANCH  27  28
ENDBRANCH  24  27
ENDBRANCH   2  21
TORSDOF 7
ENDMDL
