MODEL 1
REMARK VINA RESULT:      -7.5      0.000      0.000
REMARK  Name = 
REMARK  5 active torsions:
REMARK  status: ('A' for Active; 'I' for Inactive)
REMARK    1  A    between atoms: C_1  and  N_2
REMARK    2  A    between atoms: N_2  and  C_3
REMARK    3  A    between atoms: N_2  and  C_4
REMARK    4  A    between atoms: N_16  and  S_17
REMARK    5  A    between atoms: S_17  and  C_20
REMARK                            x       y       z     vdW  Elec       q    Type
REMARK                         _______ _______ _______ _____ _____    ______ ____
ROOT
ATOM      1  C   UNL     1       1.501   8.987  19.613  0.00  0.00    +0.000 C 
ATOM      2  C   UNL     1       1.884   8.990  18.106  0.00  0.00    +0.000 C 
ATOM      3  C   UNL     1       3.107   8.089  17.815  0.00  0.00    +0.000 C 
ATOM      4  C   UNL     1       2.992   6.789  18.539  0.00  0.00    +0.000 A 
ATOM      5  C   UNL     1       2.100   6.537  19.560  0.00  0.00    +0.000 A 
ATOM      6  C   UNL     1       2.284   5.199  19.988  0.00  0.00    +0.000 A 
ATOM      7  C   UNL     1       1.620   4.404  20.945  0.00  0.00    +0.000 A 
ATOM      8  C   UNL     1       2.059   3.104  21.180  0.00  0.00    +0.000 A 
ATOM      9 CL   UNL     1       1.242   2.131  22.340  0.00  0.00    +0.000 Cl
ATOM     10  C   UNL     1       3.149   2.591  20.491  0.00  0.00    +0.000 A 
ATOM     11  C   UNL     1       3.816   3.356  19.524  0.00  0.00    +0.000 A 
ATOM     12  C   UNL     1       3.365   4.664  19.264  0.00  0.00    +0.000 A 
ATOM     13  N   UNL     1       3.779   5.665  18.387  0.00  0.00    +0.000 N 
ATOM     14  C   UNL     1       1.113   7.544  20.056  0.00  0.00    +0.000 C 
ENDROOT
BRANCH   1  16
ATOM     15  C   UNL     1      -0.512  10.233  18.981  0.00  0.00    +0.000 C 
ATOM     16  N   UNL     1       0.478   9.979  20.028  0.00  0.00    +0.000 NA
ATOM     17  C   UNL     1      -0.187   9.693  21.296  0.00  0.00    +0.000 C 
ENDBRANCH   1  16
BRANCH  13  18
ATOM     18  S   UNL     1       4.981   5.484  17.171  0.00  0.00    +0.000 S 
ATOM     19  O   UNL     1       5.339   4.078  17.196  0.00  0.00    +0.000 OA
ATOM     20  O   UNL     1       4.480   6.112  15.966  0.00  0.00    +0.000 OA
BRANCH  18  21
ATOM     21  C   UNL     1       6.392   6.419  17.708  0.00  0.00    +0.000 A 
ATOM     22  C   UNL     1       7.201   5.870  18.713  0.00  0.00    +0.000 A 
ATOM     23  C   UNL     1       8.306   6.581  19.181  0.00  0.00    +0.000 A 
ATOM     24  C   UNL     1       8.609   7.831  18.642  0.00  0.00    +0.000 A 
ATOM     25  C   UNL     1       7.815   8.364  17.621  0.00  0.00    +0.000 A 
ATOM     26  C   UNL     1       6.705   7.657  17.147  0.00  0.00    +0.000 A 
ENDBRANCH  18  21
ENDBRANCH  13  18
TORSDOF 3
ENDMDL
MODEL 2
REMARK VINA RESULT:      -7.4      0.434      1.182
REMARK  Name = 
REMARK  5 active torsions:
REMARK  status: ('A' for Active; 'I' for Inactive)
REMARK    1  A    between atoms: C_1  and  N_2
REMARK    2  A    between atoms: N_2  and  C_3
REMARK    3  A    between atoms: N_2  and  C_4
REMARK    4  A    between atoms: N_16  and  S_17
REMARK    5  A    between atoms: S_17  and  C_20
REMARK                            x       y       z     vdW  Elec       q    Type
REMARK                         _______ _______ _______ _____ _____    ______ ____
ROOT
ATOM      1  C   UNL     1       1.477   8.963  19.407  0.00  0.00    +0.000 C 
ATOM      2  C   UNL     1       1.920   8.934  17.917  0.00  0.00    +0.000 C 
ATOM      3  C   UNL     1       3.169   8.050  17.697  0.00  0.00    +0.000 C 
ATOM      4  C   UNL     1       3.049   6.767  18.450  0.00  0.00    +0.000 A 
ATOM      5  C   UNL     1       2.123   6.524  19.443  0.00  0.00    +0.000 A 
ATOM      6  C   UNL     1       2.314   5.202  19.913  0.00  0.00    +0.000 A 
ATOM      7  C   UNL     1       1.627   4.420  20.865  0.00  0.00    +0.000 A 
ATOM      8  C   UNL     1       2.081   3.134  21.151  0.00  0.00    +0.000 A 
ATOM      9 CL   UNL     1       1.237   2.177  22.304  0.00  0.00    +0.000 Cl
ATOM     10  C   UNL     1       3.206   2.624  20.519  0.00  0.00    +0.000 A 
ATOM     11  C   UNL     1       3.897   3.377  19.558  0.00  0.00    +0.000 A 
ATOM     12  C   UNL     1       3.432   4.669  19.246  0.00  0.00    +0.000 A 
ATOM     13  N   UNL     1       3.862   5.654  18.359  0.00  0.00    +0.000 N 
ATOM     14  C   UNL     1       1.099   7.525  19.873  0.00  0.00    +0.000 C 
ENDROOT
BRANCH   1  16
ATOM     15  C   UNL     1       0.962  11.149  20.387  0.00  0.00    +0.000 C 
ATOM     16  N   UNL     1       0.422   9.945  19.755  0.00  0.00    +0.000 NA
ATOM     17  C   UNL     1      -0.477  10.306  18.662  0.00  0.00    +0.000 C 
ENDBRANCH   1  16
BRANCH  13  18
ATOM     18  S   UNL     1       5.113   5.466  17.196  0.00  0.00    +0.000 S 
ATOM     19  O   UNL     1       5.492   4.066  17.269  0.00  0.00    +0.000 OA
ATOM     20  O   UNL     1       4.651   6.057  15.958  0.00  0.00    +0.000 OA
BRANCH  18  21
ATOM     21  C   UNL     1       6.488   6.435  17.766  0.00  0.00    +0.000 A 
ATOM     22  C   UNL     1       6.680   7.702  17.199  0.00  0.00    +0.000 A 
ATOM     23  C   UNL     1       7.760   8.487  17.601  0.00  0.00    +0.000 A 
ATOM     24  C   UNL     1       8.641   8.013  18.572  0.00  0.00    +0.000 A 
ATOM     25  C   UNL     1       8.433   6.760  19.155  0.00  0.00    +0.000 A 
ATOM     26  C   UNL     1       7.351   5.966  18.757  0.00  0.00    +0.000 A 
ENDBRANCH  18  21
ENDBRANCH  13  18
TORSDOF 3
ENDMDL
MODEL 3
REMARK VINA RESULT:      -7.2      0.775      1.371
REMARK  Name = 
REMARK  5 active torsions:
REMARK  status: ('A' for Active; 'I' for Inactive)
REMARK    1  A    between atoms: C_1  and  N_2
REMARK    2  A    between atoms: N_2  and  C_3
REMARK    3  A    between atoms: N_2  and  C_4
REMARK    4  A    between atoms: N_16  and  S_17
REMARK    5  A    between atoms: S_17  and  C_20
REMARK                            x       y       z     vdW  Elec       q    Type
REMARK                         _______ _______ _______ _____ _____    ______ ____
ROOT
ATOM      1  C   UNL     1       1.145   9.132  20.333  0.00  0.00    +0.000 C 
ATOM      2  C   UNL     1       1.363   9.314  18.804  0.00  0.00    +0.000 C 
ATOM      3  C   UNL     1       2.566   8.491  18.285  0.00  0.00    +0.000 C 
ATOM      4  C   UNL     1       2.556   7.116  18.865  0.00  0.00    +0.000 A 
ATOM      5  C   UNL     1       1.786   6.724  19.940  0.00  0.00    +0.000 A 
ATOM      6  C   UNL     1       2.044   5.354  20.192  0.00  0.00    +0.000 A 
ATOM      7  C   UNL     1       1.503   4.437  21.118  0.00  0.00    +0.000 A 
ATOM      8  C   UNL     1       1.993   3.133  21.156  0.00  0.00    +0.000 A 
ATOM      9 CL   UNL     1       1.327   2.013  22.278  0.00  0.00    +0.000 Cl
ATOM     10  C   UNL     1       3.012   2.736  20.302  0.00  0.00    +0.000 A 
ATOM     11  C   UNL     1       3.554   3.624  19.363  0.00  0.00    +0.000 A 
ATOM     12  C   UNL     1       3.050   4.938  19.302  0.00  0.00    +0.000 A 
ATOM     13  N   UNL     1       3.346   6.042  18.505  0.00  0.00    +0.000 N 
ATOM     14  C   UNL     1       0.838   7.637  20.648  0.00  0.00    +0.000 C 
ENDROOT
BRANCH   1  16
ATOM     15  C   UNL     1      -0.054   9.742  22.380  0.00  0.00    +0.000 C 
ATOM     16  N   UNL     1       0.154  10.038  20.963  0.00  0.00    +0.000 NA
ATOM     17  C   UNL     1       0.405  11.464  20.774  0.00  0.00    +0.000 C 
ENDBRANCH   1  16
BRANCH  13  18
ATOM     18  S   UNL     1       4.412   6.036  17.156  0.00  0.00    +0.000 S 
ATOM     19  O   UNL     1       4.450   4.656  16.707  0.00  0.00    +0.000 OA
ATOM     20  O   UNL     1       4.000   7.106  16.270  0.00  0.00    +0.000 OA
BRANCH  18  21
ATOM     21  C   UNL     1       6.022   6.454  17.779  0.00  0.00    +0.000 A 
ATOM     22  C   UNL     1       6.624   7.629  17.310  0.00  0.00    +0.000 A 
ATOM     23  C   UNL     1       7.898   7.982  17.755  0.00  0.00    +0.000 A 
ATOM     24  C   UNL     1       8.564   7.171  18.673  0.00  0.00    +0.000 A 
ATOM     25  C   UNL     1       7.950   6.012  19.158  0.00  0.00    +0.000 A 
ATOM     26  C   UNL     1       6.673   5.651  18.716  0.00  0.00    +0.000 A 
ENDBRANCH  18  21
ENDBRANCH  13  18
TORSDOF 3
ENDMDL
MODEL 4
REMARK VINA RESULT:      -6.7      1.456      1.617
REMARK  Name = 
REMARK  5 active torsions:
REMARK  status: ('A' for Active; 'I' for Inactive)
REMARK    1  A    between atoms: C_1  and  N_2
REMARK    2  A    between atoms: N_2  and  C_3
REMARK    3  A    between atoms: N_2  and  C_4
REMARK    4  A    between atoms: N_16  and  S_17
REMARK    5  A    between atoms: S_17  and  C_20
REMARK                            x       y       z     vdW  Elec       q    Type
REMARK                         _______ _______ _______ _____ _____    ______ ____
ROOT
ATOM      1  C   UNL     1       1.718   8.631  19.252  0.00  0.00    +0.000 C 
ATOM      2  C   UNL     1       2.385   9.148  17.946  0.00  0.00    +0.000 C 
ATOM      3  C   UNL     1       3.602   8.287  17.533  0.00  0.00    +0.000 C 
ATOM      4  C   UNL     1       3.293   6.833  17.672  0.00  0.00    +0.000 A 
ATOM      5  C   UNL     1       2.211   6.323  18.358  0.00  0.00    +0.000 A 
ATOM      6  C   UNL     1       2.252   4.911  18.263  0.00  0.00    +0.000 A 
ATOM      7  C   UNL     1       1.382   3.899  18.719  0.00  0.00    +0.000 A 
ATOM      8  C   UNL     1       1.712   2.563  18.503  0.00  0.00    +0.000 A 
ATOM      9 CL   UNL     1       0.646   1.329  19.051  0.00  0.00    +0.000 Cl
ATOM     10  C   UNL     1       2.892   2.222  17.856  0.00  0.00    +0.000 A 
ATOM     11  C   UNL     1       3.765   3.210  17.380  0.00  0.00    +0.000 A 
ATOM     12  C   UNL     1       3.428   4.564  17.574  0.00  0.00    +0.000 A 
ATOM     13  N   UNL     1       4.046   5.764  17.228  0.00  0.00    +0.000 N 
ATOM     14  C   UNL     1       1.192   7.180  19.037  0.00  0.00    +0.000 C 
ENDROOT
BRANCH   1  16
ATOM     15  C   UNL     1       0.737   9.536  21.306  0.00  0.00    +0.000 C 
ATOM     16  N   UNL     1       0.679   9.507  19.845  0.00  0.00    +0.000 NA
ATOM     17  C   UNL     1       0.632  10.866  19.312  0.00  0.00    +0.000 C 
ENDBRANCH   1  16
BRANCH  13  18
ATOM     18  S   UNL     1       5.451   5.912  16.249  0.00  0.00    +0.000 S 
ATOM     19  O   UNL     1       5.860   4.549  15.963  0.00  0.00    +0.000 OA
ATOM     20  O   UNL     1       5.144   6.846  15.185  0.00  0.00    +0.000 OA
BRANCH  18  21
ATOM     21  C   UNL     1       6.703   6.658  17.264  0.00  0.00    +0.000 A 
ATOM     22  C   UNL     1       7.252   5.891  18.301  0.00  0.00    +0.000 A 
ATOM     23  C   UNL     1       8.221   6.446  19.137  0.00  0.00    +0.000 A 
ATOM     24  C   UNL     1       8.647   7.758  18.933  0.00  0.00    +0.000 A 
ATOM     25  C   UNL     1       8.116   8.512  17.882  0.00  0.00    +0.000 A 
ATOM     26  C   UNL     1       7.143   7.962  17.040  0.00  0.00    +0.000 A 
ENDBRANCH  18  21
ENDBRANCH  13  18
TORSDOF 3
ENDMDL
MODEL 5
REMARK VINA RESULT:      -6.4      5.825      8.723
REMARK  Name = 
REMARK  5 active torsions:
REMARK  status: ('A' for Active; 'I' for Inactive)
REMARK    1  A    between atoms: C_1  and  N_2
REMARK    2  A    between atoms: N_2  and  C_3
REMARK    3  A    between atoms: N_2  and  C_4
REMARK    4  A    between atoms: N_16  and  S_17
REMARK    5  A    between atoms: S_17  and  C_20
REMARK                            x       y       z     vdW  Elec       q    Type
REMARK                         _______ _______ _______ _____ _____    ______ ____
ROOT
ATOM      1  C   UNL     1      -4.474  11.943  18.164  0.00  0.00    +0.000 C 
ATOM      2  C   UNL     1      -3.284  11.069  17.676  0.00  0.00    +0.000 C 
ATOM      3  C   UNL     1      -1.917  11.728  17.975  0.00  0.00    +0.000 C 
ATOM      4  C   UNL     1      -1.891  12.293  19.355  0.00  0.00    +0.000 A 
ATOM      5  C   UNL     1      -3.006  12.489  20.143  0.00  0.00    +0.000 A 
ATOM      6  C   UNL     1      -2.584  13.034  21.381  0.00  0.00    +0.000 A 
ATOM      7  C   UNL     1      -3.279  13.373  22.560  0.00  0.00    +0.000 A 
ATOM      8  C   UNL     1      -2.584  13.939  23.626  0.00  0.00    +0.000 A 
ATOM      9 CL   UNL     1      -3.430  14.343  25.068  0.00  0.00    +0.000 Cl
ATOM     10  C   UNL     1      -1.221  14.182  23.532  0.00  0.00    +0.000 A 
ATOM     11  C   UNL     1      -0.505  13.840  22.376  0.00  0.00    +0.000 A 
ATOM     12  C   UNL     1      -1.195  13.246  21.301  0.00  0.00    +0.000 A 
ATOM     13  N   UNL     1      -0.802  12.786  20.047  0.00  0.00    +0.000 N 
ATOM     14  C   UNL     1      -4.391  12.131  19.709  0.00  0.00    +0.000 C 
ENDROOT
BRANCH   1  16
ATOM     15  C   UNL     1      -6.441  10.584  18.697  0.00  0.00    +0.000 C 
ATOM     16  N   UNL     1      -5.825  11.502  17.739  0.00  0.00    +0.000 NA
ATOM     17  C   UNL     1      -6.752  12.578  17.400  0.00  0.00    +0.000 C 
ENDBRANCH   1  16
BRANCH  13  18
ATOM     18  S   UNL     1       0.821  12.683  19.491  0.00  0.00    +0.000 S 
ATOM     19  O   UNL     1       0.808  13.276  18.166  0.00  0.00    +0.000 OA
ATOM     20  O   UNL     1       1.676  13.201  20.539  0.00  0.00    +0.000 OA
BRANCH  18  21
ATOM     21  C   UNL     1       1.190  10.954  19.313  0.00  0.00    +0.000 A 
ATOM     22  C   UNL     1       1.775  10.526  18.114  0.00  0.00    +0.000 A 
ATOM     23  C   UNL     1       2.059   9.174  17.924  0.00  0.00    +0.000 A 
ATOM     24  C   UNL     1       1.769   8.253  18.930  0.00  0.00    +0.000 A 
ATOM     25  C   UNL     1       1.209   8.687  20.136  0.00  0.00    +0.000 A 
ATOM     26  C   UNL     1       0.921  10.042  20.334  0.00  0.00    +0.000 A 
ENDBRANCH  18  21
ENDBRANCH  13  18
TORSDOF 3
ENDMDL
MODEL 6
REMARK VINA RESULT:      -6.4      4.739      7.441
REMARK  Name = 
REMARK  5 active torsions:
REMARK  status: ('A' for Active; 'I' for Inactive)
REMARK    1  A    between atoms: C_1  and  N_2
REMARK    2  A    between atoms: N_2  and  C_3
REMARK    3  A    between atoms: N_2  and  C_4
REMARK    4  A    between atoms: N_16  and  S_17
REMARK    5  A    between atoms: S_17  and  C_20
REMARK                            x       y       z     vdW  Elec       q    Type
REMARK                         _______ _______ _______ _____ _____    ______ ____
ROOT
ATOM      1  C   UNL     1       0.635  14.937  19.709  0.00  0.00    +0.000 C 
ATOM      2  C   UNL     1       1.852  14.088  20.176  0.00  0.00    +0.000 C 
ATOM      3  C   UNL     1       1.421  12.714  20.739  0.00  0.00    +0.000 C 
ATOM      4  C   UNL     1       0.381  12.088  19.871  0.00  0.00    +0.000 A 
ATOM      5  C   UNL     1      -0.326  12.752  18.891  0.00  0.00    +0.000 A 
ATOM      6  C   UNL     1      -1.211  11.829  18.281  0.00  0.00    +0.000 A 
ATOM      7  C   UNL     1      -2.115  11.944  17.205  0.00  0.00    +0.000 A 
ATOM      8  C   UNL     1      -2.897  10.849  16.847  0.00  0.00    +0.000 A 
ATOM      9 CL   UNL     1      -3.992  10.986  15.527  0.00  0.00    +0.000 Cl
ATOM     10  C   UNL     1      -2.803   9.654  17.547  0.00  0.00    +0.000 A 
ATOM     11  C   UNL     1      -1.901   9.511  18.611  0.00  0.00    +0.000 A 
ATOM     12  C   UNL     1      -1.090  10.606  18.965  0.00  0.00    +0.000 A 
ATOM     13  N   UNL     1      -0.109  10.798  19.936  0.00  0.00    +0.000 N 
ATOM     14  C   UNL     1      -0.116  14.195  18.563  0.00  0.00    +0.000 C 
ENDROOT
BRANCH   1  16
ATOM     15  C   UNL     1       2.145  16.485  18.557  0.00  0.00    +0.000 C 
ATOM     16  N   UNL     1       0.923  16.347  19.350  0.00  0.00    +0.000 NA
ATOM     17  C   UNL     1      -0.178  17.064  18.712  0.00  0.00    +0.000 C 
ENDBRANCH   1  16
BRANCH  13  18
ATOM     18  S   UNL     1       0.528   9.574  20.960  0.00  0.00    +0.000 S 
ATOM     19  O   UNL     1       1.434  10.263  21.860  0.00  0.00    +0.000 OA
ATOM     20  O   UNL     1      -0.589   8.800  21.463  0.00  0.00    +0.000 OA
BRANCH  18  21
ATOM     21  C   UNL     1       1.494   8.499  19.927  0.00  0.00    +0.000 A 
ATOM     22  C   UNL     1       1.829   8.948  18.643  0.00  0.00    +0.000 A 
ATOM     23  C   UNL     1       2.567   8.127  17.790  0.00  0.00    +0.000 A 
ATOM     24  C   UNL     1       2.978   6.866  18.222  0.00  0.00    +0.000 A 
ATOM     25  C   UNL     1       2.664   6.432  19.514  0.00  0.00    +0.000 A 
ATOM     26  C   UNL     1       1.924   7.250  20.374  0.00  0.00    +0.000 A 
ENDBRANCH  18  21
ENDBRANCH  13  18
TORSDOF 3
ENDMDL
MODEL 7
REMARK VINA RESULT:      -6.4      6.750     11.293
REMARK  Name = 
REMARK  5 active torsions:
REMARK  status: ('A' for Active; 'I' for Inactive)
REMARK    1  A    between atoms: C_1  and  N_2
REMARK    2  A    between atoms: N_2  and  C_3
REMARK    3  A    between atoms: N_2  and  C_4
REMARK    4  A    between atoms: N_16  and  S_17
REMARK    5  A    between atoms: S_17  and  C_20
REMARK                            x       y       z     vdW  Elec       q    Type
REMARK                         _______ _______ _______ _____ _____    ______ ____
ROOT
ATOM      1  C   UNL     1      -0.367  10.320  19.371  0.00  0.00    +0.000 C 
ATOM      2  C   UNL     1      -1.125  10.417  18.017  0.00  0.00    +0.000 C 
ATOM      3  C   UNL     1      -2.631  10.711  18.213  0.00  0.00    +0.000 C 
ATOM      4  C   UNL     1      -2.834  11.772  19.243  0.00  0.00    +0.000 A 
ATOM      5  C   UNL     1      -1.864  12.208  20.120  0.00  0.00    +0.000 A 
ATOM      6  C   UNL     1      -2.427  13.221  20.935  0.00  0.00    +0.000 A 
ATOM      7  C   UNL     1      -1.886  14.043  21.946  0.00  0.00    +0.000 A 
ATOM      8  C   UNL     1      -2.713  14.943  22.613  0.00  0.00    +0.000 A 
ATOM      9 CL   UNL     1      -2.051  15.952  23.838  0.00  0.00    +0.000 Cl
ATOM     10  C   UNL     1      -4.063  15.028  22.300  0.00  0.00    +0.000 A 
ATOM     11  C   UNL     1      -4.620  14.233  21.289  0.00  0.00    +0.000 A 
ATOM     12  C   UNL     1      -3.787  13.336  20.594  0.00  0.00    +0.000 A 
ATOM     13  N   UNL     1      -4.006  12.432  19.556  0.00  0.00    +0.000 N 
ATOM     14  C   UNL     1      -0.466  11.679  20.129  0.00  0.00    +0.000 C 
ENDROOT
BRANCH   1  16
ATOM     15  C   UNL     1       1.351   8.888  20.370  0.00  0.00    +0.000 C 
ATOM     16  N   UNL     1       1.033   9.835  19.301  0.00  0.00    +0.000 NA
ATOM     17  C   UNL     1       1.441   9.295  18.007  0.00  0.00    +0.000 C 
ENDBRANCH   1  16
BRANCH  13  18
ATOM     18  S   UNL     1      -5.471  12.271  18.672  0.00  0.00    +0.000 S 
ATOM     19  O   UNL     1      -6.161  13.536  18.846  0.00  0.00    +0.000 OA
ATOM     20  O   UNL     1      -5.134  11.771  17.355  0.00  0.00    +0.000 OA
BRANCH  18  21
ATOM     21  C   UNL     1      -6.422  11.012  19.489  0.00  0.00    +0.000 A 
ATOM     22  C   UNL     1      -7.171  11.380  20.615  0.00  0.00    +0.000 A 
ATOM     23  C   UNL     1      -7.914  10.419  21.300  0.00  0.00    +0.000 A 
ATOM     24  C   UNL     1      -7.916   9.096  20.858  0.00  0.00    +0.000 A 
ATOM     25  C   UNL     1      -7.188   8.737  19.720  0.00  0.00    +0.000 A 
ATOM     26  C   UNL     1      -6.440   9.696  19.027  0.00  0.00    +0.000 A 
ENDBRANCH  18  21
ENDBRANCH  13  18
TORSDOF 3
ENDMDL
MODEL 8
REMARK VINA RESULT:      -6.4      2.152      2.872
REMARK  Name = 
REMARK  5 active torsions:
REMARK  status: ('A' for Active; 'I' for Inactive)
REMARK    1  A    between atoms: C_1  and  N_2
REMARK    2  A    between atoms: N_2  and  C_3
REMARK    3  A    between atoms: N_2  and  C_4
REMARK    4  A    between atoms: N_16  and  S_17
REMARK    5  A    between atoms: S_17  and  C_20
REMARK                            x       y       z     vdW  Elec       q    Type
REMARK                         _______ _______ _______ _____ _____    ______ ____
ROOT
ATOM      1  C   UNL     1       2.180   8.735  18.709  0.00  0.00    +0.000 C 
ATOM      2  C   UNL     1       3.042   8.651  17.417  0.00  0.00    +0.000 C 
ATOM      3  C   UNL     1       4.334   7.828  17.633  0.00  0.00    +0.000 C 
ATOM      4  C   UNL     1       4.046   6.583  18.404  0.00  0.00    +0.000 A 
ATOM      5  C   UNL     1       2.879   6.342  19.097  0.00  0.00    +0.000 A 
ATOM      6  C   UNL     1       2.974   5.060  19.692  0.00  0.00    +0.000 A 
ATOM      7  C   UNL     1       2.067   4.293  20.453  0.00  0.00    +0.000 A 
ATOM      8  C   UNL     1       2.465   3.052  20.946  0.00  0.00    +0.000 A 
ATOM      9 CL   UNL     1       1.356   2.112  21.866  0.00  0.00    +0.000 Cl
ATOM     10  C   UNL     1       3.746   2.574  20.706  0.00  0.00    +0.000 A 
ATOM     11  C   UNL     1       4.659   3.311  19.940  0.00  0.00    +0.000 A 
ATOM     12  C   UNL     1       4.258   4.556  19.418  0.00  0.00    +0.000 A 
ATOM     13  N   UNL     1       4.892   5.515  18.630  0.00  0.00    +0.000 N 
ATOM     14  C   UNL     1       1.736   7.305  19.141  0.00  0.00    +0.000 C 
ENDROOT
BRANCH   1  16
ATOM     15  C   UNL     1       0.175   9.564  19.846  0.00  0.00    +0.000 C 
ATOM     16  N   UNL     1       1.031   9.673  18.666  0.00  0.00    +0.000 NA
ATOM     17  C   UNL     1       1.378  11.070  18.418  0.00  0.00    +0.000 C 
ENDBRANCH   1  16
BRANCH  13  18
ATOM     18  S   UNL     1       6.437   5.335  17.898  0.00  0.00    +0.000 S 
ATOM     19  O   UNL     1       6.995   6.674  17.853  0.00  0.00    +0.000 OA
ATOM     20  O   UNL     1       7.121   4.257  18.582  0.00  0.00    +0.000 OA
BRANCH  18  21
ATOM     21  C   UNL     1       6.150   4.805  16.227  0.00  0.00    +0.000 A 
ATOM     22  C   UNL     1       7.156   5.039  15.280  0.00  0.00    +0.000 A 
ATOM     23  C   UNL     1       6.962   4.660  13.952  0.00  0.00    +0.000 A 
ATOM     24  C   UNL     1       5.772   4.040  13.572  0.00  0.00    +0.000 A 
ATOM     25  C   UNL     1       4.781   3.784  14.524  0.00  0.00    +0.000 A 
ATOM     26  C   UNL     1       4.968   4.162  15.858  0.00  0.00    +0.000 A 
ENDBRANCH  18  21
ENDBRANCH  13  18
TORSDOF 3
ENDMDL
MODEL 9
REMARK VINA RESULT:      -6.3      6.155      9.086
REMARK  Name = 
REMARK  5 active torsions:
REMARK  status: ('A' for Active; 'I' for Inactive)
REMARK    1  A    between atoms: C_1  and  N_2
REMARK    2  A    between atoms: N_2  and  C_3
REMARK    3  A    between atoms: N_2  and  C_4
REMARK    4  A    between atoms: N_16  and  S_17
REMARK    5  A    between atoms: S_17  and  C_20
REMARK                            x       y       z     vdW  Elec       q    Type
REMARK                         _______ _______ _______ _____ _____    ______ ____
ROOT
ATOM      1  C   UNL     1      -5.765  12.805  21.220  0.00  0.00    +0.000 C 
ATOM      2  C   UNL     1      -4.657  13.801  21.668  0.00  0.00    +0.000 C 
ATOM      3  C   UNL     1      -3.237  13.222  21.465  0.00  0.00    +0.000 C 
ATOM      4  C   UNL     1      -3.124  12.550  20.137  0.00  0.00    +0.000 A 
ATOM      5  C   UNL     1      -4.194  12.211  19.336  0.00  0.00    +0.000 A 
ATOM      6  C   UNL     1      -3.692  11.600  18.161  0.00  0.00    +0.000 A 
ATOM      7  C   UNL     1      -4.321  11.117  16.994  0.00  0.00    +0.000 A 
ATOM      8  C   UNL     1      -3.551  10.519  15.999  0.00  0.00    +0.000 A 
ATOM      9 CL   UNL     1      -4.316   9.939  14.572  0.00  0.00    +0.000 Cl
ATOM     10  C   UNL     1      -2.178  10.385  16.152  0.00  0.00    +0.000 A 
ATOM     11  C   UNL     1      -1.529  10.871  17.296  0.00  0.00    +0.000 A 
ATOM     12  C   UNL     1      -2.296  11.497  18.297  0.00  0.00    +0.000 A 
ATOM     13  N   UNL     1      -1.979  12.085  19.520  0.00  0.00    +0.000 N 
ATOM     14  C   UNL     1      -5.615  12.501  19.699  0.00  0.00    +0.000 C 
ENDROOT
BRANCH   1  16
ATOM     15  C   UNL     1      -7.917  13.649  20.410  0.00  0.00    +0.000 C 
ATOM     16  N   UNL     1      -7.157  13.179  21.568  0.00  0.00    +0.000 NA
ATOM     17  C   UNL     1      -7.913  12.159  22.290  0.00  0.00    +0.000 C 
ENDBRANCH   1  16
BRANCH  13  18
ATOM     18  S   UNL     1      -0.388  12.350  20.112  0.00  0.00    +0.000 S 
ATOM     19  O   UNL     1       0.421  12.593  18.931  0.00  0.00    +0.000 OA
ATOM     20  O   UNL     1      -0.476  13.327  21.178  0.00  0.00    +0.000 OA
BRANCH  18  21
ATOM     21  C   UNL     1       0.148  10.820  20.838  0.00  0.00    +0.000 A 
ATOM     22  C   UNL     1       0.824   9.905  20.019  0.00  0.00    +0.000 A 
ATOM     23  C   UNL     1       1.241   8.681  20.542  0.00  0.00    +0.000 A 
ATOM     24  C   UNL     1       0.993   8.376  21.880  0.00  0.00    +0.000 A 
ATOM     25  C   UNL     1       0.341   9.301  22.701  0.00  0.00    +0.000 A 
ATOM     26  C   UNL     1      -0.081  10.531  22.183  0.00  0.00    +0.000 A 
ENDBRANCH  18  21
ENDBRANCH  13  18
TORSDOF 3
ENDMDL
