MODEL 1
REMARK VINA RESULT:      -7.4      0.000      0.000
REMARK  Name = 
REMARK  1 active torsions:
REMARK  status: ('A' for Active; 'I' for Inactive)
REMARK    1  A    between atoms: N_3  and  C_4
REMARK                            x       y       z     vdW  Elec       q    Type
REMARK                         _______ _______ _______ _____ _____    ______ ____
ROOT
ATOM      1  O   UNL     1       4.079   2.344  18.351  0.00  0.00    +0.000 OA
ATOM      2  C   UNL     1       3.497   3.413  18.550  0.00  0.00    +0.000 C 
ATOM      3  N   UNL     1       3.927   4.650  18.024  0.00  0.00    +0.000 N 
ATOM      4  C   UNL     1       3.373   5.867  18.436  0.00  0.00    +0.000 A 
ATOM      5  N   UNL     1       3.763   7.018  17.787  0.00  0.00    +0.000 NA
ATOM      6  C   UNL     1       3.162   8.116  18.082  0.00  0.00    +0.000 A 
ATOM      7  N   UNL     1       2.184   8.219  19.022  0.00  0.00    +0.000 N 
ATOM      8  C   UNL     1       1.795   7.141  19.757  0.00  0.00    +0.000 A 
ATOM      9  O   UNL     1       0.948   7.220  20.637  0.00  0.00    +0.000 OA
ATOM     10  C   UNL     1       2.439   5.865  19.397  0.00  0.00    +0.000 A 
ATOM     11  C   UNL     1       1.914   4.640  20.022  0.00  0.00    +0.000 C 
ATOM     12  C   UNL     1       2.353   4.322  21.448  0.00  0.00    +0.000 C 
ATOM     13  C   UNL     1       2.033   2.823  21.576  0.00  0.00    +0.000 C 
ATOM     14  C   UNL     1       1.991   2.298  20.136  0.00  0.00    +0.000 C 
ATOM     15  N   UNL     1       2.347   3.452  19.329  0.00  0.00    +0.000 N 
ATOM     16  H   UNL     1       1.741   9.100  19.232  0.00  0.00    +0.000 HD
ENDROOT
BRANCH   3  17
ATOM     17  C   UNL     1       4.914   4.584  16.983  0.00  0.00    +0.000 A 
ATOM     18  C   UNL     1       6.269   4.742  17.315  0.00  0.00    +0.000 A 
ATOM     19  C   UNL     1       7.257   4.656  16.336  0.00  0.00    +0.000 A 
ATOM     20  C   UNL     1       6.898   4.449  15.007  0.00  0.00    +0.000 A 
ATOM     21  C   UNL     1       5.553   4.313  14.661  0.00  0.00    +0.000 A 
ATOM     22  C   UNL     1       4.563   4.364  15.647  0.00  0.00    +0.000 A 
ENDBRANCH   3  17
TORSDOF 1
ENDMDL
MODEL 2
REMARK VINA RESULT:      -7.4      0.052      1.055
REMARK  Name = 
REMARK  1 active torsions:
REMARK  status: ('A' for Active; 'I' for Inactive)
REMARK    1  A    between atoms: N_3  and  C_4
REMARK                            x       y       z     vdW  Elec       q    Type
REMARK                         _______ _______ _______ _____ _____    ______ ____
ROOT
ATOM      1  O   UNL     1       4.093   2.357  18.423  0.00  0.00    +0.000 OA
ATOM      2  C   UNL     1       3.508   3.429  18.599  0.00  0.00    +0.000 C 
ATOM      3  N   UNL     1       3.948   4.659  18.068  0.00  0.00    +0.000 N 
ATOM      4  C   UNL     1       3.387   5.881  18.456  0.00  0.00    +0.000 A 
ATOM      5  N   UNL     1       3.791   7.024  17.802  0.00  0.00    +0.000 NA
ATOM      6  C   UNL     1       3.184   8.126  18.073  0.00  0.00    +0.000 A 
ATOM      7  N   UNL     1       2.188   8.239  18.992  0.00  0.00    +0.000 N 
ATOM      8  C   UNL     1       1.784   7.170  19.730  0.00  0.00    +0.000 A 
ATOM      9  O   UNL     1       0.919   7.259  20.592  0.00  0.00    +0.000 OA
ATOM     10  C   UNL     1       2.434   5.891  19.397  0.00  0.00    +0.000 A 
ATOM     11  C   UNL     1       1.895   4.673  20.026  0.00  0.00    +0.000 C 
ATOM     12  C   UNL     1       2.306   4.370  21.464  0.00  0.00    +0.000 C 
ATOM     13  C   UNL     1       1.983   2.872  21.601  0.00  0.00    +0.000 C 
ATOM     14  C   UNL     1       1.970   2.332  20.166  0.00  0.00    +0.000 C 
ATOM     15  N   UNL     1       2.342   3.476  19.354  0.00  0.00    +0.000 N 
ATOM     16  H   UNL     1       1.741   9.124  19.183  0.00  0.00    +0.000 HD
ENDROOT
BRANCH   3  17
ATOM     17  C   UNL     1       4.956   4.582  17.048  0.00  0.00    +0.000 A 
ATOM     18  C   UNL     1       4.565   4.367  15.717  0.00  0.00    +0.000 A 
ATOM     19  C   UNL     1       5.512   4.314  14.696  0.00  0.00    +0.000 A 
ATOM     20  C   UNL     1       6.866   4.437  15.000  0.00  0.00    +0.000 A 
ATOM     21  C   UNL     1       7.268   4.628  16.323  0.00  0.00    +0.000 A 
ATOM     22  C   UNL     1       6.316   4.716  17.343  0.00  0.00    +0.000 A 
ENDBRANCH   3  17
TORSDOF 1
ENDMDL
MODEL 3
REMARK VINA RESULT:      -6.9      1.862      5.592
REMARK  Name = 
REMARK  1 active torsions:
REMARK  status: ('A' for Active; 'I' for Inactive)
REMARK    1  A    between atoms: N_3  and  C_4
REMARK                            x       y       z     vdW  Elec       q    Type
REMARK                         _______ _______ _______ _____ _____    ______ ____
ROOT
ATOM      1  O   UNL     1       4.722   7.722  17.349  0.00  0.00    +0.000 OA
ATOM      2  C   UNL     1       4.246   6.588  17.448  0.00  0.00    +0.000 C 
ATOM      3  N   UNL     1       3.124   6.276  18.244  0.00  0.00    +0.000 N 
ATOM      4  C   UNL     1       2.738   4.956  18.501  0.00  0.00    +0.000 A 
ATOM      5  N   UNL     1       1.563   4.739  19.187  0.00  0.00    +0.000 NA
ATOM      6  C   UNL     1       1.147   3.527  19.312  0.00  0.00    +0.000 A 
ATOM      7  N   UNL     1       1.814   2.442  18.837  0.00  0.00    +0.000 N 
ATOM      8  C   UNL     1       3.017   2.570  18.212  0.00  0.00    +0.000 A 
ATOM      9  O   UNL     1       3.654   1.602  17.815  0.00  0.00    +0.000 OA
ATOM     10  C   UNL     1       3.483   3.953  18.017  0.00  0.00    +0.000 A 
ATOM     11  C   UNL     1       4.675   4.155  17.177  0.00  0.00    +0.000 C 
ATOM     12  C   UNL     1       6.043   3.910  17.807  0.00  0.00    +0.000 C 
ATOM     13  C   UNL     1       6.994   4.654  16.855  0.00  0.00    +0.000 C 
ATOM     14  C   UNL     1       6.116   5.687  16.139  0.00  0.00    +0.000 C 
ATOM     15  N   UNL     1       4.810   5.527  16.751  0.00  0.00    +0.000 N 
ATOM     16  H   UNL     1       1.459   1.505  18.962  0.00  0.00    +0.000 HD
ENDROOT
BRANCH   3  17
ATOM     17  C   UNL     1       2.354   7.393  18.715  0.00  0.00    +0.000 A 
ATOM     18  C   UNL     1       1.885   8.338  17.790  0.00  0.00    +0.000 A 
ATOM     19  C   UNL     1       1.111   9.420  18.206  0.00  0.00    +0.000 A 
ATOM     20  C   UNL     1       0.829   9.589  19.559  0.00  0.00    +0.000 A 
ATOM     21  C   UNL     1       1.310   8.668  20.492  0.00  0.00    +0.000 A 
ATOM     22  C   UNL     1       2.057   7.564  20.071  0.00  0.00    +0.000 A 
ENDBRANCH   3  17
TORSDOF 1
ENDMDL
MODEL 4
REMARK VINA RESULT:      -6.9      1.872      5.522
REMARK  Name = 
REMARK  1 active torsions:
REMARK  status: ('A' for Active; 'I' for Inactive)
REMARK    1  A    between atoms: N_3  and  C_4
REMARK                            x       y       z     vdW  Elec       q    Type
REMARK                         _______ _______ _______ _____ _____    ______ ____
ROOT
ATOM      1  O   UNL     1       4.735   7.696  17.327  0.00  0.00    +0.000 OA
ATOM      2  C   UNL     1       4.256   6.564  17.427  0.00  0.00    +0.000 C 
ATOM      3  N   UNL     1       3.127   6.257  18.216  0.00  0.00    +0.000 N 
ATOM      4  C   UNL     1       2.736   4.939  18.476  0.00  0.00    +0.000 A 
ATOM      5  N   UNL     1       1.555   4.728  19.154  0.00  0.00    +0.000 NA
ATOM      6  C   UNL     1       1.136   3.517  19.281  0.00  0.00    +0.000 A 
ATOM      7  N   UNL     1       1.805   2.428  18.817  0.00  0.00    +0.000 N 
ATOM      8  C   UNL     1       3.013   2.551  18.201  0.00  0.00    +0.000 A 
ATOM      9  O   UNL     1       3.651   1.581  17.813  0.00  0.00    +0.000 OA
ATOM     10  C   UNL     1       3.483   3.932  18.003  0.00  0.00    +0.000 A 
ATOM     11  C   UNL     1       4.682   4.128  17.171  0.00  0.00    +0.000 C 
ATOM     12  C   UNL     1       6.044   3.883  17.814  0.00  0.00    +0.000 C 
ATOM     13  C   UNL     1       7.005   4.622  16.866  0.00  0.00    +0.000 C 
ATOM     14  C   UNL     1       6.135   5.653  16.138  0.00  0.00    +0.000 C 
ATOM     15  N   UNL     1       4.823   5.498  16.741  0.00  0.00    +0.000 N 
ATOM     16  H   UNL     1       1.447   1.493  18.943  0.00  0.00    +0.000 HD
ENDROOT
BRANCH   3  17
ATOM     17  C   UNL     1       2.355   7.378  18.676  0.00  0.00    +0.000 A 
ATOM     18  C   UNL     1       2.087   7.506  20.048  0.00  0.00    +0.000 A 
ATOM     19  C   UNL     1       1.366   8.595  20.534  0.00  0.00    +0.000 A 
ATOM     20  C   UNL     1       0.871   9.549  19.648  0.00  0.00    +0.000 A 
ATOM     21  C   UNL     1       1.111   9.420  18.279  0.00  0.00    +0.000 A 
ATOM     22  C   UNL     1       1.864   8.346  17.794  0.00  0.00    +0.000 A 
ENDBRANCH   3  17
TORSDOF 1
ENDMDL
MODEL 5
REMARK VINA RESULT:      -6.7      1.825      4.949
REMARK  Name = 
REMARK  1 active torsions:
REMARK  status: ('A' for Active; 'I' for Inactive)
REMARK    1  A    between atoms: N_3  and  C_4
REMARK                            x       y       z     vdW  Elec       q    Type
REMARK                         _______ _______ _______ _____ _____    ______ ____
ROOT
ATOM      1  O   UNL     1       1.436   4.938  19.896  0.00  0.00    +0.000 OA
ATOM      2  C   UNL     1       2.554   5.016  19.379  0.00  0.00    +0.000 C 
ATOM      3  N   UNL     1       3.040   6.173  18.735  0.00  0.00    +0.000 N 
ATOM      4  C   UNL     1       4.218   6.165  17.980  0.00  0.00    +0.000 A 
ATOM      5  N   UNL     1       4.688   7.361  17.485  0.00  0.00    +0.000 NA
ATOM      6  C   UNL     1       5.834   7.369  16.899  0.00  0.00    +0.000 A 
ATOM      7  N   UNL     1       6.598   6.261  16.709  0.00  0.00    +0.000 N 
ATOM      8  C   UNL     1       6.170   5.031  17.106  0.00  0.00    +0.000 A 
ATOM      9  O   UNL     1       6.823   4.015  16.906  0.00  0.00    +0.000 OA
ATOM     10  C   UNL     1       4.883   5.011  17.822  0.00  0.00    +0.000 A 
ATOM     11  C   UNL     1       4.471   3.741  18.442  0.00  0.00    +0.000 C 
ATOM     12  C   UNL     1       3.851   2.676  17.543  0.00  0.00    +0.000 C 
ATOM     13  C   UNL     1       3.135   1.758  18.548  0.00  0.00    +0.000 C 
ATOM     14  C   UNL     1       2.913   2.624  19.794  0.00  0.00    +0.000 C 
ATOM     15  N   UNL     1       3.419   3.930  19.411  0.00  0.00    +0.000 N 
ATOM     16  H   UNL     1       7.489   6.306  16.238  0.00  0.00    +0.000 HD
ENDROOT
BRANCH   3  17
ATOM     17  C   UNL     1       2.298   7.380  18.961  0.00  0.00    +0.000 A 
ATOM     18  C   UNL     1       1.952   8.185  17.864  0.00  0.00    +0.000 A 
ATOM     19  C   UNL     1       1.207   9.350  18.041  0.00  0.00    +0.000 A 
ATOM     20  C   UNL     1       0.832   9.743  19.323  0.00  0.00    +0.000 A 
ATOM     21  C   UNL     1       1.190   8.963  20.424  0.00  0.00    +0.000 A 
ATOM     22  C   UNL     1       1.907   7.777  20.244  0.00  0.00    +0.000 A 
ENDBRANCH   3  17
TORSDOF 1
ENDMDL
MODEL 6
REMARK VINA RESULT:      -6.7      1.853      4.881
REMARK  Name = 
REMARK  1 active torsions:
REMARK  status: ('A' for Active; 'I' for Inactive)
REMARK    1  A    between atoms: N_3  and  C_4
REMARK                            x       y       z     vdW  Elec       q    Type
REMARK                         _______ _______ _______ _____ _____    ______ ____
ROOT
ATOM      1  O   UNL     1       1.493   4.899  19.795  0.00  0.00    +0.000 OA
ATOM      2  C   UNL     1       2.624   4.995  19.312  0.00  0.00    +0.000 C 
ATOM      3  N   UNL     1       3.112   6.160  18.684  0.00  0.00    +0.000 N 
ATOM      4  C   UNL     1       4.312   6.172  17.964  0.00  0.00    +0.000 A 
ATOM      5  N   UNL     1       4.777   7.376  17.484  0.00  0.00    +0.000 NA
ATOM      6  C   UNL     1       5.940   7.403  16.933  0.00  0.00    +0.000 A 
ATOM      7  N   UNL     1       6.727   6.306  16.766  0.00  0.00    +0.000 N 
ATOM      8  C   UNL     1       6.306   5.070  17.148  0.00  0.00    +0.000 A 
ATOM      9  O   UNL     1       6.981   4.064  16.968  0.00  0.00    +0.000 OA
ATOM     10  C   UNL     1       4.999   5.029  17.825  0.00  0.00    +0.000 A 
ATOM     11  C   UNL     1       4.589   3.752  18.432  0.00  0.00    +0.000 C 
ATOM     12  C   UNL     1       4.013   2.678  17.514  0.00  0.00    +0.000 C 
ATOM     13  C   UNL     1       3.281   1.747  18.498  0.00  0.00    +0.000 C 
ATOM     14  C   UNL     1       3.009   2.609  19.736  0.00  0.00    +0.000 C 
ATOM     15  N   UNL     1       3.505   3.923  19.370  0.00  0.00    +0.000 N 
ATOM     16  H   UNL     1       7.631   6.366  16.321  0.00  0.00    +0.000 HD
ENDROOT
BRANCH   3  17
ATOM     17  C   UNL     1       2.343   7.356  18.888  0.00  0.00    +0.000 A 
ATOM     18  C   UNL     1       1.945   7.698  20.190  0.00  0.00    +0.000 A 
ATOM     19  C   UNL     1       1.223   8.866  20.430  0.00  0.00    +0.000 A 
ATOM     20  C   UNL     1       0.858   9.686  19.366  0.00  0.00    +0.000 A 
ATOM     21  C   UNL     1       1.228   9.344  18.063  0.00  0.00    +0.000 A 
ATOM     22  C   UNL     1       1.982   8.191  17.826  0.00  0.00    +0.000 A 
ENDBRANCH   3  17
TORSDOF 1
ENDMDL
MODEL 7
REMARK VINA RESULT:      -6.2      9.746     12.246
REMARK  Name = 
REMARK  1 active torsions:
REMARK  status: ('A' for Active; 'I' for Inactive)
REMARK    1  A    between atoms: N_3  and  C_4
REMARK                            x       y       z     vdW  Elec       q    Type
REMARK                         _______ _______ _______ _____ _____    ______ ____
ROOT
ATOM      1  O   UNL     1       7.806  13.646  21.155  0.00  0.00    +0.000 OA
ATOM      2  C   UNL     1       8.662  13.827  20.286  0.00  0.00    +0.000 C 
ATOM      3  N   UNL     1       8.704  14.963  19.451  0.00  0.00    +0.000 N 
ATOM      4  C   UNL     1       9.553  15.041  18.342  0.00  0.00    +0.000 A 
ATOM      5  N   UNL     1       9.621  16.231  17.650  0.00  0.00    +0.000 NA
ATOM      6  C   UNL     1      10.493  16.339  16.710  0.00  0.00    +0.000 A 
ATOM      7  N   UNL     1      11.333  15.338  16.333  0.00  0.00    +0.000 N 
ATOM      8  C   UNL     1      11.277  14.111  16.920  0.00  0.00    +0.000 A 
ATOM      9  O   UNL     1      11.994  13.183  16.567  0.00  0.00    +0.000 OA
ATOM     10  C   UNL     1      10.318  13.985  18.031  0.00  0.00    +0.000 A 
ATOM     11  C   UNL     1      10.358  12.745  18.824  0.00  0.00    +0.000 C 
ATOM     12  C   UNL     1       9.672  11.509  18.251  0.00  0.00    +0.000 C 
ATOM     13  C   UNL     1       9.493  10.614  19.490  0.00  0.00    +0.000 C 
ATOM     14  C   UNL     1       9.545  11.572  20.686  0.00  0.00    +0.000 C 
ATOM     15  N   UNL     1       9.664  12.886  20.082  0.00  0.00    +0.000 N 
ATOM     16  H   UNL     1      11.999  15.458  15.585  0.00  0.00    +0.000 HD
ENDROOT
BRANCH   3  17
ATOM     17  C   UNL     1       7.879  16.069  19.848  0.00  0.00    +0.000 A 
ATOM     18  C   UNL     1       6.611  16.219  19.266  0.00  0.00    +0.000 A 
ATOM     19  C   UNL     1       5.771  17.264  19.647  0.00  0.00    +0.000 A 
ATOM     20  C   UNL     1       6.205  18.193  20.589  0.00  0.00    +0.000 A 
ATOM     21  C   UNL     1       7.474  18.068  21.158  0.00  0.00    +0.000 A 
ATOM     22  C   UNL     1       8.303  17.000  20.802  0.00  0.00    +0.000 A 
ENDBRANCH   3  17
TORSDOF 1
ENDMDL
MODEL 8
REMARK VINA RESULT:      -6.2      1.821      3.545
REMARK  Name = 
REMARK  1 active torsions:
REMARK  status: ('A' for Active; 'I' for Inactive)
REMARK    1  A    between atoms: N_3  and  C_4
REMARK                            x       y       z     vdW  Elec       q    Type
REMARK                         _______ _______ _______ _____ _____    ______ ____
ROOT
ATOM      1  O   UNL     1       3.613   7.064  17.836  0.00  0.00    +0.000 OA
ATOM      2  C   UNL     1       3.584   6.165  18.680  0.00  0.00    +0.000 C 
ATOM      3  N   UNL     1       4.173   4.896  18.496  0.00  0.00    +0.000 N 
ATOM      4  C   UNL     1       3.944   3.834  19.377  0.00  0.00    +0.000 A 
ATOM      5  N   UNL     1       4.651   2.666  19.194  0.00  0.00    +0.000 NA
ATOM      6  C   UNL     1       4.532   1.738  20.078  0.00  0.00    +0.000 A 
ATOM      7  N   UNL     1       3.724   1.826  21.168  0.00  0.00    +0.000 N 
ATOM      8  C   UNL     1       2.939   2.918  21.379  0.00  0.00    +0.000 A 
ATOM      9  O   UNL     1       2.173   2.999  22.331  0.00  0.00    +0.000 OA
ATOM     10  C   UNL     1       3.101   4.010  20.404  0.00  0.00    +0.000 A 
ATOM     11  C   UNL     1       2.425   5.285  20.696  0.00  0.00    +0.000 C 
ATOM     12  C   UNL     1       0.935   5.391  20.388  0.00  0.00    +0.000 C 
ATOM     13  C   UNL     1       0.703   6.911  20.350  0.00  0.00    +0.000 C 
ATOM     14  C   UNL     1       2.082   7.520  20.070  0.00  0.00    +0.000 C 
ATOM     15  N   UNL     1       2.949   6.368  19.899  0.00  0.00    +0.000 N 
ATOM     16  H   UNL     1       3.651   1.073  21.835  0.00  0.00    +0.000 HD
ENDROOT
BRANCH   3  17
ATOM     17  C   UNL     1       5.084   4.778  17.392  0.00  0.00    +0.000 A 
ATOM     18  C   UNL     1       6.441   5.076  17.591  0.00  0.00    +0.000 A 
ATOM     19  C   UNL     1       7.359   4.945  16.551  0.00  0.00    +0.000 A 
ATOM     20  C   UNL     1       6.924   4.551  15.289  0.00  0.00    +0.000 A 
ATOM     21  C   UNL     1       5.572   4.274  15.072  0.00  0.00    +0.000 A 
ATOM     22  C   UNL     1       4.657   4.371  16.124  0.00  0.00    +0.000 A 
ENDBRANCH   3  17
TORSDOF 1
ENDMDL
MODEL 9
REMARK VINA RESULT:      -6.1      1.828      3.700
REMARK  Name = 
REMARK  1 active torsions:
REMARK  status: ('A' for Active; 'I' for Inactive)
REMARK    1  A    between atoms: N_3  and  C_4
REMARK                            x       y       z     vdW  Elec       q    Type
REMARK                         _______ _______ _______ _____ _____    ______ ____
ROOT
ATOM      1  O   UNL     1       3.657   7.059  17.851  0.00  0.00    +0.000 OA
ATOM      2  C   UNL     1       3.616   6.160  18.695  0.00  0.00    +0.000 C 
ATOM      3  N   UNL     1       4.206   4.891  18.517  0.00  0.00    +0.000 N 
ATOM      4  C   UNL     1       3.965   3.829  19.395  0.00  0.00    +0.000 A 
ATOM      5  N   UNL     1       4.674   2.660  19.220  0.00  0.00    +0.000 NA
ATOM      6  C   UNL     1       4.543   1.732  20.102  0.00  0.00    +0.000 A 
ATOM      7  N   UNL     1       3.720   1.819  21.181  0.00  0.00    +0.000 N 
ATOM      8  C   UNL     1       2.934   2.912  21.383  0.00  0.00    +0.000 A 
ATOM      9  O   UNL     1       2.155   2.993  22.324  0.00  0.00    +0.000 OA
ATOM     10  C   UNL     1       3.108   4.004  20.411  0.00  0.00    +0.000 A 
ATOM     11  C   UNL     1       2.430   5.280  20.695  0.00  0.00    +0.000 C 
ATOM     12  C   UNL     1       0.944   5.387  20.367  0.00  0.00    +0.000 C 
ATOM     13  C   UNL     1       0.714   6.907  20.327  0.00  0.00    +0.000 C 
ATOM     14  C   UNL     1       2.097   7.515  20.066  0.00  0.00    +0.000 C 
ATOM     15  N   UNL     1       2.965   6.363  19.905  0.00  0.00    +0.000 N 
ATOM     16  H   UNL     1       3.638   1.066  21.847  0.00  0.00    +0.000 HD
ENDROOT
BRANCH   3  17
ATOM     17  C   UNL     1       5.131   4.773  17.426  0.00  0.00    +0.000 A 
ATOM     18  C   UNL     1       4.655   4.374  16.166  0.00  0.00    +0.000 A 
ATOM     19  C   UNL     1       5.518   4.276  15.077  0.00  0.00    +0.000 A 
ATOM     20  C   UNL     1       6.875   4.537  15.242  0.00  0.00    +0.000 A 
ATOM     21  C   UNL     1       7.365   4.912  16.495  0.00  0.00    +0.000 A 
ATOM     22  C   UNL     1       6.494   5.045  17.580  0.00  0.00    +0.000 A 
ENDBRANCH   3  17
TORSDOF 1
ENDMDL
