MODEL 1
REMARK VINA RESULT:      -9.3      0.000      0.000
REMARK  Name = 
REMARK  5 active torsions:
REMARK  status: ('A' for Active; 'I' for Inactive)
REMARK    1  A    between atoms: C_2  and  C_24
REMARK    2  A    between atoms: N_3  and  C_4
REMARK    3  A    between atoms: C_7  and  C_8
REMARK    4  A    between atoms: C_8  and  C_9
REMARK    5  A    between atoms: C_9  and  N_10
REMARK                            x       y       z     vdW  Elec       q    Type
REMARK                         _______ _______ _______ _____ _____    ______ ____
ROOT
ATOM      1  C   UNL     1       6.121   5.141  18.439  0.00  0.00    +0.000 A 
ATOM      2  C   UNL     1       5.707   6.025  17.434  0.00  0.00    +0.000 A 
ATOM      3  C   UNL     1       6.419   7.228  17.111  0.00  0.00    +0.000 A 
ATOM      4  C   UNL     1       7.582   7.617  17.789  0.00  0.00    +0.000 A 
ATOM      5  C   UNL     1       8.016   6.699  18.775  0.00  0.00    +0.000 A 
ATOM      6  C   UNL     1       7.302   5.501  19.101  0.00  0.00    +0.000 A 
ENDROOT
BRANCH   1   9
ATOM      7  O   UNL     1       3.640   4.815  19.972  0.00  0.00    +0.000 OA
ATOM      8  C   UNL     1       4.271   3.842  19.583  0.00  0.00    +0.000 C 
ATOM      9  N   UNL     1       5.432   3.932  18.818  0.00  0.00    +0.000 N 
ATOM     10  H   UNL     1       5.819   3.061  18.467  0.00  0.00    +0.000 HD
BRANCH   8  11
ATOM     11  C   UNL     1       3.721   2.399  19.877  0.00  0.00    +0.000 C 
ATOM     12  C   UNL     1       2.494   2.332  20.798  0.00  0.00    +0.000 C 
ATOM     13  C   UNL     1       1.257   2.951  20.148  0.00  0.00    +0.000 C 
ATOM     14  C   UNL     1       0.911   2.291  18.814  0.00  0.00    +0.000 C 
ATOM     15  C   UNL     1       2.110   2.189  17.877  0.00  0.00    +0.000 C 
ATOM     16  C   UNL     1       3.361   1.637  18.573  0.00  0.00    +0.000 C 
ENDBRANCH   8  11
ENDBRANCH   1   9
BRANCH   4  17
ATOM     17  C   UNL     1       8.458   8.857  17.415  0.00  0.00    +0.000 C 
BRANCH  17  18
ATOM     18  C   UNL     1       8.834   9.967  18.479  0.00  0.00    +0.000 C 
BRANCH  18  19
ATOM     19  N   UNL     1       9.242  11.353  17.970  0.00  0.00    +0.000 N 
ATOM     20  C   UNL     1      10.266  12.093  18.559  0.00  0.00    +0.000 A 
ATOM     21  N   UNL     1      10.866  11.527  19.584  0.00  0.00    +0.000 NA
ATOM     22  N   UNL     1      11.448  12.398  20.496  0.00  0.00    +0.000 N 
ATOM     23  C   UNL     1      10.765  13.606  20.627  0.00  0.00    +0.000 A 
ATOM     24  O   UNL     1      10.108  14.005  21.570  0.00  0.00    +0.000 OA
ATOM     25  C   UNL     1      10.849  14.351  19.377  0.00  0.00    +0.000 A 
ATOM     26  C   UNL     1      11.391  15.644  19.396  0.00  0.00    +0.000 A 
ATOM     27  C   UNL     1      11.893  16.167  18.215  0.00  0.00    +0.000 A 
ATOM     28  C   UNL     1      11.807  15.396  17.046  0.00  0.00    +0.000 A 
ATOM     29  C   UNL     1      11.179  14.109  17.037  0.00  0.00    +0.000 A 
ATOM     30  C   UNL     1      10.664  13.565  18.229  0.00  0.00    +0.000 A 
ATOM     31  H   UNL     1       8.479  11.882  17.556  0.00  0.00    +0.000 HD
ATOM     32  H   UNL     1      12.401  12.555  20.168  0.00  0.00    +0.000 HD
ENDBRANCH  18  19
ENDBRANCH  17  18
ENDBRANCH   4  17
TORSDOF 5
ENDMDL
MODEL 2
REMARK VINA RESULT:      -9.0      1.585      2.523
REMARK  Name = 
REMARK  5 active torsions:
REMARK  status: ('A' for Active; 'I' for Inactive)
REMARK    1  A    between atoms: C_2  and  C_24
REMARK    2  A    between atoms: N_3  and  C_4
REMARK    3  A    between atoms: C_7  and  C_8
REMARK    4  A    between atoms: C_8  and  C_9
REMARK    5  A    between atoms: C_9  and  N_10
REMARK                            x       y       z     vdW  Elec       q    Type
REMARK                         _______ _______ _______ _____ _____    ______ ____
ROOT
ATOM      1  C   UNL     1       5.803   5.458  17.878  0.00  0.00    +0.000 A 
ATOM      2  C   UNL     1       6.848   5.307  18.799  0.00  0.00    +0.000 A 
ATOM      3  C   UNL     1       7.872   6.294  18.986  0.00  0.00    +0.000 A 
ATOM      4  C   UNL     1       7.911   7.484  18.247  0.00  0.00    +0.000 A 
ATOM      5  C   UNL     1       6.830   7.648  17.348  0.00  0.00    +0.000 A 
ATOM      6  C   UNL     1       5.810   6.660  17.158  0.00  0.00    +0.000 A 
ENDROOT
BRANCH   1   9
ATOM      7  O   UNL     1       2.889   5.800  17.945  0.00  0.00    +0.000 OA
ATOM      8  C   UNL     1       3.389   4.707  17.720  0.00  0.00    +0.000 C 
ATOM      9  N   UNL     1       4.762   4.489  17.636  0.00  0.00    +0.000 N 
ATOM     10  H   UNL     1       5.064   3.563  17.347  0.00  0.00    +0.000 HD
BRANCH   8  11
ATOM     11  C   UNL     1       2.453   3.478  17.425  0.00  0.00    +0.000 C 
ATOM     12  C   UNL     1       3.000   2.110  17.857  0.00  0.00    +0.000 C 
ATOM     13  C   UNL     1       3.108   1.992  19.377  0.00  0.00    +0.000 C 
ATOM     14  C   UNL     1       1.770   2.233  20.074  0.00  0.00    +0.000 C 
ATOM     15  C   UNL     1       1.081   3.511  19.605  0.00  0.00    +0.000 C 
ATOM     16  C   UNL     1       1.054   3.643  18.077  0.00  0.00    +0.000 C 
ENDBRANCH   8  11
ENDBRANCH   1   9
BRANCH   4  17
ATOM     17  C   UNL     1       8.937   8.642  18.477  0.00  0.00    +0.000 C 
BRANCH  17  18
ATOM     18  C   UNL     1       8.524  10.165  18.344  0.00  0.00    +0.000 C 
BRANCH  18  19
ATOM     19  N   UNL     1       9.216  11.187  19.250  0.00  0.00    +0.000 N 
ATOM     20  C   UNL     1       9.550  12.467  18.813  0.00  0.00    +0.000 A 
ATOM     21  N   UNL     1       9.234  12.749  17.567  0.00  0.00    +0.000 NA
ATOM     22  N   UNL     1      10.009  13.726  16.955  0.00  0.00    +0.000 N 
ATOM     23  C   UNL     1      11.332  13.742  17.392  0.00  0.00    +0.000 A 
ATOM     24  O   UNL     1      12.333  13.411  16.785  0.00  0.00    +0.000 OA
ATOM     25  C   UNL     1      11.377  14.132  18.796  0.00  0.00    +0.000 A 
ATOM     26  C   UNL     1      12.145  15.247  19.163  0.00  0.00    +0.000 A 
ATOM     27  C   UNL     1      11.845  15.892  20.352  0.00  0.00    +0.000 A 
ATOM     28  C   UNL     1      10.812  15.384  21.154  0.00  0.00    +0.000 A 
ATOM     29  C   UNL     1      10.094  14.198  20.793  0.00  0.00    +0.000 A 
ATOM     30  C   UNL     1      10.386  13.532  19.589  0.00  0.00    +0.000 A 
ATOM     31  H   UNL     1       9.826  10.772  19.950  0.00  0.00    +0.000 HD
ATOM     32  H   UNL     1       9.551  14.615  17.154  0.00  0.00    +0.000 HD
ENDBRANCH  18  19
ENDBRANCH  17  18
ENDBRANCH   4  17
TORSDOF 5
ENDMDL
MODEL 3
REMARK VINA RESULT:      -8.8      1.373      2.063
REMARK  Name = 
REMARK  5 active torsions:
REMARK  status: ('A' for Active; 'I' for Inactive)
REMARK    1  A    between atoms: C_2  and  C_24
REMARK    2  A    between atoms: N_3  and  C_4
REMARK    3  A    between atoms: C_7  and  C_8
REMARK    4  A    between atoms: C_8  and  C_9
REMARK    5  A    between atoms: C_9  and  N_10
REMARK                            x       y       z     vdW  Elec       q    Type
REMARK                         _______ _______ _______ _____ _____    ______ ____
ROOT
ATOM      1  C   UNL     1       6.075   5.112  18.637  0.00  0.00    +0.000 A 
ATOM      2  C   UNL     1       5.671   6.058  17.685  0.00  0.00    +0.000 A 
ATOM      3  C   UNL     1       6.452   7.215  17.355  0.00  0.00    +0.000 A 
ATOM      4  C   UNL     1       7.678   7.494  17.973  0.00  0.00    +0.000 A 
ATOM      5  C   UNL     1       8.099   6.514  18.904  0.00  0.00    +0.000 A 
ATOM      6  C   UNL     1       7.316   5.361  19.237  0.00  0.00    +0.000 A 
ENDROOT
BRANCH   1   9
ATOM      7  O   UNL     1       3.519   4.937  20.069  0.00  0.00    +0.000 OA
ATOM      8  C   UNL     1       4.125   3.927  19.736  0.00  0.00    +0.000 C 
ATOM      9  N   UNL     1       5.320   3.945  19.021  0.00  0.00    +0.000 N 
ATOM     10  H   UNL     1       5.684   3.048  18.713  0.00  0.00    +0.000 HD
BRANCH   8  11
ATOM     11  C   UNL     1       3.502   2.517  20.049  0.00  0.00    +0.000 C 
ATOM     12  C   UNL     1       2.175   2.536  20.821  0.00  0.00    +0.000 C 
ATOM     13  C   UNL     1       1.041   3.141  19.994  0.00  0.00    +0.000 C 
ATOM     14  C   UNL     1       0.833   2.407  18.670  0.00  0.00    +0.000 C 
ATOM     15  C   UNL     1       2.130   2.219  17.889  0.00  0.00    +0.000 C 
ATOM     16  C   UNL     1       3.274   1.684  18.760  0.00  0.00    +0.000 C 
ENDBRANCH   8  11
ENDBRANCH   1   9
BRANCH   4  17
ATOM     17  C   UNL     1       8.623   8.679  17.583  0.00  0.00    +0.000 C 
BRANCH  17  18
ATOM     18  C   UNL     1       8.186  10.190  17.763  0.00  0.00    +0.000 C 
BRANCH  18  19
ATOM     19  N   UNL     1       8.840  11.006  18.882  0.00  0.00    +0.000 N 
ATOM     20  C   UNL     1       9.040  12.382  18.784  0.00  0.00    +0.000 A 
ATOM     21  N   UNL     1       8.632  12.943  17.666  0.00  0.00    +0.000 NA
ATOM     22  N   UNL     1       9.286  14.114  17.305  0.00  0.00    +0.000 N 
ATOM     23  C   UNL     1      10.626  14.143  17.689  0.00  0.00    +0.000 A 
ATOM     24  O   UNL     1      11.616  14.078  16.985  0.00  0.00    +0.000 OA
ATOM     25  C   UNL     1      10.716  14.162  19.144  0.00  0.00    +0.000 A 
ATOM     26  C   UNL     1      11.406  15.213  19.765  0.00  0.00    +0.000 A 
ATOM     27  C   UNL     1      11.120  15.500  21.090  0.00  0.00    +0.000 A 
ATOM     28  C   UNL     1      10.180  14.705  21.764  0.00  0.00    +0.000 A 
ATOM     29  C   UNL     1       9.546  13.590  21.130  0.00  0.00    +0.000 A 
ATOM     30  C   UNL     1       9.825  13.286  19.784  0.00  0.00    +0.000 A 
ATOM     31  H   UNL     1       9.520  10.486  19.430  0.00  0.00    +0.000 HD
ATOM     32  H   UNL     1       8.767  14.874  17.745  0.00  0.00    +0.000 HD
ENDBRANCH  18  19
ENDBRANCH  17  18
ENDBRANCH   4  17
TORSDOF 5
ENDMDL
MODEL 4
REMARK VINA RESULT:      -8.7      7.815     10.860
REMARK  Name = 
REMARK  5 active torsions:
REMARK  status: ('A' for Active; 'I' for Inactive)
REMARK    1  A    between atoms: C_2  and  C_24
REMARK    2  A    between atoms: N_3  and  C_4
REMARK    3  A    between atoms: C_7  and  C_8
REMARK    4  A    between atoms: C_8  and  C_9
REMARK    5  A    between atoms: C_9  and  N_10
REMARK                            x       y       z     vdW  Elec       q    Type
REMARK                         _______ _______ _______ _____ _____    ______ ____
ROOT
ATOM      1  C   UNL     1       2.422   7.238  18.589  0.00  0.00    +0.000 A 
ATOM      2  C   UNL     1       2.104   8.330  17.770  0.00  0.00    +0.000 A 
ATOM      3  C   UNL     1       1.432   9.501  18.255  0.00  0.00    +0.000 A 
ATOM      4  C   UNL     1       1.030   9.636  19.591  0.00  0.00    +0.000 A 
ATOM      5  C   UNL     1       1.390   8.547  20.421  0.00  0.00    +0.000 A 
ATOM      6  C   UNL     1       2.056   7.376  19.935  0.00  0.00    +0.000 A 
ENDROOT
BRANCH   1   9
ATOM      7  O   UNL     1       1.245   4.735  17.609  0.00  0.00    +0.000 OA
ATOM      8  C   UNL     1       2.457   4.856  17.728  0.00  0.00    +0.000 C 
ATOM      9  N   UNL     1       3.076   6.031  18.149  0.00  0.00    +0.000 N 
ATOM     10  H   UNL     1       4.091   6.052  18.117  0.00  0.00    +0.000 HD
BRANCH   8  11
ATOM     11  C   UNL     1       3.395   3.665  17.311  0.00  0.00    +0.000 C 
ATOM     12  C   UNL     1       4.832   3.736  17.847  0.00  0.00    +0.000 C 
ATOM     13  C   UNL     1       4.883   3.585  19.367  0.00  0.00    +0.000 C 
ATOM     14  C   UNL     1       4.241   2.283  19.843  0.00  0.00    +0.000 C 
ATOM     15  C   UNL     1       2.854   2.058  19.251  0.00  0.00    +0.000 C 
ATOM     16  C   UNL     1       2.811   2.291  17.735  0.00  0.00    +0.000 C 
ENDBRANCH   8  11
ENDBRANCH   1   9
BRANCH   4  17
ATOM     17  C   UNL     1       0.390  10.925  20.202  0.00  0.00    +0.000 C 
BRANCH  17  18
ATOM     18  C   UNL     1      -0.157  12.100  19.292  0.00  0.00    +0.000 C 
BRANCH  18  19
ATOM     19  N   UNL     1      -1.631  12.493  19.421  0.00  0.00    +0.000 N 
ATOM     20  C   UNL     1      -2.664  11.679  18.962  0.00  0.00    +0.000 A 
ATOM     21  N   UNL     1      -2.296  10.544  18.407  0.00  0.00    +0.000 NA
ATOM     22  N   UNL     1      -3.185  10.010  17.482  0.00  0.00    +0.000 N 
ATOM     23  C   UNL     1      -3.891  10.976  16.767  0.00  0.00    +0.000 A 
ATOM     24  O   UNL     1      -3.780  11.280  15.594  0.00  0.00    +0.000 OA
ATOM     25  C   UNL     1      -4.772  11.705  17.671  0.00  0.00    +0.000 A 
ATOM     26  C   UNL     1      -6.147  11.733  17.398  0.00  0.00    +0.000 A 
ATOM     27  C   UNL     1      -7.021  12.003  18.438  0.00  0.00    +0.000 A 
ATOM     28  C   UNL     1      -6.494  12.270  19.711  0.00  0.00    +0.000 A 
ATOM     29  C   UNL     1      -5.082  12.310  19.947  0.00  0.00    +0.000 A 
ATOM     30  C   UNL     1      -4.182  12.038  18.900  0.00  0.00    +0.000 A 
ATOM     31  H   UNL     1      -1.795  13.496  19.391  0.00  0.00    +0.000 HD
ATOM     32  H   UNL     1      -3.821   9.415  18.012  0.00  0.00    +0.000 HD
ENDBRANCH  18  19
ENDBRANCH  17  18
ENDBRANCH   4  17
TORSDOF 5
ENDMDL
MODEL 5
REMARK VINA RESULT:      -8.6      1.182      1.626
REMARK  Name = 
REMARK  5 active torsions:
REMARK  status: ('A' for Active; 'I' for Inactive)
REMARK    1  A    between atoms: C_2  and  C_24
REMARK    2  A    between atoms: N_3  and  C_4
REMARK    3  A    between atoms: C_7  and  C_8
REMARK    4  A    between atoms: C_8  and  C_9
REMARK    5  A    between atoms: C_9  and  N_10
REMARK                            x       y       z     vdW  Elec       q    Type
REMARK                         _______ _______ _______ _____ _____    ______ ____
ROOT
ATOM      1  C   UNL     1       5.923   5.226  18.048  0.00  0.00    +0.000 A 
ATOM      2  C   UNL     1       7.133   5.398  18.734  0.00  0.00    +0.000 A 
ATOM      3  C   UNL     1       7.937   6.580  18.614  0.00  0.00    +0.000 A 
ATOM      4  C   UNL     1       7.576   7.652  17.787  0.00  0.00    +0.000 A 
ATOM      5  C   UNL     1       6.334   7.488  17.128  0.00  0.00    +0.000 A 
ATOM      6  C   UNL     1       5.534   6.306  17.244  0.00  0.00    +0.000 A 
ENDROOT
BRANCH   1   9
ATOM      7  O   UNL     1       4.250   4.256  20.256  0.00  0.00    +0.000 OA
ATOM      8  C   UNL     1       4.343   3.624  19.212  0.00  0.00    +0.000 C 
ATOM      9  N   UNL     1       5.088   4.052  18.116  0.00  0.00    +0.000 N 
ATOM     10  H   UNL     1       5.016   3.498  17.267  0.00  0.00    +0.000 HD
BRANCH   8  11
ATOM     11  C   UNL     1       3.522   2.294  19.042  0.00  0.00    +0.000 C 
ATOM     12  C   UNL     1       2.596   1.933  20.212  0.00  0.00    +0.000 C 
ATOM     13  C   UNL     1       1.445   2.928  20.358  0.00  0.00    +0.000 C 
ATOM     14  C   UNL     1       0.611   3.042  19.083  0.00  0.00    +0.000 C 
ATOM     15  C   UNL     1       1.463   3.267  17.838  0.00  0.00    +0.000 C 
ATOM     16  C   UNL     1       2.656   2.306  17.754  0.00  0.00    +0.000 C 
ENDBRANCH   8  11
ENDBRANCH   1   9
BRANCH   4  17
ATOM     17  C   UNL     1       8.354   9.006  17.694  0.00  0.00    +0.000 C 
BRANCH  17  18
ATOM     18  C   UNL     1       8.904   9.744  18.981  0.00  0.00    +0.000 C 
BRANCH  18  19
ATOM     19  N   UNL     1       9.605  11.095  18.801  0.00  0.00    +0.000 N 
ATOM     20  C   UNL     1      10.030  11.866  19.881  0.00  0.00    +0.000 A 
ATOM     21  N   UNL     1       9.793  11.362  21.073  0.00  0.00    +0.000 NA
ATOM     22  N   UNL     1       9.679  12.286  22.105  0.00  0.00    +0.000 N 
ATOM     23  C   UNL     1       9.128  13.503  21.704  0.00  0.00    +0.000 A 
ATOM     24  O   UNL     1       8.033  13.961  21.971  0.00  0.00    +0.000 OA
ATOM     25  C   UNL     1      10.037  14.168  20.779  0.00  0.00    +0.000 A 
ATOM     26  C   UNL     1      10.491  15.458  21.089  0.00  0.00    +0.000 A 
ATOM     27  C   UNL     1      11.663  15.905  20.500  0.00  0.00    +0.000 A 
ATOM     28  C   UNL     1      12.325  15.064  19.593  0.00  0.00    +0.000 A 
ATOM     29  C   UNL     1      11.799  13.781  19.235  0.00  0.00    +0.000 A 
ATOM     30  C   UNL     1      10.610  13.313  19.825  0.00  0.00    +0.000 A 
ATOM     31  H   UNL     1       9.318  11.600  17.966  0.00  0.00    +0.000 HD
ATOM     32  H   UNL     1      10.621  12.419  22.471  0.00  0.00    +0.000 HD
ENDBRANCH  18  19
ENDBRANCH  17  18
ENDBRANCH   4  17
TORSDOF 5
ENDMDL
MODEL 6
REMARK VINA RESULT:      -8.6      2.216     11.801
REMARK  Name = 
REMARK  5 active torsions:
REMARK  status: ('A' for Active; 'I' for Inactive)
REMARK    1  A    between atoms: C_2  and  C_24
REMARK    2  A    between atoms: N_3  and  C_4
REMARK    3  A    between atoms: C_7  and  C_8
REMARK    4  A    between atoms: C_8  and  C_9
REMARK    5  A    between atoms: C_9  and  N_10
REMARK                            x       y       z     vdW  Elec       q    Type
REMARK                         _______ _______ _______ _____ _____    ______ ____
ROOT
ATOM      1  C   UNL     1      10.376  12.708  19.121  0.00  0.00    +0.000 A 
ATOM      2  C   UNL     1      10.244  11.861  20.229  0.00  0.00    +0.000 A 
ATOM      3  C   UNL     1       9.616  10.573  20.157  0.00  0.00    +0.000 A 
ATOM      4  C   UNL     1       9.075  10.068  18.967  0.00  0.00    +0.000 A 
ATOM      5  C   UNL     1       9.248  10.911  17.843  0.00  0.00    +0.000 A 
ATOM      6  C   UNL     1       9.870  12.199  17.917  0.00  0.00    +0.000 A 
ENDROOT
BRANCH   1   9
ATOM      7  O   UNL     1       9.429  15.169  20.408  0.00  0.00    +0.000 OA
ATOM      8  C   UNL     1      10.457  15.162  19.744  0.00  0.00    +0.000 C 
ATOM      9  N   UNL     1      10.978  14.019  19.143  0.00  0.00    +0.000 N 
ATOM     10  H   UNL     1      11.887  14.107  18.699  0.00  0.00    +0.000 HD
BRANCH   8  11
ATOM     11  C   UNL     1      11.300  16.483  19.613  0.00  0.00    +0.000 C 
ATOM     12  C   UNL     1      12.006  16.687  18.265  0.00  0.00    +0.000 C 
ATOM     13  C   UNL     1      11.011  16.902  17.125  0.00  0.00    +0.000 C 
ATOM     14  C   UNL     1      10.083  18.088  17.381  0.00  0.00    +0.000 C 
ATOM     15  C   UNL     1       9.434  18.043  18.762  0.00  0.00    +0.000 C 
ATOM     16  C   UNL     1      10.442  17.748  19.881  0.00  0.00    +0.000 C 
ENDBRANCH   8  11
ENDBRANCH   1   9
BRANCH   4  17
ATOM     17  C   UNL     1       8.474   8.633  18.801  0.00  0.00    +0.000 C 
BRANCH  17  18
ATOM     18  C   UNL     1       7.840   8.145  17.435  0.00  0.00    +0.000 C 
BRANCH  18  19
ATOM     19  N   UNL     1       6.371   7.713  17.429  0.00  0.00    +0.000 N 
ATOM     20  C   UNL     1       5.975   6.411  17.732  0.00  0.00    +0.000 A 
ATOM     21  N   UNL     1       6.944   5.570  18.025  0.00  0.00    +0.000 NA
ATOM     22  N   UNL     1       6.672   4.230  17.780  0.00  0.00    +0.000 N 
ATOM     23  C   UNL     1       5.833   4.023  16.686  0.00  0.00    +0.000 A 
ATOM     24  O   UNL     1       6.109   3.550  15.600  0.00  0.00    +0.000 OA
ATOM     25  C   UNL     1       4.512   4.568  16.976  0.00  0.00    +0.000 A 
ATOM     26  C   UNL     1       3.399   3.719  16.899  0.00  0.00    +0.000 A 
ATOM     27  C   UNL     1       2.251   4.071  17.591  0.00  0.00    +0.000 A 
ATOM     28  C   UNL     1       2.239   5.276  18.309  0.00  0.00    +0.000 A 
ATOM     29  C   UNL     1       3.363   6.163  18.308  0.00  0.00    +0.000 A 
ATOM     30  C   UNL     1       4.536   5.820  17.611  0.00  0.00    +0.000 A 
ATOM     31  H   UNL     1       5.793   8.221  16.765  0.00  0.00    +0.000 HD
ATOM     32  H   UNL     1       6.250   3.867  18.634  0.00  0.00    +0.000 HD
ENDBRANCH  18  19
ENDBRANCH  17  18
ENDBRANCH   4  17
TORSDOF 5
ENDMDL
MODEL 7
REMARK VINA RESULT:      -8.5      7.909     11.799
REMARK  Name = 
REMARK  5 active torsions:
REMARK  status: ('A' for Active; 'I' for Inactive)
REMARK    1  A    between atoms: C_2  and  C_24
REMARK    2  A    between atoms: N_3  and  C_4
REMARK    3  A    between atoms: C_7  and  C_8
REMARK    4  A    between atoms: C_8  and  C_9
REMARK    5  A    between atoms: C_9  and  N_10
REMARK                            x       y       z     vdW  Elec       q    Type
REMARK                         _______ _______ _______ _____ _____    ______ ____
ROOT
ATOM      1  C   UNL     1      -2.341  11.613  18.256  0.00  0.00    +0.000 A 
ATOM      2  C   UNL     1      -1.275  12.446  18.619  0.00  0.00    +0.000 A 
ATOM      3  C   UNL     1       0.089  12.003  18.646  0.00  0.00    +0.000 A 
ATOM      4  C   UNL     1       0.457  10.691  18.319  0.00  0.00    +0.000 A 
ATOM      5  C   UNL     1      -0.619   9.866  17.914  0.00  0.00    +0.000 A 
ATOM      6  C   UNL     1      -1.982  10.308  17.893  0.00  0.00    +0.000 A 
ENDROOT
BRANCH   1   9
ATOM      7  O   UNL     1      -4.053  12.534  20.454  0.00  0.00    +0.000 OA
ATOM      8  C   UNL     1      -4.501  12.396  19.324  0.00  0.00    +0.000 C 
ATOM      9  N   UNL     1      -3.730  12.001  18.233  0.00  0.00    +0.000 N 
ATOM     10  H   UNL     1      -4.182  12.013  17.323  0.00  0.00    +0.000 HD
BRANCH   8  11
ATOM     11  C   UNL     1      -6.005  12.755  19.042  0.00  0.00    +0.000 C 
ATOM     12  C   UNL     1      -6.802  11.701  18.261  0.00  0.00    +0.000 C 
ATOM     13  C   UNL     1      -6.991  10.415  19.065  0.00  0.00    +0.000 C 
ATOM     14  C   UNL     1      -7.681  10.665  20.405  0.00  0.00    +0.000 C 
ATOM     15  C   UNL     1      -7.037  11.797  21.199  0.00  0.00    +0.000 C 
ATOM     16  C   UNL     1      -6.787  13.049  20.350  0.00  0.00    +0.000 C 
ENDBRANCH   8  11
ENDBRANCH   1   9
BRANCH   4  17
ATOM     17  C   UNL     1       1.932  10.177  18.228  0.00  0.00    +0.000 C 
BRANCH  17  18
ATOM     18  C   UNL     1       2.278   8.713  17.735  0.00  0.00    +0.000 C 
BRANCH  18  19
ATOM     19  N   UNL     1       1.891   7.534  18.632  0.00  0.00    +0.000 N 
ATOM     20  C   UNL     1       2.752   6.465  18.873  0.00  0.00    +0.000 A 
ATOM     21  N   UNL     1       3.925   6.528  18.281  0.00  0.00    +0.000 NA
ATOM     22  N   UNL     1       4.543   5.308  18.037  0.00  0.00    +0.000 N 
ATOM     23  C   UNL     1       3.647   4.273  17.771  0.00  0.00    +0.000 A 
ATOM     24  O   UNL     1       3.441   3.704  16.716  0.00  0.00    +0.000 OA
ATOM     25  C   UNL     1       2.855   3.997  18.963  0.00  0.00    +0.000 A 
ATOM     26  C   UNL     1       2.863   2.699  19.493  0.00  0.00    +0.000 A 
ATOM     27  C   UNL     1       2.517   2.527  20.824  0.00  0.00    +0.000 A 
ATOM     28  C   UNL     1       2.140   3.652  21.573  0.00  0.00    +0.000 A 
ATOM     29  C   UNL     1       2.065   4.956  20.987  0.00  0.00    +0.000 A 
ATOM     30  C   UNL     1       2.414   5.146  19.637  0.00  0.00    +0.000 A 
ATOM     31  H   UNL     1       0.896   7.325  18.633  0.00  0.00    +0.000 HD
ATOM     32  H   UNL     1       5.098   5.102  18.867  0.00  0.00    +0.000 HD
ENDBRANCH  18  19
ENDBRANCH  17  18
ENDBRANCH   4  17
TORSDOF 5
ENDMDL
MODEL 8
REMARK VINA RESULT:      -8.5      1.572      2.400
REMARK  Name = 
REMARK  5 active torsions:
REMARK  status: ('A' for Active; 'I' for Inactive)
REMARK    1  A    between atoms: C_2  and  C_24
REMARK    2  A    between atoms: N_3  and  C_4
REMARK    3  A    between atoms: C_7  and  C_8
REMARK    4  A    between atoms: C_8  and  C_9
REMARK    5  A    between atoms: C_9  and  N_10
REMARK                            x       y       z     vdW  Elec       q    Type
REMARK                         _______ _______ _______ _____ _____    ______ ____
ROOT
ATOM      1  C   UNL     1       6.002   5.165  18.971  0.00  0.00    +0.000 A 
ATOM      2  C   UNL     1       7.287   5.406  19.476  0.00  0.00    +0.000 A 
ATOM      3  C   UNL     1       8.121   6.476  19.010  0.00  0.00    +0.000 A 
ATOM      4  C   UNL     1       7.716   7.356  17.998  0.00  0.00    +0.000 A 
ATOM      5  C   UNL     1       6.402   7.132  17.520  0.00  0.00    +0.000 A 
ATOM      6  C   UNL     1       5.571   6.060  17.983  0.00  0.00    +0.000 A 
ENDROOT
BRANCH   1   9
ATOM      7  O   UNL     1       4.170   3.523  17.371  0.00  0.00    +0.000 OA
ATOM      8  C   UNL     1       4.254   3.373  18.583  0.00  0.00    +0.000 C 
ATOM      9  N   UNL     1       5.132   4.093  19.389  0.00  0.00    +0.000 N 
ATOM     10  H   UNL     1       5.189   3.819  20.366  0.00  0.00    +0.000 HD
BRANCH   8  11
ATOM     11  C   UNL     1       3.394   2.258  19.282  0.00  0.00    +0.000 C 
ATOM     12  C   UNL     1       3.033   2.524  20.751  0.00  0.00    +0.000 C 
ATOM     13  C   UNL     1       2.083   3.713  20.899  0.00  0.00    +0.000 C 
ATOM     14  C   UNL     1       0.795   3.530  20.098  0.00  0.00    +0.000 C 
ATOM     15  C   UNL     1       1.053   3.127  18.650  0.00  0.00    +0.000 C 
ATOM     16  C   UNL     1       2.069   1.984  18.523  0.00  0.00    +0.000 C 
ENDBRANCH   8  11
ENDBRANCH   1   9
BRANCH   4  17
ATOM     17  C   UNL     1       8.534   8.601  17.520  0.00  0.00    +0.000 C 
BRANCH  17  18
ATOM     18  C   UNL     1       8.046  10.081  17.800  0.00  0.00    +0.000 C 
BRANCH  18  19
ATOM     19  N   UNL     1       8.767  10.890  18.883  0.00  0.00    +0.000 N 
ATOM     20  C   UNL     1       8.978  12.263  18.772  0.00  0.00    +0.000 A 
ATOM     21  N   UNL     1       8.519  12.828  17.676  0.00  0.00    +0.000 NA
ATOM     22  N   UNL     1       9.167  13.990  17.281  0.00  0.00    +0.000 N 
ATOM     23  C   UNL     1      10.526  14.004  17.594  0.00  0.00    +0.000 A 
ATOM     24  O   UNL     1      11.477  13.926  16.839  0.00  0.00    +0.000 OA
ATOM     25  C   UNL     1      10.691  14.023  19.043  0.00  0.00    +0.000 A 
ATOM     26  C   UNL     1      11.426  15.066  19.625  0.00  0.00    +0.000 A 
ATOM     27  C   UNL     1      11.213  15.357  20.962  0.00  0.00    +0.000 A 
ATOM     28  C   UNL     1      10.299  14.575  21.685  0.00  0.00    +0.000 A 
ATOM     29  C   UNL     1       9.619  13.466  21.087  0.00  0.00    +0.000 A 
ATOM     30  C   UNL     1       9.825  13.159  19.729  0.00  0.00    +0.000 A 
ATOM     31  H   UNL     1       9.468  10.362  19.395  0.00  0.00    +0.000 HD
ATOM     32  H   UNL     1       8.681  14.757  17.745  0.00  0.00    +0.000 HD
ENDBRANCH  18  19
ENDBRANCH  17  18
ENDBRANCH   4  17
TORSDOF 5
ENDMDL
MODEL 9
REMARK VINA RESULT:      -8.5      6.654      9.707
REMARK  Name = 
REMARK  5 active torsions:
REMARK  status: ('A' for Active; 'I' for Inactive)
REMARK    1  A    between atoms: C_2  and  C_24
REMARK    2  A    between atoms: N_3  and  C_4
REMARK    3  A    between atoms: C_7  and  C_8
REMARK    4  A    between atoms: C_8  and  C_9
REMARK    5  A    between atoms: C_9  and  N_10
REMARK                            x       y       z     vdW  Elec       q    Type
REMARK                         _______ _______ _______ _____ _____    ______ ____
ROOT
ATOM      1  C   UNL     1       1.448   9.294  18.934  0.00  0.00    +0.000 A 
ATOM      2  C   UNL     1       1.432   8.546  20.118  0.00  0.00    +0.000 A 
ATOM      3  C   UNL     1       2.077   7.271  20.245  0.00  0.00    +0.000 A 
ATOM      4  C   UNL     1       2.765   6.669  19.184  0.00  0.00    +0.000 A 
ATOM      5  C   UNL     1       2.812   7.448  18.002  0.00  0.00    +0.000 A 
ATOM      6  C   UNL     1       2.163   8.719  17.874  0.00  0.00    +0.000 A 
ENDROOT
BRANCH   1   9
ATOM      7  O   UNL     1       1.406  11.639  20.697  0.00  0.00    +0.000 OA
ATOM      8  C   UNL     1       0.786  11.634  19.642  0.00  0.00    +0.000 C 
ATOM      9  N   UNL     1       0.799  10.568  18.746  0.00  0.00    +0.000 N 
ATOM     10  H   UNL     1       0.329  10.710  17.857  0.00  0.00    +0.000 HD
BRANCH   8  11
ATOM     11  C   UNL     1      -0.012  12.919  19.211  0.00  0.00    +0.000 C 
ATOM     12  C   UNL     1      -1.045  12.713  18.094  0.00  0.00    +0.000 C 
ATOM     13  C   UNL     1      -2.206  11.828  18.546  0.00  0.00    +0.000 C 
ATOM     14  C   UNL     1      -2.915  12.386  19.779  0.00  0.00    +0.000 C 
ATOM     15  C   UNL     1      -1.949  12.750  20.901  0.00  0.00    +0.000 C 
ATOM     16  C   UNL     1      -0.751  13.573  20.409  0.00  0.00    +0.000 C 
ENDBRANCH   8  11
ENDBRANCH   1   9
BRANCH   4  17
ATOM     17  C   UNL     1       3.575   5.335  19.289  0.00  0.00    +0.000 C 
BRANCH  17  18
ATOM     18  C   UNL     1       3.259   4.090  18.364  0.00  0.00    +0.000 C 
BRANCH  18  19
ATOM     19  N   UNL     1       3.667   4.158  16.890  0.00  0.00    +0.000 N 
ATOM     20  C   UNL     1       4.994   4.049  16.476  0.00  0.00    +0.000 A 
ATOM     21  N   UNL     1       5.881   3.883  17.433  0.00  0.00    +0.000 NA
ATOM     22  N   UNL     1       7.167   4.322  17.145  0.00  0.00    +0.000 N 
ATOM     23  C   UNL     1       7.201   5.434  16.305  0.00  0.00    +0.000 A 
ATOM     24  O   UNL     1       7.512   6.578  16.577  0.00  0.00    +0.000 OA
ATOM     25  C   UNL     1       6.687   5.067  14.991  0.00  0.00    +0.000 A 
ATOM     26  C   UNL     1       7.501   5.268  13.867  0.00  0.00    +0.000 A 
ATOM     27  C   UNL     1       7.240   4.531  12.723  0.00  0.00    +0.000 A 
ATOM     28  C   UNL     1       6.152   3.644  12.725  0.00  0.00    +0.000 A 
ATOM     29  C   UNL     1       5.290   3.515  13.861  0.00  0.00    +0.000 A 
ATOM     30  C   UNL     1       5.542   4.256  15.030  0.00  0.00    +0.000 A 
ATOM     31  H   UNL     1       3.060   4.741  16.319  0.00  0.00    +0.000 HD
ATOM     32  H   UNL     1       7.646   3.530  16.717  0.00  0.00    +0.000 HD
ENDBRANCH  18  19
ENDBRANCH  17  18
ENDBRANCH   4  17
TORSDOF 5
ENDMDL
