MODEL 1
REMARK VINA RESULT:      -6.4      0.000      0.000
REMARK  Name = 
REMARK  3 active torsions:
REMARK  status: ('A' for Active; 'I' for Inactive)
REMARK    1  A    between atoms: C_1  and  C_2
REMARK    2  A    between atoms: N_4  and  C_5
REMARK    3  A    between atoms: N_8  and  C_9
REMARK                            x       y       z     vdW  Elec       q    Type
REMARK                         _______ _______ _______ _____ _____    ______ ____
ROOT
ATOM      1  C   UNL     1       2.595   7.431  17.872  0.00  0.00    +0.000 C 
ATOM      2  C   UNL     1       3.853   6.626  17.932  0.00  0.00    +0.000 A 
ATOM      3  N   UNL     1       4.981   7.054  17.431  0.00  0.00    +0.000 NA
ATOM      4  N   UNL     1       5.891   6.099  17.809  0.00  0.00    +0.000 N 
ATOM      5  C   UNL     1       7.253   6.086  17.364  0.00  0.00    +0.000 C 
ATOM      6  C   UNL     1       5.263   5.070  18.518  0.00  0.00    +0.000 A 
ATOM      7  O   UNL     1       5.792   4.046  18.924  0.00  0.00    +0.000 OA
ATOM      8  N   UNL     1       3.935   5.446  18.583  0.00  0.00    +0.000 N 
ENDROOT
BRANCH   8   9
ATOM      9  C   UNL     1       2.918   4.618  19.075  0.00  0.00    +0.000 A 
ATOM     10  C   UNL     1       2.249   3.755  18.201  0.00  0.00    +0.000 A 
ATOM     11  C   UNL     1       1.186   2.974  18.656  0.00  0.00    +0.000 A 
ATOM     12  C   UNL     1       0.757   3.085  19.976  0.00  0.00    +0.000 A 
ATOM     13  C   UNL     1       1.407   3.955  20.850  0.00  0.00    +0.000 A 
ATOM     14  C   UNL     1       2.502   4.705  20.409  0.00  0.00    +0.000 A 
ENDBRANCH   8   9
TORSDOF 1
ENDMDL
MODEL 2
REMARK VINA RESULT:      -6.4      0.226      1.311
REMARK  Name = 
REMARK  3 active torsions:
REMARK  status: ('A' for Active; 'I' for Inactive)
REMARK    1  A    between atoms: C_1  and  C_2
REMARK    2  A    between atoms: N_4  and  C_5
REMARK    3  A    between atoms: N_8  and  C_9
REMARK                            x       y       z     vdW  Elec       q    Type
REMARK                         _______ _______ _______ _____ _____    ______ ____
ROOT
ATOM      1  C   UNL     1       2.842   7.470  17.701  0.00  0.00    +0.000 C 
ATOM      2  C   UNL     1       4.014   6.557  17.873  0.00  0.00    +0.000 A 
ATOM      3  N   UNL     1       5.210   6.868  17.448  0.00  0.00    +0.000 NA
ATOM      4  N   UNL     1       5.999   5.847  17.914  0.00  0.00    +0.000 N 
ATOM      5  C   UNL     1       7.383   5.699  17.572  0.00  0.00    +0.000 C 
ATOM      6  C   UNL     1       5.230   4.899  18.596  0.00  0.00    +0.000 A 
ATOM      7  O   UNL     1       5.632   3.842  19.062  0.00  0.00    +0.000 OA
ATOM      8  N   UNL     1       3.940   5.393  18.553  0.00  0.00    +0.000 N 
ENDROOT
BRANCH   8   9
ATOM      9  C   UNL     1       2.819   4.674  18.986  0.00  0.00    +0.000 A 
ATOM     10  C   UNL     1       2.419   4.762  20.323  0.00  0.00    +0.000 A 
ATOM     11  C   UNL     1       1.349   3.998  20.791  0.00  0.00    +0.000 A 
ATOM     12  C   UNL     1       0.703   3.108  19.936  0.00  0.00    +0.000 A 
ATOM     13  C   UNL     1       1.107   3.002  18.606  0.00  0.00    +0.000 A 
ATOM     14  C   UNL     1       2.149   3.799  18.122  0.00  0.00    +0.000 A 
ENDBRANCH   8   9
TORSDOF 1
ENDMDL
MODEL 3
REMARK VINA RESULT:      -6.3      1.939      4.664
REMARK  Name = 
REMARK  3 active torsions:
REMARK  status: ('A' for Active; 'I' for Inactive)
REMARK    1  A    between atoms: C_1  and  C_2
REMARK    2  A    between atoms: N_4  and  C_5
REMARK    3  A    between atoms: N_8  and  C_9
REMARK                            x       y       z     vdW  Elec       q    Type
REMARK                         _______ _______ _______ _____ _____    ______ ____
ROOT
ATOM      1  C   UNL     1       3.043   6.642  18.461  0.00  0.00    +0.000 C 
ATOM      2  C   UNL     1       3.133   5.342  19.194  0.00  0.00    +0.000 A 
ATOM      3  N   UNL     1       2.387   5.072  20.232  0.00  0.00    +0.000 NA
ATOM      4  N   UNL     1       2.678   3.762  20.513  0.00  0.00    +0.000 N 
ATOM      5  C   UNL     1       2.183   3.072  21.668  0.00  0.00    +0.000 C 
ATOM      6  C   UNL     1       3.648   3.270  19.634  0.00  0.00    +0.000 A 
ATOM      7  O   UNL     1       4.166   2.164  19.675  0.00  0.00    +0.000 OA
ATOM      8  N   UNL     1       3.922   4.326  18.785  0.00  0.00    +0.000 N 
ENDROOT
BRANCH   8   9
ATOM      9  C   UNL     1       4.959   4.314  17.843  0.00  0.00    +0.000 A 
ATOM     10  C   UNL     1       6.250   4.681  18.236  0.00  0.00    +0.000 A 
ATOM     11  C   UNL     1       7.282   4.746  17.300  0.00  0.00    +0.000 A 
ATOM     12  C   UNL     1       7.018   4.488  15.956  0.00  0.00    +0.000 A 
ATOM     13  C   UNL     1       5.730   4.139  15.553  0.00  0.00    +0.000 A 
ATOM     14  C   UNL     1       4.704   4.029  16.496  0.00  0.00    +0.000 A 
ENDBRANCH   8   9
TORSDOF 1
ENDMDL
MODEL 4
REMARK VINA RESULT:      -6.2      1.944      4.502
REMARK  Name = 
REMARK  3 active torsions:
REMARK  status: ('A' for Active; 'I' for Inactive)
REMARK    1  A    between atoms: C_1  and  C_2
REMARK    2  A    between atoms: N_4  and  C_5
REMARK    3  A    between atoms: N_8  and  C_9
REMARK                            x       y       z     vdW  Elec       q    Type
REMARK                         _______ _______ _______ _____ _____    ______ ____
ROOT
ATOM      1  C   UNL     1       2.868   6.683  18.664  0.00  0.00    +0.000 C 
ATOM      2  C   UNL     1       3.019   5.366  19.355  0.00  0.00    +0.000 A 
ATOM      3  N   UNL     1       2.269   5.017  20.366  0.00  0.00    +0.000 NA
ATOM      4  N   UNL     1       2.630   3.717  20.609  0.00  0.00    +0.000 N 
ATOM      5  C   UNL     1       2.153   2.960  21.729  0.00  0.00    +0.000 C 
ATOM      6  C   UNL     1       3.645   3.313  19.736  0.00  0.00    +0.000 A 
ATOM      7  O   UNL     1       4.226   2.237  19.751  0.00  0.00    +0.000 OA
ATOM      8  N   UNL     1       3.874   4.412  18.929  0.00  0.00    +0.000 N 
ENDROOT
BRANCH   8   9
ATOM      9  C   UNL     1       4.929   4.493  18.011  0.00  0.00    +0.000 A 
ATOM     10  C   UNL     1       4.722   4.087  16.688  0.00  0.00    +0.000 A 
ATOM     11  C   UNL     1       5.777   4.092  15.776  0.00  0.00    +0.000 A 
ATOM     12  C   UNL     1       7.055   4.459  16.192  0.00  0.00    +0.000 A 
ATOM     13  C   UNL     1       7.273   4.848  17.513  0.00  0.00    +0.000 A 
ATOM     14  C   UNL     1       6.209   4.887  18.418  0.00  0.00    +0.000 A 
ENDBRANCH   8   9
TORSDOF 1
ENDMDL
MODEL 5
REMARK VINA RESULT:      -6.2      1.874      2.451
REMARK  Name = 
REMARK  3 active torsions:
REMARK  status: ('A' for Active; 'I' for Inactive)
REMARK    1  A    between atoms: C_1  and  C_2
REMARK    2  A    between atoms: N_4  and  C_5
REMARK    3  A    between atoms: N_8  and  C_9
REMARK                            x       y       z     vdW  Elec       q    Type
REMARK                         _______ _______ _______ _____ _____    ______ ____
ROOT
ATOM      1  C   UNL     1       5.373   4.399  15.067  0.00  0.00    +0.000 C 
ATOM      2  C   UNL     1       5.797   4.875  16.420  0.00  0.00    +0.000 A 
ATOM      3  N   UNL     1       6.923   5.507  16.617  0.00  0.00    +0.000 NA
ATOM      4  N   UNL     1       6.865   5.877  17.936  0.00  0.00    +0.000 N 
ATOM      5  C   UNL     1       7.957   6.488  18.635  0.00  0.00    +0.000 C 
ATOM      6  C   UNL     1       5.686   5.414  18.529  0.00  0.00    +0.000 A 
ATOM      7  O   UNL     1       5.379   5.521  19.707  0.00  0.00    +0.000 OA
ATOM      8  N   UNL     1       5.010   4.767  17.512  0.00  0.00    +0.000 N 
ENDROOT
BRANCH   8   9
ATOM      9  C   UNL     1       3.845   4.015  17.710  0.00  0.00    +0.000 A 
ATOM     10  C   UNL     1       2.606   4.663  17.747  0.00  0.00    +0.000 A 
ATOM     11  C   UNL     1       1.441   3.943  18.015  0.00  0.00    +0.000 A 
ATOM     12  C   UNL     1       1.514   2.580  18.293  0.00  0.00    +0.000 A 
ATOM     13  C   UNL     1       2.747   1.930  18.276  0.00  0.00    +0.000 A 
ATOM     14  C   UNL     1       3.911   2.639  17.963  0.00  0.00    +0.000 A 
ENDBRANCH   8   9
TORSDOF 1
ENDMDL
MODEL 6
REMARK VINA RESULT:      -6.0      1.923      2.243
REMARK  Name = 
REMARK  3 active torsions:
REMARK  status: ('A' for Active; 'I' for Inactive)
REMARK    1  A    between atoms: C_1  and  C_2
REMARK    2  A    between atoms: N_4  and  C_5
REMARK    3  A    between atoms: N_8  and  C_9
REMARK                            x       y       z     vdW  Elec       q    Type
REMARK                         _______ _______ _______ _____ _____    ______ ____
ROOT
ATOM      1  C   UNL     1       2.914   3.297  16.686  0.00  0.00    +0.000 C 
ATOM      2  C   UNL     1       4.214   3.750  17.270  0.00  0.00    +0.000 A 
ATOM      3  N   UNL     1       5.286   3.920  16.543  0.00  0.00    +0.000 NA
ATOM      4  N   UNL     1       6.194   4.457  17.418  0.00  0.00    +0.000 N 
ATOM      5  C   UNL     1       7.570   4.689  17.086  0.00  0.00    +0.000 C 
ATOM      6  C   UNL     1       5.643   4.567  18.699  0.00  0.00    +0.000 A 
ATOM      7  O   UNL     1       6.226   4.941  19.706  0.00  0.00    +0.000 OA
ATOM      8  N   UNL     1       4.350   4.099  18.567  0.00  0.00    +0.000 N 
ENDROOT
BRANCH   8   9
ATOM      9  C   UNL     1       3.488   3.888  19.651  0.00  0.00    +0.000 A 
ATOM     10  C   UNL     1       3.562   2.687  20.365  0.00  0.00    +0.000 A 
ATOM     11  C   UNL     1       2.666   2.426  21.402  0.00  0.00    +0.000 A 
ATOM     12  C   UNL     1       1.662   3.344  21.701  0.00  0.00    +0.000 A 
ATOM     13  C   UNL     1       1.570   4.535  20.983  0.00  0.00    +0.000 A 
ATOM     14  C   UNL     1       2.494   4.820  19.973  0.00  0.00    +0.000 A 
ENDBRANCH   8   9
TORSDOF 1
ENDMDL
MODEL 7
REMARK VINA RESULT:      -6.0      1.206      1.747
REMARK  Name = 
REMARK  3 active torsions:
REMARK  status: ('A' for Active; 'I' for Inactive)
REMARK    1  A    between atoms: C_1  and  C_2
REMARK    2  A    between atoms: N_4  and  C_5
REMARK    3  A    between atoms: N_8  and  C_9
REMARK                            x       y       z     vdW  Elec       q    Type
REMARK                         _______ _______ _______ _____ _____    ______ ____
ROOT
ATOM      1  C   UNL     1       2.261   7.648  18.925  0.00  0.00    +0.000 C 
ATOM      2  C   UNL     1       3.135   6.723  18.140  0.00  0.00    +0.000 A 
ATOM      3  N   UNL     1       3.903   7.143  17.170  0.00  0.00    +0.000 NA
ATOM      4  N   UNL     1       4.620   6.029  16.814  0.00  0.00    +0.000 N 
ATOM      5  C   UNL     1       5.506   5.986  15.688  0.00  0.00    +0.000 C 
ATOM      6  C   UNL     1       4.229   4.924  17.576  0.00  0.00    +0.000 A 
ATOM      7  O   UNL     1       4.631   3.777  17.445  0.00  0.00    +0.000 OA
ATOM      8  N   UNL     1       3.260   5.411  18.433  0.00  0.00    +0.000 N 
ENDROOT
BRANCH   8   9
ATOM      9  C   UNL     1       2.484   4.598  19.269  0.00  0.00    +0.000 A 
ATOM     10  C   UNL     1       2.786   4.527  20.633  0.00  0.00    +0.000 A 
ATOM     11  C   UNL     1       2.072   3.669  21.470  0.00  0.00    +0.000 A 
ATOM     12  C   UNL     1       1.083   2.844  20.940  0.00  0.00    +0.000 A 
ATOM     13  C   UNL     1       0.788   2.895  19.578  0.00  0.00    +0.000 A 
ATOM     14  C   UNL     1       1.471   3.787  18.745  0.00  0.00    +0.000 A 
ENDBRANCH   8   9
TORSDOF 1
ENDMDL
MODEL 8
REMARK VINA RESULT:      -6.0      1.735      4.730
REMARK  Name = 
REMARK  3 active torsions:
REMARK  status: ('A' for Active; 'I' for Inactive)
REMARK    1  A    between atoms: C_1  and  C_2
REMARK    2  A    between atoms: N_4  and  C_5
REMARK    3  A    between atoms: N_8  and  C_9
REMARK                            x       y       z     vdW  Elec       q    Type
REMARK                         _______ _______ _______ _____ _____    ______ ____
ROOT
ATOM      1  C   UNL     1       2.544   6.824  19.642  0.00  0.00    +0.000 C 
ATOM      2  C   UNL     1       2.603   5.402  19.182  0.00  0.00    +0.000 A 
ATOM      3  N   UNL     1       1.604   4.575  19.341  0.00  0.00    +0.000 NA
ATOM      4  N   UNL     1       2.005   3.445  18.676  0.00  0.00    +0.000 N 
ATOM      5  C   UNL     1       1.271   2.213  18.696  0.00  0.00    +0.000 C 
ATOM      6  C   UNL     1       3.289   3.610  18.148  0.00  0.00    +0.000 A 
ATOM      7  O   UNL     1       3.947   2.759  17.567  0.00  0.00    +0.000 OA
ATOM      8  N   UNL     1       3.649   4.899  18.494  0.00  0.00    +0.000 N 
ENDROOT
BRANCH   8   9
ATOM      9  C   UNL     1       4.932   5.425  18.296  0.00  0.00    +0.000 A 
ATOM     10  C   UNL     1       5.939   5.154  19.228  0.00  0.00    +0.000 A 
ATOM     11  C   UNL     1       7.204   5.726  19.088  0.00  0.00    +0.000 A 
ATOM     12  C   UNL     1       7.455   6.609  18.040  0.00  0.00    +0.000 A 
ATOM     13  C   UNL     1       6.452   6.898  17.116  0.00  0.00    +0.000 A 
ATOM     14  C   UNL     1       5.198   6.291  17.228  0.00  0.00    +0.000 A 
ENDBRANCH   8   9
TORSDOF 1
ENDMDL
MODEL 9
REMARK VINA RESULT:      -6.0      1.716      4.619
REMARK  Name = 
REMARK  3 active torsions:
REMARK  status: ('A' for Active; 'I' for Inactive)
REMARK    1  A    between atoms: C_1  and  C_2
REMARK    2  A    between atoms: N_4  and  C_5
REMARK    3  A    between atoms: N_8  and  C_9
REMARK                            x       y       z     vdW  Elec       q    Type
REMARK                         _______ _______ _______ _____ _____    ______ ____
ROOT
ATOM      1  C   UNL     1       2.439   6.834  19.731  0.00  0.00    +0.000 C 
ATOM      2  C   UNL     1       2.564   5.426  19.241  0.00  0.00    +0.000 A 
ATOM      3  N   UNL     1       1.595   4.558  19.356  0.00  0.00    +0.000 NA
ATOM      4  N   UNL     1       2.056   3.460  18.676  0.00  0.00    +0.000 N 
ATOM      5  C   UNL     1       1.370   2.201  18.649  0.00  0.00    +0.000 C 
ATOM      6  C   UNL     1       3.345   3.687  18.184  0.00  0.00    +0.000 A 
ATOM      7  O   UNL     1       4.049   2.876  17.601  0.00  0.00    +0.000 OA
ATOM      8  N   UNL     1       3.646   4.981  18.568  0.00  0.00    +0.000 N 
ENDROOT
BRANCH   8   9
ATOM      9  C   UNL     1       4.912   5.560  18.414  0.00  0.00    +0.000 A 
ATOM     10  C   UNL     1       5.151   6.412  17.330  0.00  0.00    +0.000 A 
ATOM     11  C   UNL     1       6.424   6.943  17.118  0.00  0.00    +0.000 A 
ATOM     12  C   UNL     1       7.475   6.589  17.961  0.00  0.00    +0.000 A 
ATOM     13  C   UNL     1       7.249   5.727  19.033  0.00  0.00    +0.000 A 
ATOM     14  C   UNL     1       5.965   5.229  19.275  0.00  0.00    +0.000 A 
ENDBRANCH   8   9
TORSDOF 1
ENDMDL
