MODEL 1
REMARK VINA RESULT:      -5.7      0.000      0.000
REMARK  Name = 
REMARK  3 active torsions:
REMARK  status: ('A' for Active; 'I' for Inactive)
REMARK    1  A    between atoms: C_2  and  C_3
REMARK    2  A    between atoms: C_3  and  C_4
REMARK    3  A    between atoms: N_10  and  O_11
REMARK                            x       y       z     vdW  Elec       q    Type
REMARK                         _______ _______ _______ _____ _____    ______ ____
ROOT
ATOM      1  C   UNL     1       4.541   4.817  19.216  0.00  0.00    +0.000 C 
ENDROOT
BRANCH   1   2
ATOM      2  C   UNL     1       3.914   3.448  18.892  0.00  0.00    +0.000 C 
ATOM      3  C   UNL     1       3.765   2.554  20.138  0.00  0.00    +0.000 C 
ATOM      4  C   UNL     1       2.584   2.930  21.032  0.00  0.00    +0.000 C 
ATOM      5  C   UNL     1       1.286   3.004  20.237  0.00  0.00    +0.000 C 
ATOM      6  C   UNL     1       1.412   3.985  19.078  0.00  0.00    +0.000 C 
ATOM      7  C   UNL     1       2.570   3.609  18.158  0.00  0.00    +0.000 C 
ENDBRANCH   1   2
BRANCH   1   9
ATOM      8  O   UNL     1       6.797   5.409  19.856  0.00  0.00    +0.000 OA
ATOM      9  C   UNL     1       6.050   4.828  19.070  0.00  0.00    +0.000 C 
ATOM     10  N   UNL     1       6.533   4.153  17.974  0.00  0.00    +0.000 N 
ATOM     11  H   UNL     1       5.994   3.497  17.421  0.00  0.00    +0.000 HD
BRANCH  10  12
ATOM     12  O   UNL     1       7.940   4.051  17.881  0.00  0.00    +0.000 OA
ATOM     13  H   UNL     1       8.241   4.686  18.568  0.00  0.00    +0.000 HD
ENDBRANCH  10  12
ENDBRANCH   1   9
TORSDOF 3
ENDMDL
MODEL 2
REMARK VINA RESULT:      -5.6      1.450      1.826
REMARK  Name = 
REMARK  3 active torsions:
REMARK  status: ('A' for Active; 'I' for Inactive)
REMARK    1  A    between atoms: C_2  and  C_3
REMARK    2  A    between atoms: C_3  and  C_4
REMARK    3  A    between atoms: N_10  and  O_11
REMARK                            x       y       z     vdW  Elec       q    Type
REMARK                         _______ _______ _______ _____ _____    ______ ____
ROOT
ATOM      1  C   UNL     1       4.230   4.641  17.982  0.00  0.00    +0.000 C 
ENDROOT
BRANCH   1   2
ATOM      2  C   UNL     1       3.121   3.765  17.372  0.00  0.00    +0.000 C 
ATOM      3  C   UNL     1       3.264   2.277  17.750  0.00  0.00    +0.000 C 
ATOM      4  C   UNL     1       2.799   1.952  19.167  0.00  0.00    +0.000 C 
ATOM      5  C   UNL     1       1.385   2.460  19.421  0.00  0.00    +0.000 C 
ATOM      6  C   UNL     1       1.289   3.958  19.159  0.00  0.00    +0.000 C 
ATOM      7  C   UNL     1       1.723   4.300  17.735  0.00  0.00    +0.000 C 
ENDBRANCH   1   2
BRANCH   1   9
ATOM      8  O   UNL     1       5.808   4.250  16.191  0.00  0.00    +0.000 OA
ATOM      9  C   UNL     1       5.601   4.354  17.399  0.00  0.00    +0.000 C 
ATOM     10  N   UNL     1       6.604   4.195  18.324  0.00  0.00    +0.000 N 
ATOM     11  H   UNL     1       6.536   4.469  19.298  0.00  0.00    +0.000 HD
BRANCH  10  12
ATOM     12  O   UNL     1       7.909   4.043  17.801  0.00  0.00    +0.000 OA
ATOM     13  H   UNL     1       8.220   4.973  17.742  0.00  0.00    +0.000 HD
ENDBRANCH  10  12
ENDBRANCH   1   9
TORSDOF 3
ENDMDL
MODEL 3
REMARK VINA RESULT:      -5.6      1.875      2.695
REMARK  Name = 
REMARK  3 active torsions:
REMARK  status: ('A' for Active; 'I' for Inactive)
REMARK    1  A    between atoms: C_2  and  C_3
REMARK    2  A    between atoms: C_3  and  C_4
REMARK    3  A    between atoms: N_10  and  O_11
REMARK                            x       y       z     vdW  Elec       q    Type
REMARK                         _______ _______ _______ _____ _____    ______ ____
ROOT
ATOM      1  C   UNL     1       4.489   4.136  16.446  0.00  0.00    +0.000 C 
ENDROOT
BRANCH   1   2
ATOM      2  C   UNL     1       4.068   4.095  17.927  0.00  0.00    +0.000 C 
ATOM      3  C   UNL     1       2.884   5.032  18.235  0.00  0.00    +0.000 C 
ATOM      4  C   UNL     1       1.530   4.483  17.792  0.00  0.00    +0.000 C 
ATOM      5  C   UNL     1       1.290   3.081  18.338  0.00  0.00    +0.000 C 
ATOM      6  C   UNL     1       2.411   2.135  17.923  0.00  0.00    +0.000 C 
ATOM      7  C   UNL     1       3.771   2.654  18.383  0.00  0.00    +0.000 C 
ENDBRANCH   1   2
BRANCH   1   9
ATOM      8  O   UNL     1       6.513   3.839  15.156  0.00  0.00    +0.000 OA
ATOM      9  C   UNL     1       5.990   4.031  16.253  0.00  0.00    +0.000 C 
ATOM     10  N   UNL     1       6.733   4.144  17.403  0.00  0.00    +0.000 N 
ATOM     11  H   UNL     1       6.378   4.501  18.283  0.00  0.00    +0.000 HD
BRANCH  10  12
ATOM     12  O   UNL     1       8.137   4.165  17.232  0.00  0.00    +0.000 OA
ATOM     13  H   UNL     1       8.343   5.122  17.316  0.00  0.00    +0.000 HD
ENDBRANCH  10  12
ENDBRANCH   1   9
TORSDOF 3
ENDMDL
MODEL 4
REMARK VINA RESULT:      -5.6      1.166      1.877
REMARK  Name = 
REMARK  3 active torsions:
REMARK  status: ('A' for Active; 'I' for Inactive)
REMARK    1  A    between atoms: C_2  and  C_3
REMARK    2  A    between atoms: C_3  and  C_4
REMARK    3  A    between atoms: N_10  and  O_11
REMARK                            x       y       z     vdW  Elec       q    Type
REMARK                         _______ _______ _______ _____ _____    ______ ____
ROOT
ATOM      1  C   UNL     1       4.699   4.922  18.154  0.00  0.00    +0.000 C 
ENDROOT
BRANCH   1   2
ATOM      2  C   UNL     1       3.806   4.332  19.261  0.00  0.00    +0.000 C 
ATOM      3  C   UNL     1       2.321   4.707  19.089  0.00  0.00    +0.000 C 
ATOM      4  C   UNL     1       1.599   3.893  18.017  0.00  0.00    +0.000 C 
ATOM      5  C   UNL     1       1.777   2.396  18.237  0.00  0.00    +0.000 C 
ATOM      6  C   UNL     1       3.254   2.024  18.285  0.00  0.00    +0.000 C 
ATOM      7  C   UNL     1       3.987   2.807  19.372  0.00  0.00    +0.000 C 
ENDBRANCH   1   2
BRANCH   1   9
ATOM      8  O   UNL     1       6.685   5.107  19.522  0.00  0.00    +0.000 OA
ATOM      9  C   UNL     1       6.180   4.781  18.449  0.00  0.00    +0.000 C 
ATOM     10  N   UNL     1       6.933   4.278  17.415  0.00  0.00    +0.000 N 
ATOM     11  H   UNL     1       6.551   3.809  16.602  0.00  0.00    +0.000 HD
BRANCH  10  12
ATOM     12  O   UNL     1       8.295   4.029  17.706  0.00  0.00    +0.000 OA
ATOM     13  H   UNL     1       8.307   4.060  18.688  0.00  0.00    +0.000 HD
ENDBRANCH  10  12
ENDBRANCH   1   9
TORSDOF 3
ENDMDL
MODEL 5
REMARK VINA RESULT:      -5.5      1.730      2.410
REMARK  Name = 
REMARK  3 active torsions:
REMARK  status: ('A' for Active; 'I' for Inactive)
REMARK    1  A    between atoms: C_2  and  C_3
REMARK    2  A    between atoms: C_3  and  C_4
REMARK    3  A    between atoms: N_10  and  O_11
REMARK                            x       y       z     vdW  Elec       q    Type
REMARK                         _______ _______ _______ _____ _____    ______ ____
ROOT
ATOM      1  C   UNL     1       3.192   2.467  17.977  0.00  0.00    +0.000 C 
ENDROOT
BRANCH   1   2
ATOM      2  C   UNL     1       1.907   3.316  17.938  0.00  0.00    +0.000 C 
ATOM      3  C   UNL     1       0.788   2.740  18.826  0.00  0.00    +0.000 C 
ATOM      4  C   UNL     1       0.976   3.018  20.317  0.00  0.00    +0.000 C 
ATOM      5  C   UNL     1       1.194   4.502  20.584  0.00  0.00    +0.000 C 
ATOM      6  C   UNL     1       2.382   5.030  19.788  0.00  0.00    +0.000 C 
ATOM      7  C   UNL     1       2.198   4.786  18.292  0.00  0.00    +0.000 C 
ENDBRANCH   1   2
BRANCH   1   9
ATOM      8  O   UNL     1       4.635   3.821  16.585  0.00  0.00    +0.000 OA
ATOM      9  C   UNL     1       4.442   3.269  17.668  0.00  0.00    +0.000 C 
ATOM     10  N   UNL     1       5.365   3.321  18.684  0.00  0.00    +0.000 N 
ATOM     11  H   UNL     1       5.174   3.067  19.646  0.00  0.00    +0.000 HD
BRANCH  10  12
ATOM     12  O   UNL     1       6.484   4.157  18.461  0.00  0.00    +0.000 OA
ATOM     13  H   UNL     1       6.689   3.984  17.516  0.00  0.00    +0.000 HD
ENDBRANCH  10  12
ENDBRANCH   1   9
TORSDOF 3
ENDMDL
MODEL 6
REMARK VINA RESULT:      -5.5      2.635      3.464
REMARK  Name = 
REMARK  3 active torsions:
REMARK  status: ('A' for Active; 'I' for Inactive)
REMARK    1  A    between atoms: C_2  and  C_3
REMARK    2  A    between atoms: C_3  and  C_4
REMARK    3  A    between atoms: N_10  and  O_11
REMARK                            x       y       z     vdW  Elec       q    Type
REMARK                         _______ _______ _______ _____ _____    ______ ____
ROOT
ATOM      1  C   UNL     1       5.374   4.404  15.851  0.00  0.00    +0.000 C 
ENDROOT
BRANCH   1   2
ATOM      2  C   UNL     1       5.118   4.302  17.366  0.00  0.00    +0.000 C 
ATOM      3  C   UNL     1       4.819   5.669  18.012  0.00  0.00    +0.000 C 
ATOM      4  C   UNL     1       3.399   6.173  17.764  0.00  0.00    +0.000 C 
ATOM      5  C   UNL     1       2.360   5.130  18.157  0.00  0.00    +0.000 C 
ATOM      6  C   UNL     1       2.598   3.818  17.418  0.00  0.00    +0.000 C 
ATOM      7  C   UNL     1       4.005   3.284  17.677  0.00  0.00    +0.000 C 
ENDBRANCH   1   2
BRANCH   1   9
ATOM      8  O   UNL     1       7.761   4.443  16.234  0.00  0.00    +0.000 OA
ATOM      9  C   UNL     1       6.812   4.748  15.514  0.00  0.00    +0.000 C 
ATOM     10  N   UNL     1       6.983   5.452  14.346  0.00  0.00    +0.000 N 
ATOM     11  H   UNL     1       6.276   5.548  13.626  0.00  0.00    +0.000 HD
BRANCH  10  12
ATOM     12  O   UNL     1       8.322   5.682  13.954  0.00  0.00    +0.000 OA
ATOM     13  H   UNL     1       8.397   6.659  14.032  0.00  0.00    +0.000 HD
ENDBRANCH  10  12
ENDBRANCH   1   9
TORSDOF 3
ENDMDL
MODEL 7
REMARK VINA RESULT:      -5.5      1.044      1.705
REMARK  Name = 
REMARK  3 active torsions:
REMARK  status: ('A' for Active; 'I' for Inactive)
REMARK    1  A    between atoms: C_2  and  C_3
REMARK    2  A    between atoms: C_3  and  C_4
REMARK    3  A    between atoms: N_10  and  O_11
REMARK                            x       y       z     vdW  Elec       q    Type
REMARK                         _______ _______ _______ _____ _____    ______ ____
ROOT
ATOM      1  C   UNL     1       4.521   3.746  18.928  0.00  0.00    +0.000 C 
ENDROOT
BRANCH   1   2
ATOM      2  C   UNL     1       3.342   4.712  18.702  0.00  0.00    +0.000 C 
ATOM      3  C   UNL     1       2.154   4.041  17.986  0.00  0.00    +0.000 C 
ATOM      4  C   UNL     1       1.306   3.152  18.894  0.00  0.00    +0.000 C 
ATOM      5  C   UNL     1       0.857   3.899  20.144  0.00  0.00    +0.000 C 
ATOM      6  C   UNL     1       2.054   4.455  20.907  0.00  0.00    +0.000 C 
ATOM      7  C   UNL     1       2.898   5.369  20.022  0.00  0.00    +0.000 C 
ENDBRANCH   1   2
BRANCH   1   9
ATOM      8  O   UNL     1       6.382   5.131  19.612  0.00  0.00    +0.000 OA
ATOM      9  C   UNL     1       5.873   4.411  18.754  0.00  0.00    +0.000 C 
ATOM     10  N   UNL     1       6.490   4.168  17.551  0.00  0.00    +0.000 N 
ATOM     11  H   UNL     1       6.220   3.433  16.906  0.00  0.00    +0.000 HD
BRANCH  10  12
ATOM     12  O   UNL     1       7.800   4.681  17.413  0.00  0.00    +0.000 OA
ATOM     13  H   UNL     1       8.008   4.971  18.328  0.00  0.00    +0.000 HD
ENDBRANCH  10  12
ENDBRANCH   1   9
TORSDOF 3
ENDMDL
MODEL 8
REMARK VINA RESULT:      -5.5      1.548      2.121
REMARK  Name = 
REMARK  3 active torsions:
REMARK  status: ('A' for Active; 'I' for Inactive)
REMARK    1  A    between atoms: C_2  and  C_3
REMARK    2  A    between atoms: C_3  and  C_4
REMARK    3  A    between atoms: N_10  and  O_11
REMARK                            x       y       z     vdW  Elec       q    Type
REMARK                         _______ _______ _______ _____ _____    ______ ____
ROOT
ATOM      1  C   UNL     1       4.325   3.968  18.490  0.00  0.00    +0.000 C 
ENDROOT
BRANCH   1   2
ATOM      2  C   UNL     1       3.042   4.809  18.354  0.00  0.00    +0.000 C 
ATOM      3  C   UNL     1       1.824   3.970  17.922  0.00  0.00    +0.000 C 
ATOM      4  C   UNL     1       1.211   3.143  19.051  0.00  0.00    +0.000 C 
ATOM      5  C   UNL     1       0.894   4.006  20.266  0.00  0.00    +0.000 C 
ATOM      6  C   UNL     1       2.138   4.738  20.755  0.00  0.00    +0.000 C 
ATOM      7  C   UNL     1       2.749   5.593  19.647  0.00  0.00    +0.000 C 
ENDBRANCH   1   2
BRANCH   1   9
ATOM      8  O   UNL     1       5.227   5.018  16.508  0.00  0.00    +0.000 OA
ATOM      9  C   UNL     1       5.436   4.426  17.565  0.00  0.00    +0.000 C 
ATOM     10  N   UNL     1       6.707   4.113  17.984  0.00  0.00    +0.000 N 
ATOM     11  H   UNL     1       6.945   3.818  18.924  0.00  0.00    +0.000 HD
BRANCH  10  12
ATOM     12  O   UNL     1       7.762   4.631  17.198  0.00  0.00    +0.000 OA
ATOM     13  H   UNL     1       7.971   5.474  17.659  0.00  0.00    +0.000 HD
ENDBRANCH  10  12
ENDBRANCH   1   9
TORSDOF 3
ENDMDL
MODEL 9
REMARK VINA RESULT:      -5.5      1.062      1.369
REMARK  Name = 
REMARK  3 active torsions:
REMARK  status: ('A' for Active; 'I' for Inactive)
REMARK    1  A    between atoms: C_2  and  C_3
REMARK    2  A    between atoms: C_3  and  C_4
REMARK    3  A    between atoms: N_10  and  O_11
REMARK                            x       y       z     vdW  Elec       q    Type
REMARK                         _______ _______ _______ _____ _____    ______ ____
ROOT
ATOM      1  C   UNL     1       4.412   4.183  18.229  0.00  0.00    +0.000 C 
ENDROOT
BRANCH   1   2
ATOM      2  C   UNL     1       3.879   3.281  19.359  0.00  0.00    +0.000 C 
ATOM      3  C   UNL     1       2.886   4.011  20.284  0.00  0.00    +0.000 C 
ATOM      4  C   UNL     1       1.487   4.166  19.691  0.00  0.00    +0.000 C 
ATOM      5  C   UNL     1       0.931   2.829  19.218  0.00  0.00    +0.000 C 
ATOM      6  C   UNL     1       1.868   2.174  18.210  0.00  0.00    +0.000 C 
ATOM      7  C   UNL     1       3.266   1.985  18.796  0.00  0.00    +0.000 C 
ENDBRANCH   1   2
BRANCH   1   9
ATOM      8  O   UNL     1       6.470   4.864  19.301  0.00  0.00    +0.000 OA
ATOM      9  C   UNL     1       5.910   4.406  18.306  0.00  0.00    +0.000 C 
ATOM     10  N   UNL     1       6.605   4.079  17.167  0.00  0.00    +0.000 N 
ATOM     11  H   UNL     1       6.233   3.517  16.409  0.00  0.00    +0.000 HD
BRANCH  10  12
ATOM     12  O   UNL     1       8.013   4.169  17.254  0.00  0.00    +0.000 OA
ATOM     13  H   UNL     1       8.264   3.259  17.528  0.00  0.00    +0.000 HD
ENDBRANCH  10  12
ENDBRANCH   1   9
TORSDOF 3
ENDMDL
