MODEL 1
REMARK VINA RESULT:      -7.6      0.000      0.000
REMARK  Name = 
REMARK  4 active torsions:
REMARK  status: ('A' for Active; 'I' for Inactive)
REMARK    1  A    between atoms: C_2  and  C_3
REMARK    2  A    between atoms: C_11  and  C_12
REMARK    3  A    between atoms: C_19  and  C_20
REMARK    4  A    between atoms: C_21  and  C_22
REMARK                            x       y       z     vdW  Elec       q    Type
REMARK                         _______ _______ _______ _____ _____    ______ ____
ROOT
ATOM      1  O   UNL     1      -5.776  13.678  22.360  0.00  0.00    +0.000 OA
ATOM      2  C   UNL     1      -5.068  13.337  21.405  0.00  0.00    +0.000 C 
ATOM      3  N   UNL     1      -3.701  13.592  21.293  0.00  0.00    +0.000 N 
ATOM      4  N   UNL     1      -3.301  14.547  22.218  0.00  0.00    +0.000 NA
ATOM      5  C   UNL     1      -2.061  14.362  22.509  0.00  0.00    +0.000 C 
ATOM      6  C   UNL     1      -1.401  13.283  21.708  0.00  0.00    +0.000 C 
ATOM      7  C   UNL     1      -2.615  12.546  21.037  0.00  0.00    +0.000 C 
ENDROOT
BRANCH   7   8
ATOM      8  C   UNL     1      -2.391  12.201  19.520  0.00  0.00    +0.000 A 
ATOM      9  C   UNL     1      -1.073  12.150  19.027  0.00  0.00    +0.000 A 
ATOM     10  N   UNL     1      -1.323  12.579  17.719  0.00  0.00    +0.000 N 
ATOM     11  C   UNL     1      -2.271  11.687  17.257  0.00  0.00    +0.000 A 
ATOM     12  C   UNL     1      -2.414  11.150  15.971  0.00  0.00    +0.000 A 
ATOM     13  C   UNL     1      -2.997   9.892  15.910  0.00  0.00    +0.000 A 
ATOM     14  C   UNL     1      -3.523   9.313  17.065  0.00  0.00    +0.000 A 
ATOM     15  C   UNL     1      -3.592  10.018  18.310  0.00  0.00    +0.000 A 
ATOM     16  C   UNL     1      -2.927  11.274  18.437  0.00  0.00    +0.000 A 
ATOM     17  H   UNL     1      -1.382  13.548  17.444  0.00  0.00    +0.000 HD
BRANCH   9  18
ATOM     18  C   UNL     1      -0.229  10.938  19.336  0.00  0.00    +0.000 A 
ATOM     19  C   UNL     1       0.697  10.438  18.372  0.00  0.00    +0.000 A 
ATOM     20  C   UNL     1       1.468   9.322  18.611  0.00  0.00    +0.000 A 
ATOM     21  C   UNL     1       1.355   8.666  19.829  0.00  0.00    +0.000 A 
ATOM     22  C   UNL     1       0.465   9.148  20.798  0.00  0.00    +0.000 A 
ATOM     23  C   UNL     1      -0.323  10.282  20.563  0.00  0.00    +0.000 A 
ENDBRANCH   9  18
ENDBRANCH   7   8
BRANCH   2  24
ATOM     24  C   UNL     1      -5.734  12.695  20.271  0.00  0.00    +0.000 A 
ATOM     25  C   UNL     1      -5.800  13.346  19.037  0.00  0.00    +0.000 A 
ATOM     26  C   UNL     1      -6.379  12.705  17.952  0.00  0.00    +0.000 A 
ATOM     27  C   UNL     1      -6.984  11.460  18.130  0.00  0.00    +0.000 A 
ATOM     28  C   UNL     1      -7.013  10.863  19.392  0.00  0.00    +0.000 A 
ATOM     29  C   UNL     1      -6.382  11.476  20.466  0.00  0.00    +0.000 A 
ENDBRANCH   2  24
BRANCH   5  30
ATOM     30  C   UNL     1      -1.378  15.174  23.548  0.00  0.00    +0.000 A 
ATOM     31  C   UNL     1      -1.749  14.989  24.884  0.00  0.00    +0.000 A 
ATOM     32  C   UNL     1      -1.061  15.682  25.866  0.00  0.00    +0.000 A 
ATOM     33  N   UNL     1      -0.067  16.554  25.599  0.00  0.00    +0.000 NA
ATOM     34  C   UNL     1       0.241  16.749  24.298  0.00  0.00    +0.000 A 
ATOM     35  C   UNL     1      -0.375  16.091  23.243  0.00  0.00    +0.000 A 
ENDBRANCH   5  30
TORSDOF 4
ENDMDL
MODEL 2
REMARK VINA RESULT:      -7.5      0.124      1.163
REMARK  Name = 
REMARK  4 active torsions:
REMARK  status: ('A' for Active; 'I' for Inactive)
REMARK    1  A    between atoms: C_2  and  C_3
REMARK    2  A    between atoms: C_11  and  C_12
REMARK    3  A    between atoms: C_19  and  C_20
REMARK    4  A    between atoms: C_21  and  C_22
REMARK                            x       y       z     vdW  Elec       q    Type
REMARK                         _______ _______ _______ _____ _____    ______ ____
ROOT
ATOM      1  O   UNL     1      -5.837  13.686  22.324  0.00  0.00    +0.000 OA
ATOM      2  C   UNL     1      -5.114  13.345  21.380  0.00  0.00    +0.000 C 
ATOM      3  N   UNL     1      -3.745  13.596  21.291  0.00  0.00    +0.000 N 
ATOM      4  N   UNL     1      -3.356  14.547  22.225  0.00  0.00    +0.000 NA
ATOM      5  C   UNL     1      -2.122  14.356  22.536  0.00  0.00    +0.000 C 
ATOM      6  C   UNL     1      -1.453  13.277  21.744  0.00  0.00    +0.000 C 
ATOM      7  C   UNL     1      -2.658  12.547  21.051  0.00  0.00    +0.000 C 
ENDROOT
BRANCH   7   8
ATOM      8  C   UNL     1      -2.410  12.204  19.537  0.00  0.00    +0.000 A 
ATOM      9  C   UNL     1      -1.083  12.135  19.070  0.00  0.00    +0.000 A 
ATOM     10  N   UNL     1      -1.302  12.573  17.759  0.00  0.00    +0.000 N 
ATOM     11  C   UNL     1      -2.255  11.698  17.274  0.00  0.00    +0.000 A 
ATOM     12  C   UNL     1      -2.380  11.168  15.984  0.00  0.00    +0.000 A 
ATOM     13  C   UNL     1      -2.981   9.919  15.906  0.00  0.00    +0.000 A 
ATOM     14  C   UNL     1      -3.538   9.344  17.048  0.00  0.00    +0.000 A 
ATOM     15  C   UNL     1      -3.620  10.045  18.294  0.00  0.00    +0.000 A 
ATOM     16  C   UNL     1      -2.939  11.290  18.439  0.00  0.00    +0.000 A 
ATOM     17  H   UNL     1      -1.341  13.545  17.487  0.00  0.00    +0.000 HD
BRANCH   9  18
ATOM     18  C   UNL     1      -0.264  10.909  19.389  0.00  0.00    +0.000 A 
ATOM     19  C   UNL     1      -0.414  10.247  20.645  0.00  0.00    +0.000 A 
ATOM     20  C   UNL     1       0.332   9.139  20.979  0.00  0.00    +0.000 A 
ATOM     21  C   UNL     1       1.251   8.638  20.068  0.00  0.00    +0.000 A 
ATOM     22  C   UNL     1       1.405   9.261  18.822  0.00  0.00    +0.000 A 
ATOM     23  C   UNL     1       0.650  10.389  18.474  0.00  0.00    +0.000 A 
ENDBRANCH   9  18
ENDBRANCH   7   8
BRANCH   2  24
ATOM     24  C   UNL     1      -5.763  12.709  20.233  0.00  0.00    +0.000 A 
ATOM     25  C   UNL     1      -5.835  13.377  19.009  0.00  0.00    +0.000 A 
ATOM     26  C   UNL     1      -6.398  12.742  17.911  0.00  0.00    +0.000 A 
ATOM     27  C   UNL     1      -6.982  11.484  18.068  0.00  0.00    +0.000 A 
ATOM     28  C   UNL     1      -7.006  10.868  19.321  0.00  0.00    +0.000 A 
ATOM     29  C   UNL     1      -6.390  11.476  20.407  0.00  0.00    +0.000 A 
ENDBRANCH   2  24
BRANCH   5  30
ATOM     30  C   UNL     1      -1.453  15.163  23.588  0.00  0.00    +0.000 A 
ATOM     31  C   UNL     1      -0.445  16.054  23.200  0.00  0.00    +0.000 A 
ATOM     32  C   UNL     1       0.127  16.868  24.164  0.00  0.00    +0.000 A 
ATOM     33  N   UNL     1      -0.216  16.827  25.468  0.00  0.00    +0.000 NA
ATOM     34  C   UNL     1      -1.158  15.927  25.823  0.00  0.00    +0.000 A 
ATOM     35  C   UNL     1      -1.804  15.080  24.933  0.00  0.00    +0.000 A 
ENDBRANCH   5  30
TORSDOF 4
ENDMDL
MODEL 3
REMARK VINA RESULT:      -7.0      2.162      6.338
REMARK  Name = 
REMARK  4 active torsions:
REMARK  status: ('A' for Active; 'I' for Inactive)
REMARK    1  A    between atoms: C_2  and  C_3
REMARK    2  A    between atoms: C_11  and  C_12
REMARK    3  A    between atoms: C_19  and  C_20
REMARK    4  A    between atoms: C_21  and  C_22
REMARK                            x       y       z     vdW  Elec       q    Type
REMARK                         _______ _______ _______ _____ _____    ______ ____
ROOT
ATOM      1  O   UNL     1      -3.737  10.750  16.488  0.00  0.00    +0.000 OA
ATOM      2  C   UNL     1      -3.963  11.193  17.621  0.00  0.00    +0.000 C 
ATOM      3  N   UNL     1      -3.098  11.080  18.710  0.00  0.00    +0.000 N 
ATOM      4  N   UNL     1      -2.109  10.139  18.459  0.00  0.00    +0.000 NA
ATOM      5  C   UNL     1      -1.057  10.439  19.137  0.00  0.00    +0.000 C 
ATOM      6  C   UNL     1      -1.236  11.605  20.057  0.00  0.00    +0.000 C 
ATOM      7  C   UNL     1      -2.588  12.239  19.568  0.00  0.00    +0.000 C 
ENDROOT
BRANCH   7   8
ATOM      8  C   UNL     1      -3.554  12.657  20.736  0.00  0.00    +0.000 A 
ATOM      9  C   UNL     1      -3.033  12.754  22.040  0.00  0.00    +0.000 A 
ATOM     10  N   UNL     1      -4.180  12.382  22.750  0.00  0.00    +0.000 N 
ATOM     11  C   UNL     1      -5.140  13.276  22.317  0.00  0.00    +0.000 A 
ATOM     12  C   UNL     1      -6.176  13.870  23.049  0.00  0.00    +0.000 A 
ATOM     13  C   UNL     1      -6.585  15.119  22.603  0.00  0.00    +0.000 A 
ATOM     14  C   UNL     1      -6.070  15.634  21.413  0.00  0.00    +0.000 A 
ATOM     15  C   UNL     1      -5.209  14.871  20.559  0.00  0.00    +0.000 A 
ATOM     16  C   UNL     1      -4.696  13.623  21.023  0.00  0.00    +0.000 A 
ATOM     17  H   UNL     1      -4.445  11.425  22.933  0.00  0.00    +0.000 HD
BRANCH   9  18
ATOM     18  C   UNL     1      -2.212  13.966  22.405  0.00  0.00    +0.000 A 
ATOM     19  C   UNL     1      -1.887  14.235  23.769  0.00  0.00    +0.000 A 
ATOM     20  C   UNL     1      -1.158  15.342  24.141  0.00  0.00    +0.000 A 
ATOM     21  C   UNL     1      -0.711  16.221  23.165  0.00  0.00    +0.000 A 
ATOM     22  C   UNL     1      -1.002  15.970  21.817  0.00  0.00    +0.000 A 
ATOM     23  C   UNL     1      -1.744  14.847  21.431  0.00  0.00    +0.000 A 
ENDBRANCH   9  18
ENDBRANCH   7   8
BRANCH   2  24
ATOM     24  C   UNL     1      -5.273  11.803  17.854  0.00  0.00    +0.000 A 
ATOM     25  C   UNL     1      -6.143  11.256  18.800  0.00  0.00    +0.000 A 
ATOM     26  C   UNL     1      -7.356  11.876  19.058  0.00  0.00    +0.000 A 
ATOM     27  C   UNL     1      -7.741  12.980  18.294  0.00  0.00    +0.000 A 
ATOM     28  C   UNL     1      -6.915  13.455  17.274  0.00  0.00    +0.000 A 
ATOM     29  C   UNL     1      -5.674  12.873  17.054  0.00  0.00    +0.000 A 
ENDBRANCH   2  24
BRANCH   5  30
ATOM     30  C   UNL     1       0.202   9.664  18.998  0.00  0.00    +0.000 A 
ATOM     31  C   UNL     1       0.699   8.999  20.125  0.00  0.00    +0.000 A 
ATOM     32  C   UNL     1       1.828   8.209  19.984  0.00  0.00    +0.000 A 
ATOM     33  N   UNL     1       2.495   8.069  18.821  0.00  0.00    +0.000 NA
ATOM     34  C   UNL     1       2.022   8.758  17.759  0.00  0.00    +0.000 A 
ATOM     35  C   UNL     1       0.889   9.561  17.792  0.00  0.00    +0.000 A 
ENDBRANCH   5  30
TORSDOF 4
ENDMDL
MODEL 4
REMARK VINA RESULT:      -7.0      0.884      1.575
REMARK  Name = 
REMARK  4 active torsions:
REMARK  status: ('A' for Active; 'I' for Inactive)
REMARK    1  A    between atoms: C_2  and  C_3
REMARK    2  A    between atoms: C_11  and  C_12
REMARK    3  A    between atoms: C_19  and  C_20
REMARK    4  A    between atoms: C_21  and  C_22
REMARK                            x       y       z     vdW  Elec       q    Type
REMARK                         _______ _______ _______ _____ _____    ______ ____
ROOT
ATOM      1  O   UNL     1      -6.505  13.666  22.262  0.00  0.00    +0.000 OA
ATOM      2  C   UNL     1      -5.636  13.377  21.430  0.00  0.00    +0.000 C 
ATOM      3  N   UNL     1      -4.289  13.724  21.528  0.00  0.00    +0.000 N 
ATOM      4  N   UNL     1      -4.101  14.701  22.497  0.00  0.00    +0.000 NA
ATOM      5  C   UNL     1      -2.911  14.598  22.977  0.00  0.00    +0.000 C 
ATOM      6  C   UNL     1      -2.065  13.570  22.296  0.00  0.00    +0.000 C 
ATOM      7  C   UNL     1      -3.109  12.755  21.451  0.00  0.00    +0.000 C 
ENDROOT
BRANCH   7   8
ATOM      8  C   UNL     1      -2.630  12.431  19.989  0.00  0.00    +0.000 A 
ATOM      9  C   UNL     1      -1.247  12.389  19.725  0.00  0.00    +0.000 A 
ATOM     10  N   UNL     1      -1.275  12.835  18.399  0.00  0.00    +0.000 N 
ATOM     11  C   UNL     1      -2.128  11.948  17.772  0.00  0.00    +0.000 A 
ATOM     12  C   UNL     1      -2.049  11.427  16.474  0.00  0.00    +0.000 A 
ATOM     13  C   UNL     1      -2.608  10.169  16.299  0.00  0.00    +0.000 A 
ATOM     14  C   UNL     1      -3.319   9.573  17.341  0.00  0.00    +0.000 A 
ATOM     15  C   UNL     1      -3.600  10.262  18.565  0.00  0.00    +0.000 A 
ATOM     16  C   UNL     1      -2.971  11.517  18.819  0.00  0.00    +0.000 A 
ATOM     17  H   UNL     1      -1.291  13.808  18.131  0.00  0.00    +0.000 HD
BRANCH   9  18
ATOM     18  C   UNL     1      -0.462  11.175  20.156  0.00  0.00    +0.000 A 
ATOM     19  C   UNL     1      -0.586  10.669  21.486  0.00  0.00    +0.000 A 
ATOM     20  C   UNL     1       0.131   9.576  21.919  0.00  0.00    +0.000 A 
ATOM     21  C   UNL     1       0.993   8.935  21.041  0.00  0.00    +0.000 A 
ATOM     22  C   UNL     1       1.119   9.403  19.726  0.00  0.00    +0.000 A 
ATOM     23  C   UNL     1       0.394  10.514  19.276  0.00  0.00    +0.000 A 
ENDBRANCH   9  18
ENDBRANCH   7   8
BRANCH   2  24
ATOM     24  C   UNL     1      -6.074  12.696  20.211  0.00  0.00    +0.000 A 
ATOM     25  C   UNL     1      -6.539  11.380  20.271  0.00  0.00    +0.000 A 
ATOM     26  C   UNL     1      -7.009  10.764  19.121  0.00  0.00    +0.000 A 
ATOM     27  C   UNL     1      -6.915  11.427  17.896  0.00  0.00    +0.000 A 
ATOM     28  C   UNL     1      -6.346  12.701  17.826  0.00  0.00    +0.000 A 
ATOM     29  C   UNL     1      -5.930  13.343  18.984  0.00  0.00    +0.000 A 
ENDBRANCH   2  24
BRANCH   5  30
ATOM     30  C   UNL     1      -2.453  15.451  24.103  0.00  0.00    +0.000 A 
ATOM     31  C   UNL     1      -1.345  15.028  24.847  0.00  0.00    +0.000 A 
ATOM     32  C   UNL     1      -0.862  15.857  25.846  0.00  0.00    +0.000 A 
ATOM     33  N   UNL     1      -1.423  17.041  26.163  0.00  0.00    +0.000 NA
ATOM     34  C   UNL     1      -2.518  17.405  25.461  0.00  0.00    +0.000 A 
ATOM     35  C   UNL     1      -3.069  16.656  24.430  0.00  0.00    +0.000 A 
ENDBRANCH   5  30
TORSDOF 4
ENDMDL
MODEL 5
REMARK VINA RESULT:      -6.8      2.152      6.231
REMARK  Name = 
REMARK  4 active torsions:
REMARK  status: ('A' for Active; 'I' for Inactive)
REMARK    1  A    between atoms: C_2  and  C_3
REMARK    2  A    between atoms: C_11  and  C_12
REMARK    3  A    between atoms: C_19  and  C_20
REMARK    4  A    between atoms: C_21  and  C_22
REMARK                            x       y       z     vdW  Elec       q    Type
REMARK                         _______ _______ _______ _____ _____    ______ ____
ROOT
ATOM      1  O   UNL     1      -3.754  10.828  16.584  0.00  0.00    +0.000 OA
ATOM      2  C   UNL     1      -3.976  11.242  17.728  0.00  0.00    +0.000 C 
ATOM      3  N   UNL     1      -3.105  11.106  18.809  0.00  0.00    +0.000 N 
ATOM      4  N   UNL     1      -2.113  10.174  18.530  0.00  0.00    +0.000 NA
ATOM      5  C   UNL     1      -1.059  10.461  19.210  0.00  0.00    +0.000 C 
ATOM      6  C   UNL     1      -1.237  11.603  20.159  0.00  0.00    +0.000 C 
ATOM      7  C   UNL     1      -2.593  12.244  19.693  0.00  0.00    +0.000 C 
ENDROOT
BRANCH   7   8
ATOM      8  C   UNL     1      -3.554  12.631  20.876  0.00  0.00    +0.000 A 
ATOM      9  C   UNL     1      -3.025  12.706  22.178  0.00  0.00    +0.000 A 
ATOM     10  N   UNL     1      -4.163  12.309  22.888  0.00  0.00    +0.000 N 
ATOM     11  C   UNL     1      -5.133  13.203  22.481  0.00  0.00    +0.000 A 
ATOM     12  C   UNL     1      -6.169  13.773  23.232  0.00  0.00    +0.000 A 
ATOM     13  C   UNL     1      -6.592  15.027  22.815  0.00  0.00    +0.000 A 
ATOM     14  C   UNL     1      -6.090  15.571  21.632  0.00  0.00    +0.000 A 
ATOM     15  C   UNL     1      -5.229  14.833  20.757  0.00  0.00    +0.000 A 
ATOM     16  C   UNL     1      -4.702  13.580  21.191  0.00  0.00    +0.000 A 
ATOM     17  H   UNL     1      -4.418  11.346  23.054  0.00  0.00    +0.000 HD
BRANCH   9  18
ATOM     18  C   UNL     1      -2.211  13.917  22.562  0.00  0.00    +0.000 A 
ATOM     19  C   UNL     1      -1.697  14.791  21.557  0.00  0.00    +0.000 A 
ATOM     20  C   UNL     1      -0.933  15.892  21.870  0.00  0.00    +0.000 A 
ATOM     21  C   UNL     1      -0.659  16.175  23.200  0.00  0.00    +0.000 A 
ATOM     22  C   UNL     1      -1.166  15.341  24.206  0.00  0.00    +0.000 A 
ATOM     23  C   UNL     1      -1.944  14.218  23.897  0.00  0.00    +0.000 A 
ENDBRANCH   9  18
ENDBRANCH   7   8
BRANCH   2  24
ATOM     24  C   UNL     1      -5.286  11.842  17.984  0.00  0.00    +0.000 A 
ATOM     25  C   UNL     1      -5.667  13.007  17.315  0.00  0.00    +0.000 A 
ATOM     26  C   UNL     1      -6.934  13.533  17.517  0.00  0.00    +0.000 A 
ATOM     27  C   UNL     1      -7.776  12.954  18.468  0.00  0.00    +0.000 A 
ATOM     28  C   UNL     1      -7.347  11.855  19.215  0.00  0.00    +0.000 A 
ATOM     29  C   UNL     1      -6.103  11.291  18.971  0.00  0.00    +0.000 A 
ENDBRANCH   2  24
BRANCH   5  30
ATOM     30  C   UNL     1       0.202   9.694  19.045  0.00  0.00    +0.000 A 
ATOM     31  C   UNL     1       0.703   8.996  20.150  0.00  0.00    +0.000 A 
ATOM     32  C   UNL     1       1.833   8.213  19.982  0.00  0.00    +0.000 A 
ATOM     33  N   UNL     1       2.499   8.112  18.814  0.00  0.00    +0.000 NA
ATOM     34  C   UNL     1       2.022   8.832  17.775  0.00  0.00    +0.000 A 
ATOM     35  C   UNL     1       0.888   9.631  17.835  0.00  0.00    +0.000 A 
ENDBRANCH   5  30
TORSDOF 4
ENDMDL
MODEL 6
REMARK VINA RESULT:      -6.6      2.741      5.440
REMARK  Name = 
REMARK  4 active torsions:
REMARK  status: ('A' for Active; 'I' for Inactive)
REMARK    1  A    between atoms: C_2  and  C_3
REMARK    2  A    between atoms: C_11  and  C_12
REMARK    3  A    between atoms: C_19  and  C_20
REMARK    4  A    between atoms: C_21  and  C_22
REMARK                            x       y       z     vdW  Elec       q    Type
REMARK                         _______ _______ _______ _____ _____    ______ ____
ROOT
ATOM      1  O   UNL     1      -2.289  16.772  21.024  0.00  0.00    +0.000 OA
ATOM      2  C   UNL     1      -1.600  15.809  20.668  0.00  0.00    +0.000 C 
ATOM      3  N   UNL     1      -1.961  14.470  20.819  0.00  0.00    +0.000 N 
ATOM      4  N   UNL     1      -3.026  14.342  21.701  0.00  0.00    +0.000 NA
ATOM      5  C   UNL     1      -3.696  13.283  21.406  0.00  0.00    +0.000 C 
ATOM      6  C   UNL     1      -3.089  12.462  20.312  0.00  0.00    +0.000 C 
ATOM      7  C   UNL     1      -2.009  13.426  19.701  0.00  0.00    +0.000 C 
ENDROOT
BRANCH   7   8
ATOM      8  C   UNL     1      -0.631  12.731  19.402  0.00  0.00    +0.000 A 
ATOM      9  C   UNL     1       0.292  12.582  20.454  0.00  0.00    +0.000 A 
ATOM     10  N   UNL     1       1.473  12.681  19.709  0.00  0.00    +0.000 N 
ATOM     11  C   UNL     1       1.343  11.692  18.754  0.00  0.00    +0.000 A 
ATOM     12  C   UNL     1       2.334  10.860  18.216  0.00  0.00    +0.000 A 
ATOM     13  C   UNL     1       1.899   9.616  17.780  0.00  0.00    +0.000 A 
ATOM     14  C   UNL     1       0.534   9.324  17.764  0.00  0.00    +0.000 A 
ATOM     15  C   UNL     1      -0.461  10.306  18.074  0.00  0.00    +0.000 A 
ATOM     16  C   UNL     1      -0.055  11.565  18.610  0.00  0.00    +0.000 A 
ATOM     17  H   UNL     1       1.909  13.556  19.458  0.00  0.00    +0.000 HD
BRANCH   9  18
ATOM     18  C   UNL     1       0.064  11.490  21.470  0.00  0.00    +0.000 A 
ATOM     19  C   UNL     1       0.856  10.303  21.446  0.00  0.00    +0.000 A 
ATOM     20  C   UNL     1       0.661   9.278  22.345  0.00  0.00    +0.000 A 
ATOM     21  C   UNL     1      -0.325   9.401  23.314  0.00  0.00    +0.000 A 
ATOM     22  C   UNL     1      -1.105  10.564  23.368  0.00  0.00    +0.000 A 
ATOM     23  C   UNL     1      -0.914  11.611  22.458  0.00  0.00    +0.000 A 
ENDBRANCH   9  18
ENDBRANCH   7   8
BRANCH   2  24
ATOM     24  C   UNL     1      -0.271  16.097  20.128  0.00  0.00    +0.000 A 
ATOM     25  C   UNL     1       0.843  16.095  20.970  0.00  0.00    +0.000 A 
ATOM     26  C   UNL     1       2.107  16.309  20.439  0.00  0.00    +0.000 A 
ATOM     27  C   UNL     1       2.240  16.629  19.086  0.00  0.00    +0.000 A 
ATOM     28  C   UNL     1       1.110  16.739  18.273  0.00  0.00    +0.000 A 
ATOM     29  C   UNL     1      -0.149  16.467  18.789  0.00  0.00    +0.000 A 
ENDBRANCH   2  24
BRANCH   5  30
ATOM     30  C   UNL     1      -4.952  12.936  22.118  0.00  0.00    +0.000 A 
ATOM     31  C   UNL     1      -6.056  12.534  21.357  0.00  0.00    +0.000 A 
ATOM     32  C   UNL     1      -7.204  12.131  22.018  0.00  0.00    +0.000 A 
ATOM     33  N   UNL     1      -7.327  12.135  23.361  0.00  0.00    +0.000 NA
ATOM     34  C   UNL     1      -6.263  12.571  24.070  0.00  0.00    +0.000 A 
ATOM     35  C   UNL     1      -5.062  12.978  23.505  0.00  0.00    +0.000 A 
ENDBRANCH   5  30
TORSDOF 4
ENDMDL
MODEL 7
REMARK VINA RESULT:      -6.5      2.691      5.372
REMARK  Name = 
REMARK  4 active torsions:
REMARK  status: ('A' for Active; 'I' for Inactive)
REMARK    1  A    between atoms: C_2  and  C_3
REMARK    2  A    between atoms: C_11  and  C_12
REMARK    3  A    between atoms: C_19  and  C_20
REMARK    4  A    between atoms: C_21  and  C_22
REMARK                            x       y       z     vdW  Elec       q    Type
REMARK                         _______ _______ _______ _____ _____    ______ ____
ROOT
ATOM      1  O   UNL     1      -2.604  16.694  21.018  0.00  0.00    +0.000 OA
ATOM      2  C   UNL     1      -1.878  15.759  20.659  0.00  0.00    +0.000 C 
ATOM      3  N   UNL     1      -2.203  14.407  20.771  0.00  0.00    +0.000 N 
ATOM      4  N   UNL     1      -3.287  14.228  21.621  0.00  0.00    +0.000 NA
ATOM      5  C   UNL     1      -3.917  13.158  21.285  0.00  0.00    +0.000 C 
ATOM      6  C   UNL     1      -3.259  12.380  20.190  0.00  0.00    +0.000 C 
ATOM      7  C   UNL     1      -2.192  13.388  19.629  0.00  0.00    +0.000 C 
ENDROOT
BRANCH   7   8
ATOM      8  C   UNL     1      -0.787  12.740  19.351  0.00  0.00    +0.000 A 
ATOM      9  C   UNL     1       0.136  12.650  20.410  0.00  0.00    +0.000 A 
ATOM     10  N   UNL     1       1.315  12.778  19.668  0.00  0.00    +0.000 N 
ATOM     11  C   UNL     1       1.228  11.763  18.734  0.00  0.00    +0.000 A 
ATOM     12  C   UNL     1       2.252  10.958  18.219  0.00  0.00    +0.000 A 
ATOM     13  C   UNL     1       1.868   9.689  17.810  0.00  0.00    +0.000 A 
ATOM     14  C   UNL     1       0.515   9.344  17.795  0.00  0.00    +0.000 A 
ATOM     15  C   UNL     1      -0.518  10.294  18.079  0.00  0.00    +0.000 A 
ATOM     16  C   UNL     1      -0.163  11.579  18.588  0.00  0.00    +0.000 A 
ATOM     17  H   UNL     1       1.719  13.662  19.398  0.00  0.00    +0.000 HD
BRANCH   9  18
ATOM     18  C   UNL     1      -0.055  11.574  21.450  0.00  0.00    +0.000 A 
ATOM     19  C   UNL     1       0.797  10.429  21.470  0.00  0.00    +0.000 A 
ATOM     20  C   UNL     1       0.638   9.418  22.391  0.00  0.00    +0.000 A 
ATOM     21  C   UNL     1      -0.371   9.513  23.339  0.00  0.00    +0.000 A 
ATOM     22  C   UNL     1      -1.211  10.635  23.349  0.00  0.00    +0.000 A 
ATOM     23  C   UNL     1      -1.056  11.668  22.416  0.00  0.00    +0.000 A 
ENDBRANCH   9  18
ENDBRANCH   7   8
BRANCH   2  24
ATOM     24  C   UNL     1      -0.545  16.097  20.161  0.00  0.00    +0.000 A 
ATOM     25  C   UNL     1      -0.343  16.328  18.798  0.00  0.00    +0.000 A 
ATOM     26  C   UNL     1       0.911  16.708  18.344  0.00  0.00    +0.000 A 
ATOM     27  C   UNL     1       1.983  16.753  19.237  0.00  0.00    +0.000 A 
ATOM     28  C   UNL     1       1.798  16.412  20.579  0.00  0.00    +0.000 A 
ATOM     29  C   UNL     1       0.532  16.090  21.047  0.00  0.00    +0.000 A 
ENDBRANCH   2  24
BRANCH   5  30
ATOM     30  C   UNL     1      -5.180  12.759  21.956  0.00  0.00    +0.000 A 
ATOM     31  C   UNL     1      -5.291  12.964  23.336  0.00  0.00    +0.000 A 
ATOM     32  C   UNL     1      -6.495  12.670  23.956  0.00  0.00    +0.000 A 
ATOM     33  N   UNL     1      -7.561  12.166  23.302  0.00  0.00    +0.000 NA
ATOM     34  C   UNL     1      -7.413  11.934  21.979  0.00  0.00    +0.000 A 
ATOM     35  C   UNL     1      -6.256  12.211  21.263  0.00  0.00    +0.000 A 
ENDBRANCH   5  30
TORSDOF 4
ENDMDL
MODEL 8
REMARK VINA RESULT:      -6.5      8.107     10.446
REMARK  Name = 
REMARK  4 active torsions:
REMARK  status: ('A' for Active; 'I' for Inactive)
REMARK    1  A    between atoms: C_2  and  C_3
REMARK    2  A    between atoms: C_11  and  C_12
REMARK    3  A    between atoms: C_19  and  C_20
REMARK    4  A    between atoms: C_21  and  C_22
REMARK                            x       y       z     vdW  Elec       q    Type
REMARK                         _______ _______ _______ _____ _____    ______ ____
ROOT
ATOM      1  O   UNL     1       2.918  14.286  22.332  0.00  0.00    +0.000 OA
ATOM      2  C   UNL     1       4.059  14.646  22.014  0.00  0.00    +0.000 C 
ATOM      3  N   UNL     1       5.208  14.418  22.771  0.00  0.00    +0.000 N 
ATOM      4  N   UNL     1       4.879  14.031  24.063  0.00  0.00    +0.000 NA
ATOM      5  C   UNL     1       5.824  13.300  24.540  0.00  0.00    +0.000 C 
ATOM      6  C   UNL     1       7.014  13.179  23.642  0.00  0.00    +0.000 C 
ATOM      7  C   UNL     1       6.485  13.739  22.273  0.00  0.00    +0.000 C 
ENDROOT
BRANCH   7   8
ATOM      8  C   UNL     1       7.493  14.703  21.547  0.00  0.00    +0.000 A 
ATOM      9  C   UNL     1       8.869  14.560  21.806  0.00  0.00    +0.000 A 
ATOM     10  N   UNL     1       9.248  15.898  21.658  0.00  0.00    +0.000 N 
ATOM     11  C   UNL     1       8.811  16.225  20.389  0.00  0.00    +0.000 A 
ATOM     12  C   UNL     1       9.420  17.059  19.442  0.00  0.00    +0.000 A 
ATOM     13  C   UNL     1       9.148  16.755  18.115  0.00  0.00    +0.000 A 
ATOM     14  C   UNL     1       8.208  15.771  17.806  0.00  0.00    +0.000 A 
ATOM     15  C   UNL     1       7.415  15.130  18.811  0.00  0.00    +0.000 A 
ATOM     16  C   UNL     1       7.724  15.349  20.187  0.00  0.00    +0.000 A 
ATOM     17  H   UNL     1       9.188  16.587  22.393  0.00  0.00    +0.000 HD
BRANCH   9  18
ATOM     18  C   UNL     1       9.617  13.427  21.148  0.00  0.00    +0.000 A 
ATOM     19  C   UNL     1      10.878  13.661  20.521  0.00  0.00    +0.000 A 
ATOM     20  C   UNL     1      11.578  12.656  19.892  0.00  0.00    +0.000 A 
ATOM     21  C   UNL     1      11.055  11.371  19.874  0.00  0.00    +0.000 A 
ATOM     22  C   UNL     1       9.826  11.112  20.497  0.00  0.00    +0.000 A 
ATOM     23  C   UNL     1       9.107  12.129  21.138  0.00  0.00    +0.000 A 
ENDBRANCH   9  18
ENDBRANCH   7   8
BRANCH   2  24
ATOM     24  C   UNL     1       4.195  15.446  20.796  0.00  0.00    +0.000 A 
ATOM     25  C   UNL     1       4.585  16.784  20.876  0.00  0.00    +0.000 A 
ATOM     26  C   UNL     1       4.771  17.517  19.713  0.00  0.00    +0.000 A 
ATOM     27  C   UNL     1       4.465  16.940  18.479  0.00  0.00    +0.000 A 
ATOM     28  C   UNL     1       3.969  15.636  18.413  0.00  0.00    +0.000 A 
ATOM     29  C   UNL     1       3.839  14.882  19.571  0.00  0.00    +0.000 A 
ENDBRANCH   2  24
BRANCH   5  30
ATOM     30  C   UNL     1       5.710  12.657  25.874  0.00  0.00    +0.000 A 
ATOM     31  C   UNL     1       5.634  13.481  27.003  0.00  0.00    +0.000 A 
ATOM     32  C   UNL     1       5.446  12.892  28.242  0.00  0.00    +0.000 A 
ATOM     33  N   UNL     1       5.362  11.559  28.424  0.00  0.00    +0.000 NA
ATOM     34  C   UNL     1       5.484  10.783  27.325  0.00  0.00    +0.000 A 
ATOM     35  C   UNL     1       5.657  11.276  26.038  0.00  0.00    +0.000 A 
ENDBRANCH   5  30
TORSDOF 4
ENDMDL
MODEL 9
REMARK VINA RESULT:      -6.4      2.195      6.612
REMARK  Name = 
REMARK  4 active torsions:
REMARK  status: ('A' for Active; 'I' for Inactive)
REMARK    1  A    between atoms: C_2  and  C_3
REMARK    2  A    between atoms: C_11  and  C_12
REMARK    3  A    between atoms: C_19  and  C_20
REMARK    4  A    between atoms: C_21  and  C_22
REMARK                            x       y       z     vdW  Elec       q    Type
REMARK                         _______ _______ _______ _____ _____    ______ ____
ROOT
ATOM      1  O   UNL     1      -7.628  12.383  19.806  0.00  0.00    +0.000 OA
ATOM      2  C   UNL     1      -6.726  12.697  20.592  0.00  0.00    +0.000 C 
ATOM      3  N   UNL     1      -5.365  12.484  20.370  0.00  0.00    +0.000 N 
ATOM      4  N   UNL     1      -5.168  11.596  19.321  0.00  0.00    +0.000 NA
ATOM      5  C   UNL     1      -4.034  11.841  18.765  0.00  0.00    +0.000 C 
ATOM      6  C   UNL     1      -3.231  12.898  19.456  0.00  0.00    +0.000 C 
ATOM      7  C   UNL     1      -4.273  13.553  20.432  0.00  0.00    +0.000 C 
ENDROOT
BRANCH   7   8
ATOM      8  C   UNL     1      -3.710  13.824  21.875  0.00  0.00    +0.000 A 
ATOM      9  C   UNL     1      -3.429  12.724  22.707  0.00  0.00    +0.000 A 
ATOM     10  N   UNL     1      -3.715  13.319  23.941  0.00  0.00    +0.000 N 
ATOM     11  C   UNL     1      -2.899  14.433  23.966  0.00  0.00    +0.000 A 
ATOM     12  C   UNL     1      -2.223  14.999  25.054  0.00  0.00    +0.000 A 
ATOM     13  C   UNL     1      -1.052  15.676  24.745  0.00  0.00    +0.000 A 
ATOM     14  C   UNL     1      -0.698  15.878  23.410  0.00  0.00    +0.000 A 
ATOM     15  C   UNL     1      -1.560  15.511  22.328  0.00  0.00    +0.000 A 
ATOM     16  C   UNL     1      -2.727  14.736  22.598  0.00  0.00    +0.000 A 
ATOM     17  H   UNL     1      -4.641  13.377  24.339  0.00  0.00    +0.000 HD
BRANCH   9  18
ATOM     18  C   UNL     1      -2.170  11.930  22.461  0.00  0.00    +0.000 A 
ATOM     19  C   UNL     1      -1.766  10.913  23.378  0.00  0.00    +0.000 A 
ATOM     20  C   UNL     1      -0.612  10.184  23.197  0.00  0.00    +0.000 A 
ATOM     21  C   UNL     1       0.181  10.432  22.086  0.00  0.00    +0.000 A 
ATOM     22  C   UNL     1      -0.202  11.414  21.163  0.00  0.00    +0.000 A 
ATOM     23  C   UNL     1      -1.374  12.160  21.340  0.00  0.00    +0.000 A 
ENDBRANCH   9  18
ENDBRANCH   7   8
BRANCH   2  24
ATOM     24  C   UNL     1      -7.124  13.251  21.885  0.00  0.00    +0.000 A 
ATOM     25  C   UNL     1      -7.182  12.430  23.013  0.00  0.00    +0.000 A 
ATOM     26  C   UNL     1      -7.502  12.976  24.247  0.00  0.00    +0.000 A 
ATOM     27  C   UNL     1      -7.866  14.322  24.330  0.00  0.00    +0.000 A 
ATOM     28  C   UNL     1      -7.914  15.112  23.180  0.00  0.00    +0.000 A 
ATOM     29  C   UNL     1      -7.537  14.582  21.954  0.00  0.00    +0.000 A 
ENDBRANCH   2  24
BRANCH   5  30
ATOM     30  C   UNL     1      -3.592  11.112  17.549  0.00  0.00    +0.000 A 
ATOM     31  C   UNL     1      -4.262  11.362  16.346  0.00  0.00    +0.000 A 
ATOM     32  C   UNL     1      -3.804  10.747  15.192  0.00  0.00    +0.000 A 
ATOM     33  N   UNL     1      -2.761   9.892  15.171  0.00  0.00    +0.000 NA
ATOM     34  C   UNL     1      -2.161   9.633  16.353  0.00  0.00    +0.000 A 
ATOM     35  C   UNL     1      -2.532  10.210  17.560  0.00  0.00    +0.000 A 
ENDBRANCH   5  30
TORSDOF 4
ENDMDL
