MODEL 1
REMARK VINA RESULT:      -7.7      0.000      0.000
REMARK  Name = 
REMARK  5 active torsions:
REMARK  status: ('A' for Active; 'I' for Inactive)
REMARK    1  A    between atoms: C_1  and  C_2
REMARK    2  A    between atoms: C_7  and  O_8
REMARK    3  A    between atoms: O_8  and  C_9
REMARK    4  A    between atoms: C_12  and  C_13
REMARK    5  A    between atoms: C_15  and  C_16
REMARK                            x       y       z     vdW  Elec       q    Type
REMARK                         _______ _______ _______ _____ _____    ______ ____
ROOT
ATOM      1  C   UNL     1       3.249   5.745  18.394  0.00  0.00    +0.000 A 
ATOM      2  C   UNL     1       2.823   6.269  19.609  0.00  0.00    +0.000 A 
ATOM      3  C   UNL     1       2.244   5.424  20.558  0.00  0.00    +0.000 A 
ATOM      4  C   UNL     1       1.979   4.076  20.260  0.00  0.00    +0.000 A 
ATOM      5  C   UNL     1       2.244   3.587  18.970  0.00  0.00    +0.000 A 
ATOM      6  C   UNL     1       2.895   4.437  18.052  0.00  0.00    +0.000 A 
ENDROOT
BRANCH   5   7
ATOM      7  C   UNL     1       1.868   2.200  18.498  0.00  0.00    +0.000 C 
ATOM      8  F   UNL     1       0.543   1.915  18.557  0.00  0.00    +0.000 F 
ATOM      9  F   UNL     1       2.230   1.995  17.202  0.00  0.00    +0.000 F 
ATOM     10  F   UNL     1       2.484   1.226  19.220  0.00  0.00    +0.000 F 
ENDBRANCH   5   7
BRANCH   4  11
ATOM     11  C   UNL     1       1.480   3.246  21.319  0.00  0.00    +0.000 C 
ATOM     12  N   UNL     1       1.128   2.541  22.173  0.00  0.00    +0.000 NA
ENDBRANCH   4  11
BRANCH   1  13
ATOM     13  O   UNL     1       3.996   6.419  17.463  0.00  0.00    +0.000 OA
BRANCH  13  20
ATOM     14  C   UNL     1       6.460   5.446  19.104  0.00  0.00    +0.000 C 
ATOM     15  C   UNL     1       6.280   5.407  17.612  0.00  0.00    +0.000 A 
ATOM     16  C   UNL     1       7.340   4.862  16.862  0.00  0.00    +0.000 A 
ATOM     17  C   UNL     1       7.251   4.709  15.479  0.00  0.00    +0.000 A 
ATOM     18  C   UNL     1       6.104   5.122  14.812  0.00  0.00    +0.000 A 
ATOM     19  C   UNL     1       5.062   5.706  15.530  0.00  0.00    +0.000 A 
ATOM     20  C   UNL     1       5.144   5.879  16.922  0.00  0.00    +0.000 A 
ENDBRANCH  13  20
ENDBRANCH   1  13
TORSDOF 4
ENDMDL
MODEL 2
REMARK VINA RESULT:      -7.4      3.624      6.290
REMARK  Name = 
REMARK  5 active torsions:
REMARK  status: ('A' for Active; 'I' for Inactive)
REMARK    1  A    between atoms: C_1  and  C_2
REMARK    2  A    between atoms: C_7  and  O_8
REMARK    3  A    between atoms: O_8  and  C_9
REMARK    4  A    between atoms: C_12  and  C_13
REMARK    5  A    between atoms: C_15  and  C_16
REMARK                            x       y       z     vdW  Elec       q    Type
REMARK                         _______ _______ _______ _____ _____    ______ ____
ROOT
ATOM      1  C   UNL     1       4.992   3.708  18.366  0.00  0.00    +0.000 A 
ATOM      2  C   UNL     1       5.836   4.323  19.284  0.00  0.00    +0.000 A 
ATOM      3  C   UNL     1       6.557   5.456  18.906  0.00  0.00    +0.000 A 
ATOM      4  C   UNL     1       6.534   5.918  17.579  0.00  0.00    +0.000 A 
ATOM      5  C   UNL     1       5.825   5.194  16.606  0.00  0.00    +0.000 A 
ATOM      6  C   UNL     1       5.045   4.096  17.024  0.00  0.00    +0.000 A 
ENDROOT
BRANCH   5   7
ATOM      7  C   UNL     1       5.849   5.516  15.128  0.00  0.00    +0.000 C 
ATOM      8  F   UNL     1       7.086   5.602  14.580  0.00  0.00    +0.000 F 
ATOM      9  F   UNL     1       5.188   4.576  14.398  0.00  0.00    +0.000 F 
ATOM     10  F   UNL     1       5.244   6.702  14.850  0.00  0.00    +0.000 F 
ENDBRANCH   5   7
BRANCH   4  11
ATOM     11  C   UNL     1       7.216   7.147  17.290  0.00  0.00    +0.000 C 
ATOM     12  N   UNL     1       7.727   8.172  17.093  0.00  0.00    +0.000 NA
ENDBRANCH   4  11
BRANCH   1  13
ATOM     13  O   UNL     1       4.095   2.715  18.660  0.00  0.00    +0.000 OA
BRANCH  13  20
ATOM     14  C   UNL     1       1.393   4.029  17.835  0.00  0.00    +0.000 C 
ATOM     15  C   UNL     1       1.777   3.497  19.187  0.00  0.00    +0.000 A 
ATOM     16  C   UNL     1       0.807   3.593  20.203  0.00  0.00    +0.000 A 
ATOM     17  C   UNL     1       1.029   3.067  21.475  0.00  0.00    +0.000 A 
ATOM     18  C   UNL     1       2.239   2.451  21.765  0.00  0.00    +0.000 A 
ATOM     19  C   UNL     1       3.231   2.387  20.787  0.00  0.00    +0.000 A 
ATOM     20  C   UNL     1       3.026   2.926  19.506  0.00  0.00    +0.000 A 
ENDBRANCH  13  20
ENDBRANCH   1  13
TORSDOF 4
ENDMDL
MODEL 3
REMARK VINA RESULT:      -7.4      3.719      6.267
REMARK  Name = 
REMARK  5 active torsions:
REMARK  status: ('A' for Active; 'I' for Inactive)
REMARK    1  A    between atoms: C_1  and  C_2
REMARK    2  A    between atoms: C_7  and  O_8
REMARK    3  A    between atoms: O_8  and  C_9
REMARK    4  A    between atoms: C_12  and  C_13
REMARK    5  A    between atoms: C_15  and  C_16
REMARK                            x       y       z     vdW  Elec       q    Type
REMARK                         _______ _______ _______ _____ _____    ______ ____
ROOT
ATOM      1  C   UNL     1       3.776   6.176  18.625  0.00  0.00    +0.000 A 
ATOM      2  C   UNL     1       3.587   6.523  17.292  0.00  0.00    +0.000 A 
ATOM      3  C   UNL     1       4.639   6.373  16.386  0.00  0.00    +0.000 A 
ATOM      4  C   UNL     1       5.918   5.988  16.821  0.00  0.00    +0.000 A 
ATOM      5  C   UNL     1       6.159   5.811  18.194  0.00  0.00    +0.000 A 
ATOM      6  C   UNL     1       5.067   5.895  19.082  0.00  0.00    +0.000 A 
ENDROOT
BRANCH   5   7
ATOM      7  C   UNL     1       7.525   5.538  18.785  0.00  0.00    +0.000 C 
ATOM      8  F   UNL     1       7.535   5.307  20.121  0.00  0.00    +0.000 F 
ATOM      9  F   UNL     1       8.108   4.446  18.219  0.00  0.00    +0.000 F 
ATOM     10  F   UNL     1       8.387   6.571  18.586  0.00  0.00    +0.000 F 
ENDBRANCH   5   7
BRANCH   4  11
ATOM     11  C   UNL     1       6.919   5.753  15.819  0.00  0.00    +0.000 C 
ATOM     12  N   UNL     1       7.683   5.558  14.966  0.00  0.00    +0.000 NA
ENDBRANCH   4  11
BRANCH   1  13
ATOM     13  O   UNL     1       2.784   6.097  19.568  0.00  0.00    +0.000 OA
BRANCH  13  20
ATOM     14  C   UNL     1       1.303   4.158  17.630  0.00  0.00    +0.000 C 
ATOM     15  C   UNL     1       1.556   3.967  19.100  0.00  0.00    +0.000 A 
ATOM     16  C   UNL     1       1.079   2.773  19.673  0.00  0.00    +0.000 A 
ATOM     17  C   UNL     1       1.321   2.460  21.010  0.00  0.00    +0.000 A 
ATOM     18  C   UNL     1       2.029   3.348  21.809  0.00  0.00    +0.000 A 
ATOM     19  C   UNL     1       2.470   4.556  21.273  0.00  0.00    +0.000 A 
ATOM     20  C   UNL     1       2.221   4.891  19.932  0.00  0.00    +0.000 A 
ENDBRANCH  13  20
ENDBRANCH   1  13
TORSDOF 4
ENDMDL
MODEL 4
REMARK VINA RESULT:      -7.1      4.943      6.717
REMARK  Name = 
REMARK  5 active torsions:
REMARK  status: ('A' for Active; 'I' for Inactive)
REMARK    1  A    between atoms: C_1  and  C_2
REMARK    2  A    between atoms: C_7  and  O_8
REMARK    3  A    between atoms: O_8  and  C_9
REMARK    4  A    between atoms: C_12  and  C_13
REMARK    5  A    between atoms: C_15  and  C_16
REMARK                            x       y       z     vdW  Elec       q    Type
REMARK                         _______ _______ _______ _____ _____    ______ ____
ROOT
ATOM      1  C   UNL     1       2.435   7.257  19.278  0.00  0.00    +0.000 A 
ATOM      2  C   UNL     1       2.542   7.924  18.064  0.00  0.00    +0.000 A 
ATOM      3  C   UNL     1       2.005   9.206  17.933  0.00  0.00    +0.000 A 
ATOM      4  C   UNL     1       1.258   9.787  18.972  0.00  0.00    +0.000 A 
ATOM      5  C   UNL     1       0.995   9.043  20.135  0.00  0.00    +0.000 A 
ATOM      6  C   UNL     1       1.608   7.780  20.276  0.00  0.00    +0.000 A 
ENDROOT
BRANCH   5   7
ATOM      7  C   UNL     1       0.087   9.511  21.250  0.00  0.00    +0.000 C 
ATOM      8  F   UNL     1      -1.005  10.207  20.846  0.00  0.00    +0.000 F 
ATOM      9  F   UNL     1      -0.393   8.466  21.979  0.00  0.00    +0.000 F 
ATOM     10  F   UNL     1       0.731  10.322  22.132  0.00  0.00    +0.000 F 
ENDBRANCH   5   7
BRANCH   4  11
ATOM     11  C   UNL     1       0.828  11.146  18.804  0.00  0.00    +0.000 C 
ATOM     12  N   UNL     1       0.536  12.264  18.690  0.00  0.00    +0.000 NA
ENDBRANCH   4  11
BRANCH   1  13
ATOM     13  O   UNL     1       3.075   6.087  19.595  0.00  0.00    +0.000 OA
BRANCH  13  20
ATOM     14  C   UNL     1       1.484   4.384  17.527  0.00  0.00    +0.000 C 
ATOM     15  C   UNL     1       1.659   4.114  18.996  0.00  0.00    +0.000 A 
ATOM     16  C   UNL     1       1.041   2.954  19.501  0.00  0.00    +0.000 A 
ATOM     17  C   UNL     1       1.197   2.567  20.833  0.00  0.00    +0.000 A 
ATOM     18  C   UNL     1       1.958   3.347  21.692  0.00  0.00    +0.000 A 
ATOM     19  C   UNL     1       2.541   4.524  21.223  0.00  0.00    +0.000 A 
ATOM     20  C   UNL     1       2.379   4.933  19.889  0.00  0.00    +0.000 A 
ENDBRANCH  13  20
ENDBRANCH   1  13
TORSDOF 4
ENDMDL
MODEL 5
REMARK VINA RESULT:      -7.1      4.785      6.535
REMARK  Name = 
REMARK  5 active torsions:
REMARK  status: ('A' for Active; 'I' for Inactive)
REMARK    1  A    between atoms: C_1  and  C_2
REMARK    2  A    between atoms: C_7  and  O_8
REMARK    3  A    between atoms: O_8  and  C_9
REMARK    4  A    between atoms: C_12  and  C_13
REMARK    5  A    between atoms: C_15  and  C_16
REMARK                            x       y       z     vdW  Elec       q    Type
REMARK                         _______ _______ _______ _____ _____    ______ ____
ROOT
ATOM      1  C   UNL     1       2.297   7.301  19.396  0.00  0.00    +0.000 A 
ATOM      2  C   UNL     1       2.432   7.909  18.154  0.00  0.00    +0.000 A 
ATOM      3  C   UNL     1       1.980   9.217  17.975  0.00  0.00    +0.000 A 
ATOM      4  C   UNL     1       1.285   9.888  18.996  0.00  0.00    +0.000 A 
ATOM      5  C   UNL     1       0.988   9.212  20.191  0.00  0.00    +0.000 A 
ATOM      6  C   UNL     1       1.518   7.918  20.379  0.00  0.00    +0.000 A 
ENDROOT
BRANCH   5   7
ATOM      7  C   UNL     1       0.126   9.785  21.295  0.00  0.00    +0.000 C 
ATOM      8  F   UNL     1      -1.034  10.351  20.880  0.00  0.00    +0.000 F 
ATOM      9  F   UNL     1      -0.233   8.831  22.198  0.00  0.00    +0.000 F 
ATOM     10  F   UNL     1       0.771  10.750  22.003  0.00  0.00    +0.000 F 
ENDBRANCH   5   7
BRANCH   4  11
ATOM     11  C   UNL     1       0.944  11.265  18.775  0.00  0.00    +0.000 C 
ATOM     12  N   UNL     1       0.639  12.379  18.652  0.00  0.00    +0.000 NA
ENDBRANCH   4  11
BRANCH   1  13
ATOM     13  O   UNL     1       2.862   6.105  19.756  0.00  0.00    +0.000 OA
BRANCH  13  20
ATOM     14  C   UNL     1       3.841   4.578  17.222  0.00  0.00    +0.000 C 
ATOM     15  C   UNL     1       2.771   4.155  18.190  0.00  0.00    +0.000 A 
ATOM     16  C   UNL     1       2.138   2.924  17.933  0.00  0.00    +0.000 A 
ATOM     17  C   UNL     1       1.183   2.400  18.804  0.00  0.00    +0.000 A 
ATOM     18  C   UNL     1       0.825   3.110  19.942  0.00  0.00    +0.000 A 
ATOM     19  C   UNL     1       1.406   4.353  20.191  0.00  0.00    +0.000 A 
ATOM     20  C   UNL     1       2.358   4.899  19.314  0.00  0.00    +0.000 A 
ENDBRANCH  13  20
ENDBRANCH   1  13
TORSDOF 4
ENDMDL
MODEL 6
REMARK VINA RESULT:      -6.9      0.897      1.763
REMARK  Name = 
REMARK  5 active torsions:
REMARK  status: ('A' for Active; 'I' for Inactive)
REMARK    1  A    between atoms: C_1  and  C_2
REMARK    2  A    between atoms: C_7  and  O_8
REMARK    3  A    between atoms: O_8  and  C_9
REMARK    4  A    between atoms: C_12  and  C_13
REMARK    5  A    between atoms: C_15  and  C_16
REMARK                            x       y       z     vdW  Elec       q    Type
REMARK                         _______ _______ _______ _____ _____    ______ ____
ROOT
ATOM      1  C   UNL     1       2.928   5.772  18.244  0.00  0.00    +0.000 A 
ATOM      2  C   UNL     1       2.612   6.310  19.486  0.00  0.00    +0.000 A 
ATOM      3  C   UNL     1       2.150   5.473  20.502  0.00  0.00    +0.000 A 
ATOM      4  C   UNL     1       1.889   4.114  20.257  0.00  0.00    +0.000 A 
ATOM      5  C   UNL     1       2.036   3.605  18.955  0.00  0.00    +0.000 A 
ATOM      6  C   UNL     1       2.573   4.450  17.961  0.00  0.00    +0.000 A 
ENDROOT
BRANCH   5   7
ATOM      7  C   UNL     1       1.647   2.201  18.547  0.00  0.00    +0.000 C 
ATOM      8  F   UNL     1       2.116   1.219  19.357  0.00  0.00    +0.000 F 
ATOM      9  F   UNL     1       0.295   2.042  18.520  0.00  0.00    +0.000 F 
ATOM     10  F   UNL     1       2.088   1.887  17.300  0.00  0.00    +0.000 F 
ENDBRANCH   5   7
BRANCH   4  11
ATOM     11  C   UNL     1       1.517   3.295  21.374  0.00  0.00    +0.000 C 
ATOM     12  N   UNL     1       1.274   2.607  22.279  0.00  0.00    +0.000 NA
ENDBRANCH   4  11
BRANCH   1  13
ATOM     13  O   UNL     1       3.563   6.443  17.231  0.00  0.00    +0.000 OA
BRANCH  13  20
ATOM     14  C   UNL     1       4.982   4.362  15.398  0.00  0.00    +0.000 C 
ATOM     15  C   UNL     1       5.622   5.449  16.214  0.00  0.00    +0.000 A 
ATOM     16  C   UNL     1       7.025   5.551  16.142  0.00  0.00    +0.000 A 
ATOM     17  C   UNL     1       7.716   6.568  16.800  0.00  0.00    +0.000 A 
ATOM     18  C   UNL     1       7.018   7.493  17.565  0.00  0.00    +0.000 A 
ATOM     19  C   UNL     1       5.634   7.383  17.687  0.00  0.00    +0.000 A 
ATOM     20  C   UNL     1       4.927   6.355  17.042  0.00  0.00    +0.000 A 
ENDBRANCH  13  20
ENDBRANCH   1  13
TORSDOF 4
ENDMDL
MODEL 7
REMARK VINA RESULT:      -6.9      2.069      2.728
REMARK  Name = 
REMARK  5 active torsions:
REMARK  status: ('A' for Active; 'I' for Inactive)
REMARK    1  A    between atoms: C_1  and  C_2
REMARK    2  A    between atoms: C_7  and  O_8
REMARK    3  A    between atoms: O_8  and  C_9
REMARK    4  A    between atoms: C_12  and  C_13
REMARK    5  A    between atoms: C_15  and  C_16
REMARK                            x       y       z     vdW  Elec       q    Type
REMARK                         _______ _______ _______ _____ _____    ______ ____
ROOT
ATOM      1  C   UNL     1       3.935   4.462  17.646  0.00  0.00    +0.000 A 
ATOM      2  C   UNL     1       3.819   5.827  17.410  0.00  0.00    +0.000 A 
ATOM      3  C   UNL     1       3.120   6.626  18.316  0.00  0.00    +0.000 A 
ATOM      4  C   UNL     1       2.434   6.057  19.402  0.00  0.00    +0.000 A 
ATOM      5  C   UNL     1       2.399   4.659  19.543  0.00  0.00    +0.000 A 
ATOM      6  C   UNL     1       3.171   3.877  18.660  0.00  0.00    +0.000 A 
ENDROOT
BRANCH   5   7
ATOM      7  C   UNL     1       1.576   3.935  20.586  0.00  0.00    +0.000 C 
ATOM      8  F   UNL     1       2.002   4.093  21.863  0.00  0.00    +0.000 F 
ATOM      9  F   UNL     1       0.278   4.347  20.577  0.00  0.00    +0.000 F 
ATOM     10  F   UNL     1       1.545   2.591  20.375  0.00  0.00    +0.000 F 
ENDBRANCH   5   7
BRANCH   4  11
ATOM     11  C   UNL     1       1.827   6.949  20.348  0.00  0.00    +0.000 C 
ATOM     12  N   UNL     1       1.389   7.704  21.115  0.00  0.00    +0.000 NA
ENDBRANCH   4  11
BRANCH   1  13
ATOM     13  O   UNL     1       4.744   3.606  16.945  0.00  0.00    +0.000 OA
BRANCH  13  20
ATOM     14  C   UNL     1       7.550   4.817  17.550  0.00  0.00    +0.000 C 
ATOM     15  C   UNL     1       6.918   4.598  16.204  0.00  0.00    +0.000 A 
ATOM     16  C   UNL     1       7.679   4.974  15.081  0.00  0.00    +0.000 A 
ATOM     17  C   UNL     1       7.221   4.749  13.782  0.00  0.00    +0.000 A 
ATOM     18  C   UNL     1       5.979   4.163  13.582  0.00  0.00    +0.000 A 
ATOM     19  C   UNL     1       5.190   3.825  14.680  0.00  0.00    +0.000 A 
ATOM     20  C   UNL     1       5.633   4.058  15.992  0.00  0.00    +0.000 A 
ENDBRANCH  13  20
ENDBRANCH   1  13
TORSDOF 4
ENDMDL
MODEL 8
REMARK VINA RESULT:      -6.9      4.619      6.155
REMARK  Name = 
REMARK  5 active torsions:
REMARK  status: ('A' for Active; 'I' for Inactive)
REMARK    1  A    between atoms: C_1  and  C_2
REMARK    2  A    between atoms: C_7  and  O_8
REMARK    3  A    between atoms: O_8  and  C_9
REMARK    4  A    between atoms: C_12  and  C_13
REMARK    5  A    between atoms: C_15  and  C_16
REMARK                            x       y       z     vdW  Elec       q    Type
REMARK                         _______ _______ _______ _____ _____    ______ ____
ROOT
ATOM      1  C   UNL     1       2.524   7.162  19.256  0.00  0.00    +0.000 A 
ATOM      2  C   UNL     1       2.476   7.750  17.997  0.00  0.00    +0.000 A 
ATOM      3  C   UNL     1       1.902   9.014  17.849  0.00  0.00    +0.000 A 
ATOM      4  C   UNL     1       1.267   9.651  18.929  0.00  0.00    +0.000 A 
ATOM      5  C   UNL     1       1.155   8.981  20.159  0.00  0.00    +0.000 A 
ATOM      6  C   UNL     1       1.806   7.738  20.308  0.00  0.00    +0.000 A 
ENDROOT
BRANCH   5   7
ATOM      7  C   UNL     1       0.371   9.508  21.341  0.00  0.00    +0.000 C 
ATOM      8  F   UNL     1      -0.920   9.826  21.076  0.00  0.00    +0.000 F 
ATOM      9  F   UNL     1       0.326   8.603  22.357  0.00  0.00    +0.000 F 
ATOM     10  F   UNL     1       0.925  10.635  21.864  0.00  0.00    +0.000 F 
ENDBRANCH   5   7
BRANCH   4  11
ATOM     11  C   UNL     1       0.793  10.990  18.727  0.00  0.00    +0.000 C 
ATOM     12  N   UNL     1       0.411  12.083  18.626  0.00  0.00    +0.000 NA
ENDBRANCH   4  11
BRANCH   1  13
ATOM     13  O   UNL     1       3.221   6.024  19.569  0.00  0.00    +0.000 OA
BRANCH  13  20
ATOM     14  C   UNL     1       0.906   4.145  20.475  0.00  0.00    +0.000 C 
ATOM     15  C   UNL     1       1.879   3.923  19.350  0.00  0.00    +0.000 A 
ATOM     16  C   UNL     1       1.728   2.734  18.611  0.00  0.00    +0.000 A 
ATOM     17  C   UNL     1       2.528   2.461  17.502  0.00  0.00    +0.000 A 
ATOM     18  C   UNL     1       3.513   3.363  17.122  0.00  0.00    +0.000 A 
ATOM     19  C   UNL     1       3.709   4.524  17.868  0.00  0.00    +0.000 A 
ATOM     20  C   UNL     1       2.920   4.805  18.996  0.00  0.00    +0.000 A 
ENDBRANCH  13  20
ENDBRANCH   1  13
TORSDOF 4
ENDMDL
MODEL 9
REMARK VINA RESULT:      -6.7      3.351      5.609
REMARK  Name = 
REMARK  5 active torsions:
REMARK  status: ('A' for Active; 'I' for Inactive)
REMARK    1  A    between atoms: C_1  and  C_2
REMARK    2  A    between atoms: C_7  and  O_8
REMARK    3  A    between atoms: O_8  and  C_9
REMARK    4  A    between atoms: C_12  and  C_13
REMARK    5  A    between atoms: C_15  and  C_16
REMARK                            x       y       z     vdW  Elec       q    Type
REMARK                         _______ _______ _______ _____ _____    ______ ____
ROOT
ATOM      1  C   UNL     1       2.244   6.855  19.949  0.00  0.00    +0.000 A 
ATOM      2  C   UNL     1       2.973   6.844  18.766  0.00  0.00    +0.000 A 
ATOM      3  C   UNL     1       3.021   5.680  17.996  0.00  0.00    +0.000 A 
ATOM      4  C   UNL     1       2.441   4.486  18.456  0.00  0.00    +0.000 A 
ATOM      5  C   UNL     1       1.858   4.446  19.733  0.00  0.00    +0.000 A 
ATOM      6  C   UNL     1       1.755   5.649  20.462  0.00  0.00    +0.000 A 
ENDROOT
BRANCH   5   7
ATOM      7  C   UNL     1       1.334   3.185  20.385  0.00  0.00    +0.000 C 
ATOM      8  F   UNL     1       0.988   3.316  21.690  0.00  0.00    +0.000 F 
ATOM      9  F   UNL     1       0.221   2.719  19.755  0.00  0.00    +0.000 F 
ATOM     10  F   UNL     1       2.240   2.171  20.347  0.00  0.00    +0.000 F 
ENDBRANCH   5   7
BRANCH   4  11
ATOM     11  C   UNL     1       2.440   3.361  17.565  0.00  0.00    +0.000 C 
ATOM     12  N   UNL     1       2.422   2.414  16.891  0.00  0.00    +0.000 NA
ENDBRANCH   4  11
BRANCH   1  13
ATOM     13  O   UNL     1       1.961   7.971  20.692  0.00  0.00    +0.000 OA
BRANCH  13  20
ATOM     14  C   UNL     1      -0.272   9.190  22.491  0.00  0.00    +0.000 C 
ATOM     15  C   UNL     1       0.017   9.504  21.050  0.00  0.00    +0.000 A 
ATOM     16  C   UNL     1      -0.809  10.466  20.437  0.00  0.00    +0.000 A 
ATOM     17  C   UNL     1      -0.586  10.887  19.126  0.00  0.00    +0.000 A 
ATOM     18  C   UNL     1       0.457  10.337  18.392  0.00  0.00    +0.000 A 
ATOM     19  C   UNL     1       1.257   9.350  18.966  0.00  0.00    +0.000 A 
ATOM     20  C   UNL     1       1.035   8.906  20.280  0.00  0.00    +0.000 A 
ENDBRANCH  13  20
ENDBRANCH   1  13
TORSDOF 4
ENDMDL
