MODEL 1
REMARK VINA RESULT:      -8.5      0.000      0.000
REMARK  Name = 
REMARK  11 active torsions:
REMARK  status: ('A' for Active; 'I' for Inactive)
REMARK    1  A    between atoms: C_1  and  O_2
REMARK    2  A    between atoms: O_2  and  C_3
REMARK    3  A    between atoms: C_6  and  N_7
REMARK    4  A    between atoms: C_8  and  C_10
REMARK    5  A    between atoms: C_10  and  C_11
REMARK    6  A    between atoms: C_11  and  C_12
REMARK    7  A    between atoms: C_14  and  C_15
REMARK    8  A    between atoms: C_18  and  O_19
REMARK    9  A    between atoms: C_20  and  O_21
REMARK   10  A    between atoms: O_21  and  C_22
REMARK   11  A    between atoms: N_26  and  C_27
REMARK                            x       y       z     vdW  Elec       q    Type
REMARK                         _______ _______ _______ _____ _____    ______ ____
ROOT
ATOM      1  C   UNL     1       7.140   6.414  17.470  0.00  0.00    +0.000 A 
ATOM      2  C   UNL     1       6.072   5.807  18.094  0.00  0.00    +0.000 A 
ATOM      3  C   UNL     1       5.346   4.899  17.347  0.00  0.00    +0.000 A 
ATOM      4  N   UNL     1       5.714   4.575  16.090  0.00  0.00    +0.000 NA
ATOM      5  C   UNL     1       6.773   5.194  15.553  0.00  0.00    +0.000 A 
ATOM      6  N   UNL     1       7.203   4.877  14.272  0.00  0.00    +0.000 N 
ATOM      7  N   UNL     1       7.492   6.126  16.200  0.00  0.00    +0.000 NA
ATOM      8  H   UNL     1       7.697   5.659  13.875  0.00  0.00    +0.000 HD
ENDROOT
BRANCH   3   9
ATOM      9  C   UNL     1       4.126   4.237  17.857  0.00  0.00    +0.000 A 
ATOM     10  C   UNL     1       3.582   3.118  17.202  0.00  0.00    +0.000 A 
ATOM     11  C   UNL     1       2.432   2.484  17.680  0.00  0.00    +0.000 A 
ATOM     12  C   UNL     1       1.800   2.971  18.820  0.00  0.00    +0.000 A 
ATOM     13  C   UNL     1       2.294   4.096  19.489  0.00  0.00    +0.000 A 
ATOM     14  C   UNL     1       3.448   4.716  18.999  0.00  0.00    +0.000 A 
BRANCH  12  15
ATOM     15  O   UNL     1       0.677   2.349  19.295  0.00  0.00    +0.000 OA
ATOM     16  H   UNL     1       0.414   1.652  18.673  0.00  0.00    +0.000 HD
ENDBRANCH  12  15
BRANCH  13  17
ATOM     17  O   UNL     1       1.590   4.512  20.590  0.00  0.00    +0.000 OA
ATOM     18  C   UNL     1       1.528   5.908  20.841  0.00  0.00    +0.000 C 
ENDBRANCH  13  17
ENDBRANCH   3   9
BRANCH   6  19
ATOM     19  C   UNL     1       6.366   4.065  13.438  0.00  0.00    +0.000 C 
ATOM     20  N   UNL     1       5.753   3.379  12.738  0.00  0.00    +0.000 NA
ENDBRANCH   6  19
BRANCH   1  21
ATOM     21  C   UNL     1       7.966   7.435  18.208  0.00  0.00    +0.000 C 
BRANCH  21  22
ATOM     22  C   UNL     1       7.566   8.861  17.850  0.00  0.00    +0.000 C 
BRANCH  22  24
ATOM     23  N   UNL     1       8.696  11.005  17.689  0.00  0.00    +0.000 N 
ATOM     24  C   UNL     1       8.609   9.814  18.389  0.00  0.00    +0.000 C 
ATOM     25  O   UNL     1       9.224   9.518  19.410  0.00  0.00    +0.000 OA
ATOM     26  H   UNL     1       8.011  11.174  16.963  0.00  0.00    +0.000 HD
BRANCH  23  30
ATOM     27  C   UNL     1      11.433  14.122  18.527  0.00  0.00    +0.000 A 
ATOM     28  C   UNL     1      10.137  14.428  18.116  0.00  0.00    +0.000 A 
ATOM     29  C   UNL     1       9.215  13.413  17.853  0.00  0.00    +0.000 A 
ATOM     30  C   UNL     1       9.578  12.072  17.979  0.00  0.00    +0.000 A 
ATOM     31  C   UNL     1      10.874  11.765  18.409  0.00  0.00    +0.000 A 
ATOM     32  C   UNL     1      11.803  12.786  18.670  0.00  0.00    +0.000 A 
BRANCH  27  34
ATOM     33  C   UNL     1      12.333  15.696  20.048  0.00  0.00    +0.000 C 
ATOM     34  O   UNL     1      12.243  15.204  18.717  0.00  0.00    +0.000 OA
ENDBRANCH  27  34
ENDBRANCH  23  30
ENDBRANCH  22  24
ENDBRANCH  21  22
ENDBRANCH   1  21
TORSDOF 9
ENDMDL
MODEL 2
REMARK VINA RESULT:      -8.4      0.705      1.107
REMARK  Name = 
REMARK  11 active torsions:
REMARK  status: ('A' for Active; 'I' for Inactive)
REMARK    1  A    between atoms: C_1  and  O_2
REMARK    2  A    between atoms: O_2  and  C_3
REMARK    3  A    between atoms: C_6  and  N_7
REMARK    4  A    between atoms: C_8  and  C_10
REMARK    5  A    between atoms: C_10  and  C_11
REMARK    6  A    between atoms: C_11  and  C_12
REMARK    7  A    between atoms: C_14  and  C_15
REMARK    8  A    between atoms: C_18  and  O_19
REMARK    9  A    between atoms: C_20  and  O_21
REMARK   10  A    between atoms: O_21  and  C_22
REMARK   11  A    between atoms: N_26  and  C_27
REMARK                            x       y       z     vdW  Elec       q    Type
REMARK                         _______ _______ _______ _____ _____    ______ ____
ROOT
ATOM      1  C   UNL     1       7.180   6.646  17.549  0.00  0.00    +0.000 A 
ATOM      2  C   UNL     1       6.090   6.086  18.180  0.00  0.00    +0.000 A 
ATOM      3  C   UNL     1       5.359   5.161  17.462  0.00  0.00    +0.000 A 
ATOM      4  N   UNL     1       5.739   4.777  16.225  0.00  0.00    +0.000 NA
ATOM      5  C   UNL     1       6.818   5.352  15.680  0.00  0.00    +0.000 A 
ATOM      6  N   UNL     1       7.261   4.972  14.421  0.00  0.00    +0.000 N 
ATOM      7  N   UNL     1       7.546   6.297  16.298  0.00  0.00    +0.000 NA
ATOM      8  H   UNL     1       7.777   5.728  13.999  0.00  0.00    +0.000 HD
ENDROOT
BRANCH   3   9
ATOM      9  C   UNL     1       4.118   4.545  17.979  0.00  0.00    +0.000 A 
ATOM     10  C   UNL     1       3.631   3.339  17.445  0.00  0.00    +0.000 A 
ATOM     11  C   UNL     1       2.462   2.747  17.931  0.00  0.00    +0.000 A 
ATOM     12  C   UNL     1       1.753   3.365  18.958  0.00  0.00    +0.000 A 
ATOM     13  C   UNL     1       2.190   4.577  19.503  0.00  0.00    +0.000 A 
ATOM     14  C   UNL     1       3.364   5.154  19.006  0.00  0.00    +0.000 A 
BRANCH  12  15
ATOM     15  O   UNL     1       0.612   2.786  19.442  0.00  0.00    +0.000 OA
ATOM     16  H   UNL     1       0.432   1.974  18.942  0.00  0.00    +0.000 HD
ENDBRANCH  12  15
BRANCH  13  17
ATOM     17  O   UNL     1       1.413   5.117  20.496  0.00  0.00    +0.000 OA
ATOM     18  C   UNL     1       1.582   6.498  20.784  0.00  0.00    +0.000 C 
ENDBRANCH  13  17
ENDBRANCH   3   9
BRANCH   6  19
ATOM     19  C   UNL     1       6.422   4.142  13.608  0.00  0.00    +0.000 C 
ATOM     20  N   UNL     1       5.759   3.519  12.896  0.00  0.00    +0.000 NA
ENDBRANCH   6  19
BRANCH   1  21
ATOM     21  C   UNL     1       8.014   7.681  18.256  0.00  0.00    +0.000 C 
BRANCH  21  22
ATOM     22  C   UNL     1       8.133   8.968  17.449  0.00  0.00    +0.000 C 
BRANCH  22  24
ATOM     23  N   UNL     1       8.819  11.283  17.717  0.00  0.00    +0.000 N 
ATOM     24  C   UNL     1       8.760  10.036  18.317  0.00  0.00    +0.000 C 
ATOM     25  O   UNL     1       9.087   9.761  19.468  0.00  0.00    +0.000 OA
ATOM     26  H   UNL     1       8.364  11.395  16.820  0.00  0.00    +0.000 HD
BRANCH  23  30
ATOM     27  C   UNL     1      10.289  14.819  19.520  0.00  0.00    +0.000 A 
ATOM     28  C   UNL     1      11.160  13.766  19.244  0.00  0.00    +0.000 A 
ATOM     29  C   UNL     1      10.696  12.600  18.632  0.00  0.00    +0.000 A 
ATOM     30  C   UNL     1       9.348  12.457  18.302  0.00  0.00    +0.000 A 
ATOM     31  C   UNL     1       8.477  13.521  18.564  0.00  0.00    +0.000 A 
ATOM     32  C   UNL     1       8.943  14.693  19.182  0.00  0.00    +0.000 A 
BRANCH  27  34
ATOM     33  C   UNL     1      12.277  15.848  20.284  0.00  0.00    +0.000 C 
ATOM     34  O   UNL     1      10.862  15.885  20.151  0.00  0.00    +0.000 OA
ENDBRANCH  27  34
ENDBRANCH  23  30
ENDBRANCH  22  24
ENDBRANCH  21  22
ENDBRANCH   1  21
TORSDOF 9
ENDMDL
MODEL 3
REMARK VINA RESULT:      -8.3      1.096      1.582
REMARK  Name = 
REMARK  11 active torsions:
REMARK  status: ('A' for Active; 'I' for Inactive)
REMARK    1  A    between atoms: C_1  and  O_2
REMARK    2  A    between atoms: O_2  and  C_3
REMARK    3  A    between atoms: C_6  and  N_7
REMARK    4  A    between atoms: C_8  and  C_10
REMARK    5  A    between atoms: C_10  and  C_11
REMARK    6  A    between atoms: C_11  and  C_12
REMARK    7  A    between atoms: C_14  and  C_15
REMARK    8  A    between atoms: C_18  and  O_19
REMARK    9  A    between atoms: C_20  and  O_21
REMARK   10  A    between atoms: O_21  and  C_22
REMARK   11  A    between atoms: N_26  and  C_27
REMARK                            x       y       z     vdW  Elec       q    Type
REMARK                         _______ _______ _______ _____ _____    ______ ____
ROOT
ATOM      1  C   UNL     1       7.319   6.795  17.706  0.00  0.00    +0.000 A 
ATOM      2  C   UNL     1       6.223   6.253  18.342  0.00  0.00    +0.000 A 
ATOM      3  C   UNL     1       5.474   5.338  17.628  0.00  0.00    +0.000 A 
ATOM      4  N   UNL     1       5.844   4.946  16.391  0.00  0.00    +0.000 NA
ATOM      5  C   UNL     1       6.929   5.503  15.840  0.00  0.00    +0.000 A 
ATOM      6  N   UNL     1       7.362   5.114  14.580  0.00  0.00    +0.000 N 
ATOM      7  N   UNL     1       7.674   6.438  16.454  0.00  0.00    +0.000 NA
ATOM      8  H   UNL     1       7.887   5.861  14.154  0.00  0.00    +0.000 HD
ENDROOT
BRANCH   3   9
ATOM      9  C   UNL     1       4.226   4.742  18.151  0.00  0.00    +0.000 A 
ATOM     10  C   UNL     1       2.973   5.107  17.626  0.00  0.00    +0.000 A 
ATOM     11  C   UNL     1       1.790   4.545  18.111  0.00  0.00    +0.000 A 
ATOM     12  C   UNL     1       1.843   3.612  19.143  0.00  0.00    +0.000 A 
ATOM     13  C   UNL     1       3.065   3.237  19.710  0.00  0.00    +0.000 A 
ATOM     14  C   UNL     1       4.241   3.808  19.210  0.00  0.00    +0.000 A 
BRANCH  12  15
ATOM     15  O   UNL     1       0.686   3.054  19.616  0.00  0.00    +0.000 OA
ATOM     16  H   UNL     1       0.581   3.288  20.552  0.00  0.00    +0.000 HD
ENDBRANCH  12  15
BRANCH  13  17
ATOM     17  O   UNL     1       3.012   2.328  20.734  0.00  0.00    +0.000 OA
ATOM     18  C   UNL     1       4.240   1.772  21.183  0.00  0.00    +0.000 C 
ENDBRANCH  13  17
ENDBRANCH   3   9
BRANCH   6  19
ATOM     19  C   UNL     1       6.506   4.296  13.772  0.00  0.00    +0.000 C 
ATOM     20  N   UNL     1       5.876   3.596  13.102  0.00  0.00    +0.000 NA
ENDBRANCH   6  19
BRANCH   1  21
ATOM     21  C   UNL     1       8.172   7.818  18.407  0.00  0.00    +0.000 C 
BRANCH  21  22
ATOM     22  C   UNL     1       8.081   9.188  17.747  0.00  0.00    +0.000 C 
BRANCH  22  24
ATOM     23  N   UNL     1       9.283  11.298  17.802  0.00  0.00    +0.000 N 
ATOM     24  C   UNL     1       8.941  10.164  18.519  0.00  0.00    +0.000 C 
ATOM     25  O   UNL     1       9.199   9.937  19.697  0.00  0.00    +0.000 OA
ATOM     26  H   UNL     1       8.863  11.422  16.890  0.00  0.00    +0.000 HD
BRANCH  23  30
ATOM     27  C   UNL     1      11.535  14.569  19.266  0.00  0.00    +0.000 A 
ATOM     28  C   UNL     1      12.090  13.290  19.262  0.00  0.00    +0.000 A 
ATOM     29  C   UNL     1      11.369  12.202  18.765  0.00  0.00    +0.000 A 
ATOM     30  C   UNL     1      10.071  12.370  18.280  0.00  0.00    +0.000 A 
ATOM     31  C   UNL     1       9.521  13.658  18.268  0.00  0.00    +0.000 A 
ATOM     32  C   UNL     1      10.245  14.751  18.771  0.00  0.00    +0.000 A 
BRANCH  27  34
ATOM     33  C   UNL     1      11.751  16.313  20.850  0.00  0.00    +0.000 C 
ATOM     34  O   UNL     1      12.331  15.535  19.810  0.00  0.00    +0.000 OA
ENDBRANCH  27  34
ENDBRANCH  23  30
ENDBRANCH  22  24
ENDBRANCH  21  22
ENDBRANCH   1  21
TORSDOF 9
ENDMDL
MODEL 4
REMARK VINA RESULT:      -8.3      5.876      9.787
REMARK  Name = 
REMARK  11 active torsions:
REMARK  status: ('A' for Active; 'I' for Inactive)
REMARK    1  A    between atoms: C_1  and  O_2
REMARK    2  A    between atoms: O_2  and  C_3
REMARK    3  A    between atoms: C_6  and  N_7
REMARK    4  A    between atoms: C_8  and  C_10
REMARK    5  A    between atoms: C_10  and  C_11
REMARK    6  A    between atoms: C_11  and  C_12
REMARK    7  A    between atoms: C_14  and  C_15
REMARK    8  A    between atoms: C_18  and  O_19
REMARK    9  A    between atoms: C_20  and  O_21
REMARK   10  A    between atoms: O_21  and  C_22
REMARK   11  A    between atoms: N_26  and  C_27
REMARK                            x       y       z     vdW  Elec       q    Type
REMARK                         _______ _______ _______ _____ _____    ______ ____
ROOT
ATOM      1  C   UNL     1       1.832   7.476  19.775  0.00  0.00    +0.000 A 
ATOM      2  C   UNL     1       2.769   7.297  18.780  0.00  0.00    +0.000 A 
ATOM      3  C   UNL     1       3.405   6.072  18.734  0.00  0.00    +0.000 A 
ATOM      4  N   UNL     1       3.070   5.077  19.582  0.00  0.00    +0.000 NA
ATOM      5  C   UNL     1       2.139   5.318  20.514  0.00  0.00    +0.000 A 
ATOM      6  N   UNL     1       1.744   4.319  21.393  0.00  0.00    +0.000 N 
ATOM      7  N   UNL     1       1.518   6.501  20.652  0.00  0.00    +0.000 NA
ATOM      8  H   UNL     1       1.386   4.731  22.239  0.00  0.00    +0.000 HD
ENDROOT
BRANCH   3   9
ATOM      9  C   UNL     1       4.491   5.769  17.777  0.00  0.00    +0.000 A 
ATOM     10  C   UNL     1       4.416   4.653  16.925  0.00  0.00    +0.000 A 
ATOM     11  C   UNL     1       5.436   4.363  16.015  0.00  0.00    +0.000 A 
ATOM     12  C   UNL     1       6.557   5.185  15.953  0.00  0.00    +0.000 A 
ATOM     13  C   UNL     1       6.684   6.292  16.797  0.00  0.00    +0.000 A 
ATOM     14  C   UNL     1       5.652   6.570  17.700  0.00  0.00    +0.000 A 
BRANCH  12  15
ATOM     15  O   UNL     1       7.555   4.908  15.058  0.00  0.00    +0.000 OA
ATOM     16  H   UNL     1       8.408   4.916  15.521  0.00  0.00    +0.000 HD
ENDBRANCH  12  15
BRANCH  13  17
ATOM     17  O   UNL     1       7.834   7.028  16.675  0.00  0.00    +0.000 OA
ATOM     18  C   UNL     1       7.980   8.164  17.515  0.00  0.00    +0.000 C 
ENDBRANCH  13  17
ENDBRANCH   3   9
BRANCH   6  19
ATOM     19  C   UNL     1       2.508   3.108  21.460  0.00  0.00    +0.000 C 
ATOM     20  N   UNL     1       3.149   2.154  21.581  0.00  0.00    +0.000 NA
ENDBRANCH   6  19
BRANCH   1  21
ATOM     21  C   UNL     1       1.113   8.792  19.908  0.00  0.00    +0.000 C 
BRANCH  21  22
ATOM     22  C   UNL     1       1.402   9.724  18.738  0.00  0.00    +0.000 C 
BRANCH  22  24
ATOM     23  N   UNL     1      -0.895   9.980  17.993  0.00  0.00    +0.000 N 
ATOM     24  C   UNL     1       0.209  10.627  18.522  0.00  0.00    +0.000 C 
ATOM     25  O   UNL     1       0.267  11.798  18.886  0.00  0.00    +0.000 OA
ATOM     26  H   UNL     1      -0.846   8.975  17.891  0.00  0.00    +0.000 HD
BRANCH  23  30
ATOM     27  C   UNL     1      -4.640  11.694  17.015  0.00  0.00    +0.000 A 
ATOM     28  C   UNL     1      -4.159  11.775  18.321  0.00  0.00    +0.000 A 
ATOM     29  C   UNL     1      -2.917  11.232  18.657  0.00  0.00    +0.000 A 
ATOM     30  C   UNL     1      -2.141  10.581  17.697  0.00  0.00    +0.000 A 
ATOM     31  C   UNL     1      -2.616  10.515  16.382  0.00  0.00    +0.000 A 
ATOM     32  C   UNL     1      -3.867  11.058  16.045  0.00  0.00    +0.000 A 
BRANCH  27  34
ATOM     33  C   UNL     1      -6.382  13.034  17.890  0.00  0.00    +0.000 C 
ATOM     34  O   UNL     1      -5.880  12.233  16.828  0.00  0.00    +0.000 OA
ENDBRANCH  27  34
ENDBRANCH  23  30
ENDBRANCH  22  24
ENDBRANCH  21  22
ENDBRANCH   1  21
TORSDOF 9
ENDMDL
MODEL 5
REMARK VINA RESULT:      -8.2      1.932      2.019
REMARK  Name = 
REMARK  11 active torsions:
REMARK  status: ('A' for Active; 'I' for Inactive)
REMARK    1  A    between atoms: C_1  and  O_2
REMARK    2  A    between atoms: O_2  and  C_3
REMARK    3  A    between atoms: C_6  and  N_7
REMARK    4  A    between atoms: C_8  and  C_10
REMARK    5  A    between atoms: C_10  and  C_11
REMARK    6  A    between atoms: C_11  and  C_12
REMARK    7  A    between atoms: C_14  and  C_15
REMARK    8  A    between atoms: C_18  and  O_19
REMARK    9  A    between atoms: C_20  and  O_21
REMARK   10  A    between atoms: O_21  and  C_22
REMARK   11  A    between atoms: N_26  and  C_27
REMARK                            x       y       z     vdW  Elec       q    Type
REMARK                         _______ _______ _______ _____ _____    ______ ____
ROOT
ATOM      1  C   UNL     1       7.076   6.529  17.719  0.00  0.00    +0.000 A 
ATOM      2  C   UNL     1       5.973   5.902  18.258  0.00  0.00    +0.000 A 
ATOM      3  C   UNL     1       5.313   4.996  17.451  0.00  0.00    +0.000 A 
ATOM      4  N   UNL     1       5.773   4.691  16.219  0.00  0.00    +0.000 NA
ATOM      5  C   UNL     1       6.859   5.328  15.766  0.00  0.00    +0.000 A 
ATOM      6  N   UNL     1       7.382   5.032  14.516  0.00  0.00    +0.000 N 
ATOM      7  N   UNL     1       7.520   6.260  16.473  0.00  0.00    +0.000 NA
ATOM      8  H   UNL     1       7.894   5.825  14.163  0.00  0.00    +0.000 HD
ENDROOT
BRANCH   3   9
ATOM      9  C   UNL     1       4.067   4.314  17.865  0.00  0.00    +0.000 A 
ATOM     10  C   UNL     1       3.417   3.409  17.007  0.00  0.00    +0.000 A 
ATOM     11  C   UNL     1       2.243   2.757  17.393  0.00  0.00    +0.000 A 
ATOM     12  C   UNL     1       1.694   3.012  18.646  0.00  0.00    +0.000 A 
ATOM     13  C   UNL     1       2.295   3.921  19.522  0.00  0.00    +0.000 A 
ATOM     14  C   UNL     1       3.472   4.563  19.121  0.00  0.00    +0.000 A 
BRANCH  12  15
ATOM     15  O   UNL     1       0.548   2.370  19.030  0.00  0.00    +0.000 OA
ATOM     16  H   UNL     1       0.179   2.818  19.808  0.00  0.00    +0.000 HD
ENDBRANCH  12  15
BRANCH  13  17
ATOM     17  O   UNL     1       1.667   4.120  20.725  0.00  0.00    +0.000 OA
ATOM     18  C   UNL     1       2.113   3.353  21.834  0.00  0.00    +0.000 C 
ENDBRANCH  13  17
ENDBRANCH   3   9
BRANCH   6  19
ATOM     19  C   UNL     1       6.617   4.221  13.615  0.00  0.00    +0.000 C 
ATOM     20  N   UNL     1       5.959   3.546  12.947  0.00  0.00    +0.000 NA
ENDBRANCH   6  19
BRANCH   1  21
ATOM     21  C   UNL     1       7.835   7.550  18.524  0.00  0.00    +0.000 C 
BRANCH  21  22
ATOM     22  C   UNL     1       8.587   8.535  17.637  0.00  0.00    +0.000 C 
BRANCH  22  24
ATOM     23  N   UNL     1       9.377  10.003  19.403  0.00  0.00    +0.000 N 
ATOM     24  C   UNL     1       8.562   9.899  18.288  0.00  0.00    +0.000 C 
ATOM     25  O   UNL     1       7.917  10.804  17.766  0.00  0.00    +0.000 OA
ATOM     26  H   UNL     1       9.975   9.217  19.623  0.00  0.00    +0.000 HD
BRANCH  23  30
ATOM     27  C   UNL     1       9.919  13.536  21.671  0.00  0.00    +0.000 A 
ATOM     28  C   UNL     1       9.033  12.554  22.114  0.00  0.00    +0.000 A 
ATOM     29  C   UNL     1       8.856  11.375  21.388  0.00  0.00    +0.000 A 
ATOM     30  C   UNL     1       9.548  11.162  20.195  0.00  0.00    +0.000 A 
ATOM     31  C   UNL     1      10.451  12.139  19.760  0.00  0.00    +0.000 A 
ATOM     32  C   UNL     1      10.626  13.328  20.489  0.00  0.00    +0.000 A 
BRANCH  27  34
ATOM     33  C   UNL     1       8.794  14.961  23.187  0.00  0.00    +0.000 C 
ATOM     34  O   UNL     1       9.972  14.653  22.453  0.00  0.00    +0.000 OA
ENDBRANCH  27  34
ENDBRANCH  23  30
ENDBRANCH  22  24
ENDBRANCH  21  22
ENDBRANCH   1  21
TORSDOF 9
ENDMDL
MODEL 6
REMARK VINA RESULT:      -8.1      4.877      7.767
REMARK  Name = 
REMARK  11 active torsions:
REMARK  status: ('A' for Active; 'I' for Inactive)
REMARK    1  A    between atoms: C_1  and  O_2
REMARK    2  A    between atoms: O_2  and  C_3
REMARK    3  A    between atoms: C_6  and  N_7
REMARK    4  A    between atoms: C_8  and  C_10
REMARK    5  A    between atoms: C_10  and  C_11
REMARK    6  A    between atoms: C_11  and  C_12
REMARK    7  A    between atoms: C_14  and  C_15
REMARK    8  A    between atoms: C_18  and  O_19
REMARK    9  A    between atoms: C_20  and  O_21
REMARK   10  A    between atoms: O_21  and  C_22
REMARK   11  A    between atoms: N_26  and  C_27
REMARK                            x       y       z     vdW  Elec       q    Type
REMARK                         _______ _______ _______ _____ _____    ______ ____
ROOT
ATOM      1  C   UNL     1       5.741   5.201  19.148  0.00  0.00    +0.000 A 
ATOM      2  C   UNL     1       4.946   6.323  19.235  0.00  0.00    +0.000 A 
ATOM      3  C   UNL     1       3.580   6.123  19.235  0.00  0.00    +0.000 A 
ATOM      4  N   UNL     1       3.055   4.880  19.221  0.00  0.00    +0.000 NA
ATOM      5  C   UNL     1       3.888   3.835  19.152  0.00  0.00    +0.000 A 
ATOM      6  N   UNL     1       3.395   2.537  19.158  0.00  0.00    +0.000 N 
ATOM      7  N   UNL     1       5.224   3.955  19.094  0.00  0.00    +0.000 NA
ATOM      8  H   UNL     1       4.050   1.922  18.704  0.00  0.00    +0.000 HD
ENDROOT
BRANCH   3   9
ATOM      9  C   UNL     1       2.607   7.238  19.236  0.00  0.00    +0.000 A 
ATOM     10  C   UNL     1       2.468   8.079  18.118  0.00  0.00    +0.000 A 
ATOM     11  C   UNL     1       1.548   9.131  18.109  0.00  0.00    +0.000 A 
ATOM     12  C   UNL     1       0.758   9.364  19.231  0.00  0.00    +0.000 A 
ATOM     13  C   UNL     1       0.880   8.566  20.374  0.00  0.00    +0.000 A 
ATOM     14  C   UNL     1       1.804   7.515  20.364  0.00  0.00    +0.000 A 
BRANCH  12  15
ATOM     15  O   UNL     1      -0.149  10.389  19.224  0.00  0.00    +0.000 OA
ATOM     16  H   UNL     1      -0.380  10.601  18.306  0.00  0.00    +0.000 HD
ENDBRANCH  12  15
BRANCH  13  17
ATOM     17  O   UNL     1       0.074   8.888  21.435  0.00  0.00    +0.000 OA
ATOM     18  C   UNL     1       0.696   9.414  22.597  0.00  0.00    +0.000 C 
ENDBRANCH  13  17
ENDBRANCH   3   9
BRANCH   6  19
ATOM     19  C   UNL     1       1.987   2.326  18.992  0.00  0.00    +0.000 C 
ATOM     20  N   UNL     1       0.841   2.214  18.902  0.00  0.00    +0.000 NA
ENDBRANCH   6  19
BRANCH   1  21
ATOM     21  C   UNL     1       7.240   5.335  19.116  0.00  0.00    +0.000 C 
BRANCH  21  22
ATOM     22  C   UNL     1       7.694   6.468  18.203  0.00  0.00    +0.000 C 
BRANCH  22  24
ATOM     23  N   UNL     1       7.298   5.043  16.277  0.00  0.00    +0.000 N 
ATOM     24  C   UNL     1       7.061   6.285  16.842  0.00  0.00    +0.000 C 
ATOM     25  O   UNL     1       6.347   7.173  16.385  0.00  0.00    +0.000 OA
ATOM     26  H   UNL     1       7.773   4.352  16.843  0.00  0.00    +0.000 HD
BRANCH  23  30
ATOM     27  C   UNL     1       5.994   3.716  12.475  0.00  0.00    +0.000 A 
ATOM     28  C   UNL     1       5.192   3.508  13.596  0.00  0.00    +0.000 A 
ATOM     29  C   UNL     1       5.597   3.957  14.855  0.00  0.00    +0.000 A 
ATOM     30  C   UNL     1       6.822   4.604  15.019  0.00  0.00    +0.000 A 
ATOM     31  C   UNL     1       7.620   4.827  13.891  0.00  0.00    +0.000 A 
ATOM     32  C   UNL     1       7.214   4.373  12.625  0.00  0.00    +0.000 A 
BRANCH  27  34
ATOM     33  C   UNL     1       4.084   3.208  11.176  0.00  0.00    +0.000 C 
ATOM     34  O   UNL     1       5.499   3.198  11.313  0.00  0.00    +0.000 OA
ENDBRANCH  27  34
ENDBRANCH  23  30
ENDBRANCH  22  24
ENDBRANCH  21  22
ENDBRANCH   1  21
TORSDOF 9
ENDMDL
MODEL 7
REMARK VINA RESULT:      -8.0      2.799      4.166
REMARK  Name = 
REMARK  11 active torsions:
REMARK  status: ('A' for Active; 'I' for Inactive)
REMARK    1  A    between atoms: C_1  and  O_2
REMARK    2  A    between atoms: O_2  and  C_3
REMARK    3  A    between atoms: C_6  and  N_7
REMARK    4  A    between atoms: C_8  and  C_10
REMARK    5  A    between atoms: C_10  and  C_11
REMARK    6  A    between atoms: C_11  and  C_12
REMARK    7  A    between atoms: C_14  and  C_15
REMARK    8  A    between atoms: C_18  and  O_19
REMARK    9  A    between atoms: C_20  and  O_21
REMARK   10  A    between atoms: O_21  and  C_22
REMARK   11  A    between atoms: N_26  and  C_27
REMARK                            x       y       z     vdW  Elec       q    Type
REMARK                         _______ _______ _______ _____ _____    ______ ____
ROOT
ATOM      1  C   UNL     1       5.838   5.534  17.888  0.00  0.00    +0.000 A 
ATOM      2  C   UNL     1       5.042   6.617  18.195  0.00  0.00    +0.000 A 
ATOM      3  C   UNL     1       3.704   6.364  18.421  0.00  0.00    +0.000 A 
ATOM      4  N   UNL     1       3.218   5.105  18.410  0.00  0.00    +0.000 NA
ATOM      5  C   UNL     1       4.052   4.100  18.119  0.00  0.00    +0.000 A 
ATOM      6  N   UNL     1       3.604   2.786  18.119  0.00  0.00    +0.000 N 
ATOM      7  N   UNL     1       5.353   4.276  17.835  0.00  0.00    +0.000 NA
ATOM      8  H   UNL     1       4.183   2.229  17.512  0.00  0.00    +0.000 HD
ENDROOT
BRANCH   3   9
ATOM      9  C   UNL     1       2.718   7.437  18.675  0.00  0.00    +0.000 A 
ATOM     10  C   UNL     1       2.400   8.379  17.680  0.00  0.00    +0.000 A 
ATOM     11  C   UNL     1       1.466   9.393  17.910  0.00  0.00    +0.000 A 
ATOM     12  C   UNL     1       0.842   9.485  19.151  0.00  0.00    +0.000 A 
ATOM     13  C   UNL     1       1.144   8.583  20.176  0.00  0.00    +0.000 A 
ATOM     14  C   UNL     1       2.079   7.572  19.927  0.00  0.00    +0.000 A 
BRANCH  12  15
ATOM     15  O   UNL     1      -0.079  10.472  19.378  0.00  0.00    +0.000 OA
ATOM     16  H   UNL     1      -0.647  10.211  20.120  0.00  0.00    +0.000 HD
ENDBRANCH  12  15
BRANCH  13  17
ATOM     17  O   UNL     1       0.492   8.768  21.367  0.00  0.00    +0.000 OA
ATOM     18  C   UNL     1       1.225   9.355  22.433  0.00  0.00    +0.000 C 
ENDBRANCH  13  17
ENDBRANCH   3   9
BRANCH   6  19
ATOM     19  C   UNL     1       2.195   2.532  18.189  0.00  0.00    +0.000 C 
ATOM     20  N   UNL     1       1.052   2.387  18.287  0.00  0.00    +0.000 NA
ENDBRANCH   6  19
BRANCH   1  21
ATOM     21  C   UNL     1       7.303   5.729  17.602  0.00  0.00    +0.000 C 
BRANCH  21  22
ATOM     22  C   UNL     1       7.984   6.587  18.662  0.00  0.00    +0.000 C 
BRANCH  22  24
ATOM     23  N   UNL     1       8.846   8.835  18.978  0.00  0.00    +0.000 N 
ATOM     24  C   UNL     1       8.196   7.977  18.107  0.00  0.00    +0.000 C 
ATOM     25  O   UNL     1       7.868   8.220  16.949  0.00  0.00    +0.000 OA
ATOM     26  H   UNL     1       9.200   8.447  19.843  0.00  0.00    +0.000 HD
BRANCH  23  30
ATOM     27  C   UNL     1       9.711  12.900  18.176  0.00  0.00    +0.000 A 
ATOM     28  C   UNL     1      10.570  12.153  18.981  0.00  0.00    +0.000 A 
ATOM     29  C   UNL     1      10.310  10.806  19.240  0.00  0.00    +0.000 A 
ATOM     30  C   UNL     1       9.176  10.185  18.715  0.00  0.00    +0.000 A 
ATOM     31  C   UNL     1       8.323  10.931  17.892  0.00  0.00    +0.000 A 
ATOM     32  C   UNL     1       8.582  12.287  17.634  0.00  0.00    +0.000 A 
BRANCH  27  34
ATOM     33  C   UNL     1       9.065  15.167  18.373  0.00  0.00    +0.000 C 
ATOM     34  O   UNL     1      10.060  14.212  18.030  0.00  0.00    +0.000 OA
ENDBRANCH  27  34
ENDBRANCH  23  30
ENDBRANCH  22  24
ENDBRANCH  21  22
ENDBRANCH   1  21
TORSDOF 9
ENDMDL
MODEL 8
REMARK VINA RESULT:      -8.0      5.909      8.804
REMARK  Name = 
REMARK  11 active torsions:
REMARK  status: ('A' for Active; 'I' for Inactive)
REMARK    1  A    between atoms: C_1  and  O_2
REMARK    2  A    between atoms: O_2  and  C_3
REMARK    3  A    between atoms: C_6  and  N_7
REMARK    4  A    between atoms: C_8  and  C_10
REMARK    5  A    between atoms: C_10  and  C_11
REMARK    6  A    between atoms: C_11  and  C_12
REMARK    7  A    between atoms: C_14  and  C_15
REMARK    8  A    between atoms: C_18  and  O_19
REMARK    9  A    between atoms: C_20  and  O_21
REMARK   10  A    between atoms: O_21  and  C_22
REMARK   11  A    between atoms: N_26  and  C_27
REMARK                            x       y       z     vdW  Elec       q    Type
REMARK                         _______ _______ _______ _____ _____    ______ ____
ROOT
ATOM      1  C   UNL     1       1.859   7.334  20.024  0.00  0.00    +0.000 A 
ATOM      2  C   UNL     1       2.755   7.234  18.981  0.00  0.00    +0.000 A 
ATOM      3  C   UNL     1       3.419   6.032  18.840  0.00  0.00    +0.000 A 
ATOM      4  N   UNL     1       3.148   4.985  19.646  0.00  0.00    +0.000 NA
ATOM      5  C   UNL     1       2.254   5.148  20.629  0.00  0.00    +0.000 A 
ATOM      6  N   UNL     1       1.926   4.093  21.468  0.00  0.00    +0.000 N 
ATOM      7  N   UNL     1       1.611   6.304  20.859  0.00  0.00    +0.000 NA
ATOM      8  H   UNL     1       1.596   4.449  22.351  0.00  0.00    +0.000 HD
ENDROOT
BRANCH   3   9
ATOM      9  C   UNL     1       4.469   5.812  17.821  0.00  0.00    +0.000 A 
ATOM     10  C   UNL     1       4.359   4.772  16.881  0.00  0.00    +0.000 A 
ATOM     11  C   UNL     1       5.344   4.560  15.912  0.00  0.00    +0.000 A 
ATOM     12  C   UNL     1       6.465   5.385  15.879  0.00  0.00    +0.000 A 
ATOM     13  C   UNL     1       6.625   6.417  16.809  0.00  0.00    +0.000 A 
ATOM     14  C   UNL     1       5.628   6.617  17.770  0.00  0.00    +0.000 A 
BRANCH  12  15
ATOM     15  O   UNL     1       7.428   5.185  14.927  0.00  0.00    +0.000 OA
ATOM     16  H   UNL     1       8.288   5.458  15.285  0.00  0.00    +0.000 HD
ENDBRANCH  12  15
BRANCH  13  17
ATOM     17  O   UNL     1       7.772   7.161  16.707  0.00  0.00    +0.000 OA
ATOM     18  C   UNL     1       7.950   8.224  17.631  0.00  0.00    +0.000 C 
ENDBRANCH  13  17
ENDBRANCH   3   9
BRANCH   6  19
ATOM     19  C   UNL     1       2.723   2.902  21.435  0.00  0.00    +0.000 C 
ATOM     20  N   UNL     1       3.424   1.984  21.390  0.00  0.00    +0.000 NA
ENDBRANCH   6  19
BRANCH   1  21
ATOM     21  C   UNL     1       1.113   8.620  20.261  0.00  0.00    +0.000 C 
BRANCH  21  22
ATOM     22  C   UNL     1       0.109   8.497  21.400  0.00  0.00    +0.000 C 
BRANCH  22  24
ATOM     23  N   UNL     1      -0.588  10.816  21.589  0.00  0.00    +0.000 N 
ATOM     24  C   UNL     1       0.108   9.784  22.195  0.00  0.00    +0.000 C 
ATOM     25  O   UNL     1       0.628   9.805  23.306  0.00  0.00    +0.000 OA
ATOM     26  H   UNL     1      -1.102  10.604  20.744  0.00  0.00    +0.000 HD
BRANCH  23  30
ATOM     27  C   UNL     1      -1.135  14.668  23.257  0.00  0.00    +0.000 A 
ATOM     28  C   UNL     1      -0.086  14.438  22.369  0.00  0.00    +0.000 A 
ATOM     29  C   UNL     1       0.099  13.179  21.794  0.00  0.00    +0.000 A 
ATOM     30  C   UNL     1      -0.753  12.120  22.112  0.00  0.00    +0.000 A 
ATOM     31  C   UNL     1      -1.817  12.355  22.990  0.00  0.00    +0.000 A 
ATOM     32  C   UNL     1      -2.000  13.621  23.571  0.00  0.00    +0.000 A 
BRANCH  27  34
ATOM     33  C   UNL     1      -0.045  16.749  23.533  0.00  0.00    +0.000 C 
ATOM     34  O   UNL     1      -1.182  15.930  23.773  0.00  0.00    +0.000 OA
ENDBRANCH  27  34
ENDBRANCH  23  30
ENDBRANCH  22  24
ENDBRANCH  21  22
ENDBRANCH   1  21
TORSDOF 9
ENDMDL
MODEL 9
REMARK VINA RESULT:      -8.0      5.662      7.644
REMARK  Name = 
REMARK  11 active torsions:
REMARK  status: ('A' for Active; 'I' for Inactive)
REMARK    1  A    between atoms: C_1  and  O_2
REMARK    2  A    between atoms: O_2  and  C_3
REMARK    3  A    between atoms: C_6  and  N_7
REMARK    4  A    between atoms: C_8  and  C_10
REMARK    5  A    between atoms: C_10  and  C_11
REMARK    6  A    between atoms: C_11  and  C_12
REMARK    7  A    between atoms: C_14  and  C_15
REMARK    8  A    between atoms: C_18  and  O_19
REMARK    9  A    between atoms: C_20  and  O_21
REMARK   10  A    between atoms: O_21  and  C_22
REMARK   11  A    between atoms: N_26  and  C_27
REMARK                            x       y       z     vdW  Elec       q    Type
REMARK                         _______ _______ _______ _____ _____    ______ ____
ROOT
ATOM      1  C   UNL     1       1.872   7.336  19.946  0.00  0.00    +0.000 A 
ATOM      2  C   UNL     1       2.781   7.226  18.916  0.00  0.00    +0.000 A 
ATOM      3  C   UNL     1       3.453   6.026  18.800  0.00  0.00    +0.000 A 
ATOM      4  N   UNL     1       3.177   4.988  19.617  0.00  0.00    +0.000 NA
ATOM      5  C   UNL     1       2.270   5.161  20.587  0.00  0.00    +0.000 A 
ATOM      6  N   UNL     1       1.936   4.115  21.436  0.00  0.00    +0.000 N 
ATOM      7  N   UNL     1       1.618   6.316  20.793  0.00  0.00    +0.000 NA
ATOM      8  H   UNL     1       1.593   4.482  22.309  0.00  0.00    +0.000 HD
ENDROOT
BRANCH   3   9
ATOM      9  C   UNL     1       4.517   5.797  17.798  0.00  0.00    +0.000 A 
ATOM     10  C   UNL     1       4.447   4.716  16.901  0.00  0.00    +0.000 A 
ATOM     11  C   UNL     1       5.445   4.495  15.949  0.00  0.00    +0.000 A 
ATOM     12  C   UNL     1       6.540   5.353  15.887  0.00  0.00    +0.000 A 
ATOM     13  C   UNL     1       6.661   6.427  16.774  0.00  0.00    +0.000 A 
ATOM     14  C   UNL     1       5.650   6.635  17.720  0.00  0.00    +0.000 A 
BRANCH  12  15
ATOM     15  O   UNL     1       7.516   5.144  14.951  0.00  0.00    +0.000 OA
ATOM     16  H   UNL     1       7.229   5.523  14.104  0.00  0.00    +0.000 HD
ENDBRANCH  12  15
BRANCH  13  17
ATOM     17  O   UNL     1       7.784   7.202  16.648  0.00  0.00    +0.000 OA
ATOM     18  C   UNL     1       7.995   8.217  17.620  0.00  0.00    +0.000 C 
ENDBRANCH  13  17
ENDBRANCH   3   9
BRANCH   6  19
ATOM     19  C   UNL     1       2.740   2.928  21.430  0.00  0.00    +0.000 C 
ATOM     20  N   UNL     1       3.436   2.007  21.381  0.00  0.00    +0.000 NA
ENDBRANCH   6  19
BRANCH   1  21
ATOM     21  C   UNL     1       1.117   8.621  20.155  0.00  0.00    +0.000 C 
BRANCH  21  22
ATOM     22  C   UNL     1       1.165   9.520  18.926  0.00  0.00    +0.000 C 
BRANCH  22  24
ATOM     23  N   UNL     1       1.152  11.874  18.328  0.00  0.00    +0.000 N 
ATOM     24  C   UNL     1       1.126  10.965  19.372  0.00  0.00    +0.000 C 
ATOM     25  O   UNL     1       0.999  11.223  20.565  0.00  0.00    +0.000 OA
ATOM     26  H   UNL     1       1.097  11.510  17.386  0.00  0.00    +0.000 HD
BRANCH  23  30
ATOM     27  C   UNL     1       0.950  16.077  18.787  0.00  0.00    +0.000 A 
ATOM     28  C   UNL     1       2.186  15.456  18.608  0.00  0.00    +0.000 A 
ATOM     29  C   UNL     1       2.269  14.073  18.436  0.00  0.00    +0.000 A 
ATOM     30  C   UNL     1       1.120  13.282  18.459  0.00  0.00    +0.000 A 
ATOM     31  C   UNL     1      -0.122  13.908  18.620  0.00  0.00    +0.000 A 
ATOM     32  C   UNL     1      -0.206  15.299  18.797  0.00  0.00    +0.000 A 
BRANCH  27  34
ATOM     33  C   UNL     1       1.976  17.885  19.916  0.00  0.00    +0.000 C 
ATOM     34  O   UNL     1       1.011  17.427  18.978  0.00  0.00    +0.000 OA
ENDBRANCH  27  34
ENDBRANCH  23  30
ENDBRANCH  22  24
ENDBRANCH  21  22
ENDBRANCH   1  21
TORSDOF 9
ENDMDL
