MODEL 1
REMARK VINA RESULT:      -7.9      0.000      0.000
REMARK  Name = 
REMARK  2 active torsions:
REMARK  status: ('A' for Active; 'I' for Inactive)
REMARK    1  A    between atoms: C_2  and  C_14
REMARK    2  A    between atoms: N_3  and  C_4
REMARK                            x       y       z     vdW  Elec       q    Type
REMARK                         _______ _______ _______ _____ _____    ______ ____
ROOT
ATOM      1  O   UNL     1       2.500   8.432  17.090  0.00  0.00    +0.000 OA
ATOM      2  C   UNL     1       2.349   7.932  18.205  0.00  0.00    +0.000 C 
ATOM      3  N   UNL     1       2.804   6.661  18.487  0.00  0.00    +0.000 N 
ATOM      4  H   UNL     1       2.619   6.300  19.417  0.00  0.00    +0.000 HD
ENDROOT
BRANCH   3   5
ATOM      5  C   UNL     1       3.517   5.830  17.529  0.00  0.00    +0.000 C 
ATOM      6  C   UNL     1       3.094   4.360  17.654  0.00  0.00    +0.000 C 
ATOM      7  C   UNL     1       3.595   3.761  18.965  0.00  0.00    +0.000 C 
ATOM      8  C   UNL     1       5.117   3.825  19.062  0.00  0.00    +0.000 C 
ATOM      9  C   UNL     1       5.717   5.129  18.592  0.00  0.00    +0.000 A 
ATOM     10  C   UNL     1       7.047   5.427  18.923  0.00  0.00    +0.000 A 
ATOM     11  C   UNL     1       7.662   6.580  18.429  0.00  0.00    +0.000 A 
ATOM     12  C   UNL     1       6.968   7.428  17.573  0.00  0.00    +0.000 A 
ATOM     13  C   UNL     1       5.642   7.149  17.245  0.00  0.00    +0.000 A 
ATOM     14  C   UNL     1       4.999   6.013  17.767  0.00  0.00    +0.000 A 
ENDBRANCH   3   5
BRANCH   2  15
ATOM     15  C   UNL     1       1.714   8.595  19.343  0.00  0.00    +0.000 A 
ATOM     16  N   UNL     1       1.196   9.810  19.282  0.00  0.00    +0.000 NA
ATOM     17  C   UNL     1       0.592  10.111  20.497  0.00  0.00    +0.000 A 
ATOM     18  C   UNL     1      -0.102  11.300  20.811  0.00  0.00    +0.000 A 
ATOM     19  C   UNL     1      -0.699  11.450  22.070  0.00  0.00    +0.000 A 
ATOM     20  C   UNL     1      -0.597  10.443  23.023  0.00  0.00    +0.000 A 
ATOM     21  C   UNL     1       0.102   9.265  22.746  0.00  0.00    +0.000 A 
ATOM     22  C   UNL     1       0.684   9.118  21.476  0.00  0.00    +0.000 A 
ATOM     23  S   UNL     1       1.573   7.788  20.845  0.00  0.00    +0.000 S 
ENDBRANCH   2  15
TORSDOF 2
ENDMDL
MODEL 2
REMARK VINA RESULT:      -7.7      0.908      1.365
REMARK  Name = 
REMARK  2 active torsions:
REMARK  status: ('A' for Active; 'I' for Inactive)
REMARK    1  A    between atoms: C_2  and  C_14
REMARK    2  A    between atoms: N_3  and  C_4
REMARK                            x       y       z     vdW  Elec       q    Type
REMARK                         _______ _______ _______ _____ _____    ______ ____
ROOT
ATOM      1  O   UNL     1       2.890   8.277  16.809  0.00  0.00    +0.000 OA
ATOM      2  C   UNL     1       2.612   7.796  17.908  0.00  0.00    +0.000 C 
ATOM      3  N   UNL     1       3.041   6.536  18.266  0.00  0.00    +0.000 N 
ATOM      4  H   UNL     1       2.750   6.190  19.175  0.00  0.00    +0.000 HD
ENDROOT
BRANCH   3   5
ATOM      5  C   UNL     1       3.869   5.694  17.416  0.00  0.00    +0.000 C 
ATOM      6  C   UNL     1       3.502   4.214  17.582  0.00  0.00    +0.000 C 
ATOM      7  C   UNL     1       3.914   3.704  18.961  0.00  0.00    +0.000 C 
ATOM      8  C   UNL     1       5.419   3.846  19.180  0.00  0.00    +0.000 C 
ATOM      9  C   UNL     1       5.999   5.152  18.694  0.00  0.00    +0.000 A 
ATOM     10  C   UNL     1       7.282   5.531  19.117  0.00  0.00    +0.000 A 
ATOM     11  C   UNL     1       7.885   6.686  18.616  0.00  0.00    +0.000 A 
ATOM     12  C   UNL     1       7.230   7.456  17.661  0.00  0.00    +0.000 A 
ATOM     13  C   UNL     1       5.950   7.098  17.240  0.00  0.00    +0.000 A 
ATOM     14  C   UNL     1       5.316   5.960  17.766  0.00  0.00    +0.000 A 
ENDBRANCH   3   5
BRANCH   2  15
ATOM     15  C   UNL     1       1.843   8.474  18.949  0.00  0.00    +0.000 A 
ATOM     16  N   UNL     1       1.723   8.014  20.183  0.00  0.00    +0.000 NA
ATOM     17  C   UNL     1       1.010   8.931  20.946  0.00  0.00    +0.000 A 
ATOM     18  C   UNL     1       0.708   8.816  22.321  0.00  0.00    +0.000 A 
ATOM     19  C   UNL     1       0.013   9.844  22.972  0.00  0.00    +0.000 A 
ATOM     20  C   UNL     1      -0.401  10.971  22.271  0.00  0.00    +0.000 A 
ATOM     21  C   UNL     1      -0.134  11.100  20.905  0.00  0.00    +0.000 A 
ATOM     22  C   UNL     1       0.577  10.072  20.264  0.00  0.00    +0.000 A 
ATOM     23  S   UNL     1       1.067   9.963  18.620  0.00  0.00    +0.000 S 
ENDBRANCH   2  15
TORSDOF 2
ENDMDL
MODEL 3
REMARK VINA RESULT:      -7.2      2.204      3.128
REMARK  Name = 
REMARK  2 active torsions:
REMARK  status: ('A' for Active; 'I' for Inactive)
REMARK    1  A    between atoms: C_2  and  C_14
REMARK    2  A    between atoms: N_3  and  C_4
REMARK                            x       y       z     vdW  Elec       q    Type
REMARK                         _______ _______ _______ _____ _____    ______ ____
ROOT
ATOM      1  O   UNL     1       2.745   4.888  20.297  0.00  0.00    +0.000 OA
ATOM      2  C   UNL     1       3.037   5.822  19.549  0.00  0.00    +0.000 C 
ATOM      3  N   UNL     1       4.085   5.725  18.659  0.00  0.00    +0.000 N 
ATOM      4  H   UNL     1       4.289   6.544  18.094  0.00  0.00    +0.000 HD
ENDROOT
BRANCH   3   5
ATOM      5  C   UNL     1       4.899   4.530  18.500  0.00  0.00    +0.000 C 
ATOM      6  C   UNL     1       5.971   4.444  19.594  0.00  0.00    +0.000 C 
ATOM      7  C   UNL     1       7.029   5.527  19.404  0.00  0.00    +0.000 C 
ATOM      8  C   UNL     1       7.725   5.395  18.051  0.00  0.00    +0.000 C 
ATOM      9  C   UNL     1       6.796   5.088  16.900  0.00  0.00    +0.000 A 
ATOM     10  C   UNL     1       7.256   5.256  15.586  0.00  0.00    +0.000 A 
ATOM     11  C   UNL     1       6.457   4.895  14.500  0.00  0.00    +0.000 A 
ATOM     12  C   UNL     1       5.204   4.330  14.714  0.00  0.00    +0.000 A 
ATOM     13  C   UNL     1       4.729   4.168  16.014  0.00  0.00    +0.000 A 
ATOM     14  C   UNL     1       5.508   4.563  17.115  0.00  0.00    +0.000 A 
ENDBRANCH   3   5
BRANCH   2  15
ATOM     15  C   UNL     1       2.329   7.099  19.488  0.00  0.00    +0.000 A 
ATOM     16  N   UNL     1       1.653   7.607  20.505  0.00  0.00    +0.000 NA
ATOM     17  C   UNL     1       1.178   8.866  20.156  0.00  0.00    +0.000 A 
ATOM     18  C   UNL     1       0.443   9.740  20.987  0.00  0.00    +0.000 A 
ATOM     19  C   UNL     1       0.064  11.002  20.511  0.00  0.00    +0.000 A 
ATOM     20  C   UNL     1       0.389  11.396  19.218  0.00  0.00    +0.000 A 
ATOM     21  C   UNL     1       1.097  10.542  18.367  0.00  0.00    +0.000 A 
ATOM     22  C   UNL     1       1.486   9.285  18.858  0.00  0.00    +0.000 A 
ATOM     23  S   UNL     1       2.376   8.046  18.064  0.00  0.00    +0.000 S 
ENDBRANCH   2  15
TORSDOF 2
ENDMDL
MODEL 4
REMARK VINA RESULT:      -6.8      4.171      8.112
REMARK  Name = 
REMARK  2 active torsions:
REMARK  status: ('A' for Active; 'I' for Inactive)
REMARK    1  A    between atoms: C_2  and  C_14
REMARK    2  A    between atoms: N_3  and  C_4
REMARK                            x       y       z     vdW  Elec       q    Type
REMARK                         _______ _______ _______ _____ _____    ______ ____
ROOT
ATOM      1  O   UNL     1       7.080   4.826  18.539  0.00  0.00    +0.000 OA
ATOM      2  C   UNL     1       6.292   4.338  17.728  0.00  0.00    +0.000 C 
ATOM      3  N   UNL     1       5.158   3.674  18.144  0.00  0.00    +0.000 N 
ATOM      4  H   UNL     1       4.568   3.270  17.422  0.00  0.00    +0.000 HD
ENDROOT
BRANCH   3   5
ATOM      5  C   UNL     1       4.778   3.523  19.540  0.00  0.00    +0.000 C 
ATOM      6  C   UNL     1       4.629   2.042  19.913  0.00  0.00    +0.000 C 
ATOM      7  C   UNL     1       3.410   1.430  19.227  0.00  0.00    +0.000 C 
ATOM      8  C   UNL     1       2.124   2.150  19.629  0.00  0.00    +0.000 C 
ATOM      9  C   UNL     1       2.242   3.655  19.677  0.00  0.00    +0.000 A 
ATOM     10  C   UNL     1       1.075   4.431  19.718  0.00  0.00    +0.000 A 
ATOM     11  C   UNL     1       1.147   5.819  19.854  0.00  0.00    +0.000 A 
ATOM     12  C   UNL     1       2.383   6.443  19.986  0.00  0.00    +0.000 A 
ATOM     13  C   UNL     1       3.552   5.685  19.935  0.00  0.00    +0.000 A 
ATOM     14  C   UNL     1       3.494   4.292  19.759  0.00  0.00    +0.000 A 
ENDBRANCH   3   5
BRANCH   2  15
ATOM     15  C   UNL     1       6.431   4.412  16.275  0.00  0.00    +0.000 A 
ATOM     16  N   UNL     1       7.273   5.229  15.664  0.00  0.00    +0.000 NA
ATOM     17  C   UNL     1       7.230   4.990  14.295  0.00  0.00    +0.000 A 
ATOM     18  C   UNL     1       8.011   5.636  13.312  0.00  0.00    +0.000 A 
ATOM     19  C   UNL     1       7.890   5.262  11.967  0.00  0.00    +0.000 A 
ATOM     20  C   UNL     1       6.991   4.271  11.588  0.00  0.00    +0.000 A 
ATOM     21  C   UNL     1       6.191   3.631  12.539  0.00  0.00    +0.000 A 
ATOM     22  C   UNL     1       6.331   4.002  13.886  0.00  0.00    +0.000 A 
ATOM     23  S   UNL     1       5.510   3.383  15.265  0.00  0.00    +0.000 S 
ENDBRANCH   2  15
TORSDOF 2
ENDMDL
MODEL 5
REMARK VINA RESULT:      -6.8      2.075      3.018
REMARK  Name = 
REMARK  2 active torsions:
REMARK  status: ('A' for Active; 'I' for Inactive)
REMARK    1  A    between atoms: C_2  and  C_14
REMARK    2  A    between atoms: N_3  and  C_4
REMARK                            x       y       z     vdW  Elec       q    Type
REMARK                         _______ _______ _______ _____ _____    ______ ____
ROOT
ATOM      1  O   UNL     1       2.596   4.798  20.203  0.00  0.00    +0.000 OA
ATOM      2  C   UNL     1       2.990   5.791  19.590  0.00  0.00    +0.000 C 
ATOM      3  N   UNL     1       4.113   5.741  18.793  0.00  0.00    +0.000 N 
ATOM      4  H   UNL     1       4.398   6.604  18.341  0.00  0.00    +0.000 HD
ENDROOT
BRANCH   3   5
ATOM      5  C   UNL     1       4.896   4.533  18.578  0.00  0.00    +0.000 C 
ATOM      6  C   UNL     1       6.001   4.399  19.635  0.00  0.00    +0.000 C 
ATOM      7  C   UNL     1       7.075   5.464  19.435  0.00  0.00    +0.000 C 
ATOM      8  C   UNL     1       7.724   5.350  18.057  0.00  0.00    +0.000 C 
ATOM      9  C   UNL     1       6.752   5.091  16.931  0.00  0.00    +0.000 A 
ATOM     10  C   UNL     1       7.173   5.281  15.607  0.00  0.00    +0.000 A 
ATOM     11  C   UNL     1       6.331   4.963  14.539  0.00  0.00    +0.000 A 
ATOM     12  C   UNL     1       5.074   4.419  14.781  0.00  0.00    +0.000 A 
ATOM     13  C   UNL     1       4.638   4.235  16.092  0.00  0.00    +0.000 A 
ATOM     14  C   UNL     1       5.461   4.588  17.176  0.00  0.00    +0.000 A 
ENDBRANCH   3   5
BRANCH   2  15
ATOM     15  C   UNL     1       2.337   7.098  19.605  0.00  0.00    +0.000 A 
ATOM     16  N   UNL     1       2.333   7.922  18.571  0.00  0.00    +0.000 NA
ATOM     17  C   UNL     1       1.553   9.033  18.873  0.00  0.00    +0.000 A 
ATOM     18  C   UNL     1       1.275  10.116  18.012  0.00  0.00    +0.000 A 
ATOM     19  C   UNL     1       0.435  11.152  18.440  0.00  0.00    +0.000 A 
ATOM     20  C   UNL     1      -0.115  11.133  19.717  0.00  0.00    +0.000 A 
ATOM     21  C   UNL     1       0.162  10.083  20.598  0.00  0.00    +0.000 A 
ATOM     22  C   UNL     1       0.992   9.041  20.154  0.00  0.00    +0.000 A 
ATOM     23  S   UNL     1       1.485   7.623  20.992  0.00  0.00    +0.000 S 
ENDBRANCH   2  15
TORSDOF 2
ENDMDL
MODEL 6
REMARK VINA RESULT:      -6.7      2.446      4.185
REMARK  Name = 
REMARK  2 active torsions:
REMARK  status: ('A' for Active; 'I' for Inactive)
REMARK    1  A    between atoms: C_2  and  C_14
REMARK    2  A    between atoms: N_3  and  C_4
REMARK                            x       y       z     vdW  Elec       q    Type
REMARK                         _______ _______ _______ _____ _____    ______ ____
ROOT
ATOM      1  O   UNL     1       2.040   7.981  21.597  0.00  0.00    +0.000 OA
ATOM      2  C   UNL     1       1.711   8.102  20.417  0.00  0.00    +0.000 C 
ATOM      3  N   UNL     1       2.225   7.274  19.442  0.00  0.00    +0.000 N 
ATOM      4  H   UNL     1       1.933   7.449  18.486  0.00  0.00    +0.000 HD
ENDROOT
BRANCH   3   5
ATOM      5  C   UNL     1       3.153   6.187  19.715  0.00  0.00    +0.000 C 
ATOM      6  C   UNL     1       4.390   6.280  18.812  0.00  0.00    +0.000 C 
ATOM      7  C   UNL     1       4.027   5.975  17.361  0.00  0.00    +0.000 C 
ATOM      8  C   UNL     1       3.440   4.572  17.216  0.00  0.00    +0.000 C 
ATOM      9  C   UNL     1       2.456   4.194  18.298  0.00  0.00    +0.000 A 
ATOM     10  C   UNL     1       1.623   3.082  18.106  0.00  0.00    +0.000 A 
ATOM     11  C   UNL     1       0.768   2.649  19.121  0.00  0.00    +0.000 A 
ATOM     12  C   UNL     1       0.760   3.300  20.350  0.00  0.00    +0.000 A 
ATOM     13  C   UNL     1       1.574   4.413  20.551  0.00  0.00    +0.000 A 
ATOM     14  C   UNL     1       2.411   4.883  19.524  0.00  0.00    +0.000 A 
ENDBRANCH   3   5
BRANCH   2  15
ATOM     15  C   UNL     1       0.752   9.082  19.911  0.00  0.00    +0.000 A 
ATOM     16  N   UNL     1       0.344   9.120  18.654  0.00  0.00    +0.000 NA
ATOM     17  C   UNL     1      -0.630  10.103  18.518  0.00  0.00    +0.000 A 
ATOM     18  C   UNL     1      -1.335  10.421  17.337  0.00  0.00    +0.000 A 
ATOM     19  C   UNL     1      -2.323  11.414  17.359  0.00  0.00    +0.000 A 
ATOM     20  C   UNL     1      -2.605  12.104  18.532  0.00  0.00    +0.000 A 
ATOM     21  C   UNL     1      -1.907  11.824  19.711  0.00  0.00    +0.000 A 
ATOM     22  C   UNL     1      -0.929  10.816  19.683  0.00  0.00    +0.000 A 
ATOM     23  S   UNL     1       0.062  10.240  20.964  0.00  0.00    +0.000 S 
ENDBRANCH   2  15
TORSDOF 2
ENDMDL
MODEL 7
REMARK VINA RESULT:      -6.7      2.533      7.252
REMARK  Name = 
REMARK  2 active torsions:
REMARK  status: ('A' for Active; 'I' for Inactive)
REMARK    1  A    between atoms: C_2  and  C_14
REMARK    2  A    between atoms: N_3  and  C_4
REMARK                            x       y       z     vdW  Elec       q    Type
REMARK                         _______ _______ _______ _____ _____    ______ ____
ROOT
ATOM      1  O   UNL     1       2.681   8.863  17.137  0.00  0.00    +0.000 OA
ATOM      2  C   UNL     1       2.223   8.456  18.205  0.00  0.00    +0.000 C 
ATOM      3  N   UNL     1       1.377   9.236  18.965  0.00  0.00    +0.000 N 
ATOM      4  H   UNL     1       1.061   8.850  19.849  0.00  0.00    +0.000 HD
ENDROOT
BRANCH   3   5
ATOM      5  C   UNL     1       0.931  10.563  18.568  0.00  0.00    +0.000 C 
ATOM      6  C   UNL     1       1.262  11.601  19.648  0.00  0.00    +0.000 C 
ATOM      7  C   UNL     1       0.406  11.383  20.892  0.00  0.00    +0.000 C 
ATOM      8  C   UNL     1      -1.083  11.494  20.570  0.00  0.00    +0.000 C 
ATOM      9  C   UNL     1      -1.496  10.816  19.286  0.00  0.00    +0.000 A 
ATOM     10  C   UNL     1      -2.857  10.575  19.046  0.00  0.00    +0.000 A 
ATOM     11  C   UNL     1      -3.281  10.034  17.831  0.00  0.00    +0.000 A 
ATOM     12  C   UNL     1      -2.355   9.760  16.829  0.00  0.00    +0.000 A 
ATOM     13  C   UNL     1      -0.998   9.983  17.058  0.00  0.00    +0.000 A 
ATOM     14  C   UNL     1      -0.555  10.491  18.291  0.00  0.00    +0.000 A 
ENDBRANCH   3   5
BRANCH   2  15
ATOM     15  C   UNL     1       2.482   7.138  18.781  0.00  0.00    +0.000 A 
ATOM     16  N   UNL     1       1.960   6.726  19.923  0.00  0.00    +0.000 NA
ATOM     17  C   UNL     1       2.326   5.403  20.143  0.00  0.00    +0.000 A 
ATOM     18  C   UNL     1       1.934   4.600  21.237  0.00  0.00    +0.000 A 
ATOM     19  C   UNL     1       2.349   3.264  21.307  0.00  0.00    +0.000 A 
ATOM     20  C   UNL     1       3.161   2.724  20.316  0.00  0.00    +0.000 A 
ATOM     21  C   UNL     1       3.581   3.503  19.234  0.00  0.00    +0.000 A 
ATOM     22  C   UNL     1       3.147   4.837  19.164  0.00  0.00    +0.000 A 
ATOM     23  S   UNL     1       3.476   6.016  17.957  0.00  0.00    +0.000 S 
ENDBRANCH   2  15
TORSDOF 2
ENDMDL
MODEL 8
REMARK VINA RESULT:      -6.6      2.349      3.880
REMARK  Name = 
REMARK  2 active torsions:
REMARK  status: ('A' for Active; 'I' for Inactive)
REMARK    1  A    between atoms: C_2  and  C_14
REMARK    2  A    between atoms: N_3  and  C_4
REMARK                            x       y       z     vdW  Elec       q    Type
REMARK                         _______ _______ _______ _____ _____    ______ ____
ROOT
ATOM      1  O   UNL     1       2.616   8.560  18.480  0.00  0.00    +0.000 OA
ATOM      2  C   UNL     1       1.923   8.262  19.454  0.00  0.00    +0.000 C 
ATOM      3  N   UNL     1       2.024   7.024  20.052  0.00  0.00    +0.000 N 
ATOM      4  H   UNL     1       1.401   6.835  20.831  0.00  0.00    +0.000 HD
ENDROOT
BRANCH   3   5
ATOM      5  C   UNL     1       2.958   5.995  19.622  0.00  0.00    +0.000 C 
ATOM      6  C   UNL     1       3.118   6.000  18.096  0.00  0.00    +0.000 C 
ATOM      7  C   UNL     1       1.841   5.515  17.416  0.00  0.00    +0.000 C 
ATOM      8  C   UNL     1       1.483   4.095  17.849  0.00  0.00    +0.000 C 
ATOM      9  C   UNL     1       1.653   3.833  19.327  0.00  0.00    +0.000 A 
ATOM     10  C   UNL     1       1.066   2.691  19.891  0.00  0.00    +0.000 A 
ATOM     11  C   UNL     1       1.279   2.370  21.233  0.00  0.00    +0.000 A 
ATOM     12  C   UNL     1       2.109   3.165  22.016  0.00  0.00    +0.000 A 
ATOM     13  C   UNL     1       2.691   4.308  21.471  0.00  0.00    +0.000 A 
ATOM     14  C   UNL     1       2.452   4.665  20.133  0.00  0.00    +0.000 A 
ENDBRANCH   3   5
BRANCH   2  15
ATOM     15  C   UNL     1       0.956   9.149  20.097  0.00  0.00    +0.000 A 
ATOM     16  N   UNL     1       0.618   9.057  21.372  0.00  0.00    +0.000 NA
ATOM     17  C   UNL     1      -0.248  10.097  21.692  0.00  0.00    +0.000 A 
ATOM     18  C   UNL     1      -0.799  10.360  22.965  0.00  0.00    +0.000 A 
ATOM     19  C   UNL     1      -1.628  11.474  23.151  0.00  0.00    +0.000 A 
ATOM     20  C   UNL     1      -1.929  12.315  22.085  0.00  0.00    +0.000 A 
ATOM     21  C   UNL     1      -1.414  12.065  20.810  0.00  0.00    +0.000 A 
ATOM     22  C   UNL     1      -0.571  10.955  20.638  0.00  0.00    +0.000 A 
ATOM     23  S   UNL     1       0.221  10.415  19.210  0.00  0.00    +0.000 S 
ENDBRANCH   2  15
TORSDOF 2
ENDMDL
MODEL 9
REMARK VINA RESULT:      -6.5      2.732      7.363
REMARK  Name = 
REMARK  2 active torsions:
REMARK  status: ('A' for Active; 'I' for Inactive)
REMARK    1  A    between atoms: C_2  and  C_14
REMARK    2  A    between atoms: N_3  and  C_4
REMARK                            x       y       z     vdW  Elec       q    Type
REMARK                         _______ _______ _______ _____ _____    ______ ____
ROOT
ATOM      1  O   UNL     1       2.855   8.690  17.374  0.00  0.00    +0.000 OA
ATOM      2  C   UNL     1       2.082   8.293  18.247  0.00  0.00    +0.000 C 
ATOM      3  N   UNL     1       1.055   9.089  18.709  0.00  0.00    +0.000 N 
ATOM      4  H   UNL     1       0.475   8.710  19.450  0.00  0.00    +0.000 HD
ENDROOT
BRANCH   3   5
ATOM      5  C   UNL     1       0.776  10.422  18.197  0.00  0.00    +0.000 C 
ATOM      6  C   UNL     1       1.406  11.498  19.092  0.00  0.00    +0.000 C 
ATOM      7  C   UNL     1       0.696  11.565  20.441  0.00  0.00    +0.000 C 
ATOM      8  C   UNL     1      -0.785  11.897  20.276  0.00  0.00    +0.000 C 
ATOM      9  C   UNL     1      -1.465  11.165  19.143  0.00  0.00    +0.000 A 
ATOM     10  C   UNL     1      -2.866  11.138  19.088  0.00  0.00    +0.000 A 
ATOM     11  C   UNL     1      -3.526  10.550  18.007  0.00  0.00    +0.000 A 
ATOM     12  C   UNL     1      -2.794  10.014  16.952  0.00  0.00    +0.000 A 
ATOM     13  C   UNL     1      -1.401  10.024  16.998  0.00  0.00    +0.000 A 
ATOM     14  C   UNL     1      -0.725  10.577  18.100  0.00  0.00    +0.000 A 
ENDBRANCH   3   5
BRANCH   2  15
ATOM     15  C   UNL     1       2.129   6.972  18.870  0.00  0.00    +0.000 A 
ATOM     16  N   UNL     1       2.428   5.865  18.211  0.00  0.00    +0.000 NA
ATOM     17  C   UNL     1       2.477   4.800  19.103  0.00  0.00    +0.000 A 
ATOM     18  C   UNL     1       2.802   3.463  18.788  0.00  0.00    +0.000 A 
ATOM     19  C   UNL     1       2.851   2.498  19.803  0.00  0.00    +0.000 A 
ATOM     20  C   UNL     1       2.565   2.842  21.119  0.00  0.00    +0.000 A 
ATOM     21  C   UNL     1       2.219   4.154  21.455  0.00  0.00    +0.000 A 
ATOM     22  C   UNL     1       2.187   5.118  20.433  0.00  0.00    +0.000 A 
ATOM     23  S   UNL     1       1.826   6.795  20.544  0.00  0.00    +0.000 S 
ENDBRANCH   2  15
TORSDOF 2
ENDMDL
