MODEL 1
REMARK VINA RESULT:      -7.6      0.000      0.000
REMARK  Name = 
REMARK  3 active torsions:
REMARK  status: ('A' for Active; 'I' for Inactive)
REMARK    1  A    between atoms: C_6  and  C_7
REMARK    2  A    between atoms: C_7  and  C_8
REMARK    3  A    between atoms: C_8  and  N_9
REMARK                            x       y       z     vdW  Elec       q    Type
REMARK                         _______ _______ _______ _____ _____    ______ ____
ROOT
ATOM      1  C   UNL     1       3.438   4.484  18.190  0.00  0.00    +0.000 C 
ATOM      2  S   UNL     1       4.955   3.910  19.132  0.00  0.00    +0.000 S 
ATOM      3  C   UNL     1       4.299   2.348  19.766  0.00  0.00    +0.000 C 
ATOM      4  C   UNL     1       3.348   1.785  18.736  0.00  0.00    +0.000 C 
ATOM      5  S   UNL     1       2.182   3.102  18.318  0.00  0.00    +0.000 S 
ENDROOT
BRANCH   1  11
ATOM      6  C   UNL     1       0.848  10.377  19.734  0.00  0.00    +0.000 A 
ATOM      7  C   UNL     1       1.384  10.434  18.451  0.00  0.00    +0.000 A 
ATOM      8  C   UNL     1       2.003   9.309  17.905  0.00  0.00    +0.000 A 
ATOM      9  C   UNL     1       2.097   8.111  18.635  0.00  0.00    +0.000 A 
ATOM     10  C   UNL     1       2.706   6.962  18.090  0.00  0.00    +0.000 A 
ATOM     11  C   UNL     1       2.794   5.745  18.799  0.00  0.00    +0.000 A 
ATOM     12  C   UNL     1       2.320   5.756  20.123  0.00  0.00    +0.000 A 
ATOM     13  C   UNL     1       1.689   6.880  20.672  0.00  0.00    +0.000 A 
ATOM     14  C   UNL     1       1.565   8.061  19.937  0.00  0.00    +0.000 A 
ATOM     15  C   UNL     1       0.936   9.198  20.474  0.00  0.00    +0.000 A 
ENDBRANCH   1  11
BRANCH   1  16
ATOM     16  C   UNL     1       3.827   4.590  16.679  0.00  0.00    +0.000 C 
BRANCH  16  17
ATOM     17  N   UNL     1       5.230   4.852  16.394  0.00  0.00    +0.000 N 
ATOM     18  C   UNL     1       6.118   3.973  15.832  0.00  0.00    +0.000 A 
ATOM     19  C   UNL     1       7.306   4.660  15.764  0.00  0.00    +0.000 A 
ATOM     20  N   UNL     1       7.142   5.952  16.180  0.00  0.00    +0.000 NA
ATOM     21  C   UNL     1       5.878   6.047  16.524  0.00  0.00    +0.000 A 
ENDBRANCH  16  17
ENDBRANCH   1  16
TORSDOF 3
ENDMDL
MODEL 2
REMARK VINA RESULT:      -7.6      1.900      3.506
REMARK  Name = 
REMARK  3 active torsions:
REMARK  status: ('A' for Active; 'I' for Inactive)
REMARK    1  A    between atoms: C_6  and  C_7
REMARK    2  A    between atoms: C_7  and  C_8
REMARK    3  A    between atoms: C_8  and  N_9
REMARK                            x       y       z     vdW  Elec       q    Type
REMARK                         _______ _______ _______ _____ _____    ______ ____
ROOT
ATOM      1  C   UNL     1       4.448   5.278  17.553  0.00  0.00    +0.000 C 
ATOM      2  S   UNL     1       5.378   6.119  16.159  0.00  0.00    +0.000 S 
ATOM      3  C   UNL     1       7.050   5.983  16.835  0.00  0.00    +0.000 C 
ATOM      4  C   UNL     1       7.140   4.691  17.613  0.00  0.00    +0.000 C 
ATOM      5  S   UNL     1       5.742   4.668  18.761  0.00  0.00    +0.000 S 
ENDROOT
BRANCH   1  11
ATOM      6  C   UNL     1       0.439  10.018  19.850  0.00  0.00    +0.000 A 
ATOM      7  C   UNL     1       0.862  10.358  18.568  0.00  0.00    +0.000 A 
ATOM      8  C   UNL     1       1.732   9.513  17.877  0.00  0.00    +0.000 A 
ATOM      9  C   UNL     1       2.194   8.319  18.458  0.00  0.00    +0.000 A 
ATOM     10  C   UNL     1       3.061   7.449  17.766  0.00  0.00    +0.000 A 
ATOM     11  C   UNL     1       3.520   6.238  18.323  0.00  0.00    +0.000 A 
ATOM     12  C   UNL     1       3.140   5.977  19.652  0.00  0.00    +0.000 A 
ATOM     13  C   UNL     1       2.259   6.815  20.347  0.00  0.00    +0.000 A 
ATOM     14  C   UNL     1       1.773   7.986  19.759  0.00  0.00    +0.000 A 
ATOM     15  C   UNL     1       0.890   8.840  20.443  0.00  0.00    +0.000 A 
ENDBRANCH   1  11
BRANCH   1  16
ATOM     16  C   UNL     1       3.758   4.004  16.964  0.00  0.00    +0.000 C 
BRANCH  16  17
ATOM     17  N   UNL     1       2.803   3.332  17.832  0.00  0.00    +0.000 N 
ATOM     18  C   UNL     1       1.449   3.542  17.859  0.00  0.00    +0.000 A 
ATOM     19  C   UNL     1       0.975   2.692  18.829  0.00  0.00    +0.000 A 
ATOM     20  N   UNL     1       1.982   1.910  19.322  0.00  0.00    +0.000 NA
ATOM     21  C   UNL     1       3.064   2.296  18.683  0.00  0.00    +0.000 A 
ENDBRANCH  16  17
ENDBRANCH   1  16
TORSDOF 3
ENDMDL
MODEL 3
REMARK VINA RESULT:      -7.5      2.106      3.994
REMARK  Name = 
REMARK  3 active torsions:
REMARK  status: ('A' for Active; 'I' for Inactive)
REMARK    1  A    between atoms: C_6  and  C_7
REMARK    2  A    between atoms: C_7  and  C_8
REMARK    3  A    between atoms: C_8  and  N_9
REMARK                            x       y       z     vdW  Elec       q    Type
REMARK                         _______ _______ _______ _____ _____    ______ ____
ROOT
ATOM      1  C   UNL     1       4.812   4.871  18.344  0.00  0.00    +0.000 C 
ATOM      2  S   UNL     1       5.039   4.320  16.565  0.00  0.00    +0.000 S 
ATOM      3  C   UNL     1       6.776   4.780  16.363  0.00  0.00    +0.000 C 
ATOM      4  C   UNL     1       7.473   4.580  17.689  0.00  0.00    +0.000 C 
ATOM      5  S   UNL     1       6.492   5.446  18.937  0.00  0.00    +0.000 S 
ENDROOT
BRANCH   1  11
ATOM      6  C   UNL     1       0.499   9.591  20.058  0.00  0.00    +0.000 A 
ATOM      7  C   UNL     1       0.604   8.668  21.094  0.00  0.00    +0.000 A 
ATOM      8  C   UNL     1       1.449   7.565  20.961  0.00  0.00    +0.000 A 
ATOM      9  C   UNL     1       2.200   7.369  19.788  0.00  0.00    +0.000 A 
ATOM     10  C   UNL     1       3.069   6.268  19.646  0.00  0.00    +0.000 A 
ATOM     11  C   UNL     1       3.844   6.062  18.485  0.00  0.00    +0.000 A 
ATOM     12  C   UNL     1       3.642   6.968  17.429  0.00  0.00    +0.000 A 
ATOM     13  C   UNL     1       2.803   8.082  17.561  0.00  0.00    +0.000 A 
ATOM     14  C   UNL     1       2.082   8.298  18.738  0.00  0.00    +0.000 A 
ATOM     15  C   UNL     1       1.233   9.409  18.886  0.00  0.00    +0.000 A 
ENDBRANCH   1  11
BRANCH   1  16
ATOM     16  C   UNL     1       4.453   3.607  19.192  0.00  0.00    +0.000 C 
BRANCH  16  17
ATOM     17  N   UNL     1       3.049   3.226  19.212  0.00  0.00    +0.000 N 
ATOM     18  C   UNL     1       2.304   2.829  18.134  0.00  0.00    +0.000 A 
ATOM     19  C   UNL     1       1.050   2.579  18.638  0.00  0.00    +0.000 A 
ATOM     20  N   UNL     1       1.038   2.721  19.998  0.00  0.00    +0.000 NA
ATOM     21  C   UNL     1       2.261   3.080  20.318  0.00  0.00    +0.000 A 
ENDBRANCH  16  17
ENDBRANCH   1  16
TORSDOF 3
ENDMDL
MODEL 4
REMARK VINA RESULT:      -7.4      1.353      2.170
REMARK  Name = 
REMARK  3 active torsions:
REMARK  status: ('A' for Active; 'I' for Inactive)
REMARK    1  A    between atoms: C_6  and  C_7
REMARK    2  A    between atoms: C_7  and  C_8
REMARK    3  A    between atoms: C_8  and  N_9
REMARK                            x       y       z     vdW  Elec       q    Type
REMARK                         _______ _______ _______ _____ _____    ______ ____
ROOT
ATOM      1  C   UNL     1       3.719   4.519  19.003  0.00  0.00    +0.000 C 
ATOM      2  S   UNL     1       2.918   3.344  20.225  0.00  0.00    +0.000 S 
ATOM      3  C   UNL     1       2.235   2.157  19.042  0.00  0.00    +0.000 C 
ATOM      4  C   UNL     1       3.179   2.068  17.866  0.00  0.00    +0.000 C 
ATOM      5  S   UNL     1       3.487   3.760  17.307  0.00  0.00    +0.000 S 
ENDROOT
BRANCH   1  11
ATOM      6  C   UNL     1       0.640  10.286  20.042  0.00  0.00    +0.000 A 
ATOM      7  C   UNL     1       0.564   9.512  21.197  0.00  0.00    +0.000 A 
ATOM      8  C   UNL     1       1.133   8.238  21.218  0.00  0.00    +0.000 A 
ATOM      9  C   UNL     1       1.785   7.719  20.085  0.00  0.00    +0.000 A 
ATOM     10  C   UNL     1       2.377   6.440  20.097  0.00  0.00    +0.000 A 
ATOM     11  C   UNL     1       3.051   5.908  18.977  0.00  0.00    +0.000 A 
ATOM     12  C   UNL     1       3.028   6.686  17.806  0.00  0.00    +0.000 A 
ATOM     13  C   UNL     1       2.467   7.969  17.781  0.00  0.00    +0.000 A 
ATOM     14  C   UNL     1       1.848   8.500  18.916  0.00  0.00    +0.000 A 
ATOM     15  C   UNL     1       1.279   9.786  18.908  0.00  0.00    +0.000 A 
ENDBRANCH   1  11
BRANCH   1  16
ATOM     16  C   UNL     1       5.258   4.519  19.280  0.00  0.00    +0.000 C 
BRANCH  16  17
ATOM     17  N   UNL     1       6.101   5.070  18.230  0.00  0.00    +0.000 N 
ATOM     18  C   UNL     1       6.503   6.375  18.118  0.00  0.00    +0.000 A 
ATOM     19  C   UNL     1       7.271   6.416  16.980  0.00  0.00    +0.000 A 
ATOM     20  N   UNL     1       7.423   5.163  16.453  0.00  0.00    +0.000 NA
ATOM     21  C   UNL     1       6.734   4.370  17.242  0.00  0.00    +0.000 A 
ENDBRANCH  16  17
ENDBRANCH   1  16
TORSDOF 3
ENDMDL
MODEL 5
REMARK VINA RESULT:      -7.4      2.015      3.875
REMARK  Name = 
REMARK  3 active torsions:
REMARK  status: ('A' for Active; 'I' for Inactive)
REMARK    1  A    between atoms: C_6  and  C_7
REMARK    2  A    between atoms: C_7  and  C_8
REMARK    3  A    between atoms: C_8  and  N_9
REMARK                            x       y       z     vdW  Elec       q    Type
REMARK                         _______ _______ _______ _____ _____    ______ ____
ROOT
ATOM      1  C   UNL     1       4.317   5.643  17.710  0.00  0.00    +0.000 C 
ATOM      2  S   UNL     1       5.487   6.238  16.371  0.00  0.00    +0.000 S 
ATOM      3  C   UNL     1       7.031   6.152  17.309  0.00  0.00    +0.000 C 
ATOM      4  C   UNL     1       6.935   4.988  18.268  0.00  0.00    +0.000 C 
ATOM      5  S   UNL     1       5.384   5.179  19.177  0.00  0.00    +0.000 S 
ENDROOT
BRANCH   1  11
ATOM      6  C   UNL     1       0.158   9.776  20.783  0.00  0.00    +0.000 A 
ATOM      7  C   UNL     1       0.471   8.722  21.638  0.00  0.00    +0.000 A 
ATOM      8  C   UNL     1       1.327   7.708  21.206  0.00  0.00    +0.000 A 
ATOM      9  C   UNL     1       1.880   7.731  19.913  0.00  0.00    +0.000 A 
ATOM     10  C   UNL     1       2.758   6.721  19.469  0.00  0.00    +0.000 A 
ATOM     11  C   UNL     1       3.338   6.735  18.183  0.00  0.00    +0.000 A 
ATOM     12  C   UNL     1       2.926   7.769  17.322  0.00  0.00    +0.000 A 
ATOM     13  C   UNL     1       2.076   8.795  17.753  0.00  0.00    +0.000 A 
ATOM     14  C   UNL     1       1.551   8.791  19.049  0.00  0.00    +0.000 A 
ATOM     15  C   UNL     1       0.694   9.812  19.497  0.00  0.00    +0.000 A 
ENDBRANCH   1  11
BRANCH   1  16
ATOM     16  C   UNL     1       3.655   4.317  17.210  0.00  0.00    +0.000 C 
BRANCH  16  17
ATOM     17  N   UNL     1       2.764   3.650  18.146  0.00  0.00    +0.000 N 
ATOM     18  C   UNL     1       1.398   3.750  18.174  0.00  0.00    +0.000 A 
ATOM     19  C   UNL     1       1.002   2.956  19.222  0.00  0.00    +0.000 A 
ATOM     20  N   UNL     1       2.074   2.307  19.770  0.00  0.00    +0.000 NA
ATOM     21  C   UNL     1       3.116   2.720  19.084  0.00  0.00    +0.000 A 
ENDBRANCH  16  17
ENDBRANCH   1  16
TORSDOF 3
ENDMDL
MODEL 6
REMARK VINA RESULT:      -7.3      1.116      2.073
REMARK  Name = 
REMARK  3 active torsions:
REMARK  status: ('A' for Active; 'I' for Inactive)
REMARK    1  A    between atoms: C_6  and  C_7
REMARK    2  A    between atoms: C_7  and  C_8
REMARK    3  A    between atoms: C_8  and  N_9
REMARK                            x       y       z     vdW  Elec       q    Type
REMARK                         _______ _______ _______ _____ _____    ______ ____
ROOT
ATOM      1  C   UNL     1       3.209   5.238  18.235  0.00  0.00    +0.000 C 
ATOM      2  S   UNL     1       4.239   4.513  19.625  0.00  0.00    +0.000 S 
ATOM      3  C   UNL     1       3.200   3.084  20.009  0.00  0.00    +0.000 C 
ATOM      4  C   UNL     1       2.567   2.603  18.724  0.00  0.00    +0.000 C 
ATOM      5  S   UNL     1       1.799   4.042  17.943  0.00  0.00    +0.000 S 
ENDROOT
BRANCH   1  11
ATOM      6  C   UNL     1       0.521  10.673  20.891  0.00  0.00    +0.000 A 
ATOM      7  C   UNL     1       0.623   9.687  21.869  0.00  0.00    +0.000 A 
ATOM      8  C   UNL     1       1.151   8.437  21.544  0.00  0.00    +0.000 A 
ATOM      9  C   UNL     1       1.582   8.153  20.236  0.00  0.00    +0.000 A 
ATOM     10  C   UNL     1       2.131   6.900  19.897  0.00  0.00    +0.000 A 
ATOM     11  C   UNL     1       2.586   6.601  18.596  0.00  0.00    +0.000 A 
ATOM     12  C   UNL     1       2.384   7.592  17.619  0.00  0.00    +0.000 A 
ATOM     13  C   UNL     1       1.864   8.852  17.941  0.00  0.00    +0.000 A 
ATOM     14  C   UNL     1       1.465   9.148  19.248  0.00  0.00    +0.000 A 
ATOM     15  C   UNL     1       0.940  10.407  19.588  0.00  0.00    +0.000 A 
ENDBRANCH   1  11
BRANCH   1  16
ATOM     16  C   UNL     1       4.081   5.219  16.937  0.00  0.00    +0.000 C 
BRANCH  16  17
ATOM     17  N   UNL     1       5.496   5.510  17.109  0.00  0.00    +0.000 N 
ATOM     18  C   UNL     1       6.040   6.734  17.397  0.00  0.00    +0.000 A 
ATOM     19  C   UNL     1       7.396   6.517  17.459  0.00  0.00    +0.000 A 
ATOM     20  N   UNL     1       7.680   5.187  17.311  0.00  0.00    +0.000 NA
ATOM     21  C   UNL     1       6.517   4.603  17.132  0.00  0.00    +0.000 A 
ENDBRANCH  16  17
ENDBRANCH   1  16
TORSDOF 3
ENDMDL
MODEL 7
REMARK VINA RESULT:      -7.1      1.068      1.168
REMARK  Name = 
REMARK  3 active torsions:
REMARK  status: ('A' for Active; 'I' for Inactive)
REMARK    1  A    between atoms: C_6  and  C_7
REMARK    2  A    between atoms: C_7  and  C_8
REMARK    3  A    between atoms: C_8  and  N_9
REMARK                            x       y       z     vdW  Elec       q    Type
REMARK                         _______ _______ _______ _____ _____    ______ ____
ROOT
ATOM      1  C   UNL     1       3.647   5.826  18.145  0.00  0.00    +0.000 C 
ATOM      2  S   UNL     1       4.999   5.136  19.248  0.00  0.00    +0.000 S 
ATOM      3  C   UNL     1       4.411   3.429  19.351  0.00  0.00    +0.000 C 
ATOM      4  C   UNL     1       3.759   3.075  18.035  0.00  0.00    +0.000 C 
ATOM      5  S   UNL     1       2.558   4.378  17.674  0.00  0.00    +0.000 S 
ENDROOT
BRANCH   1  11
ATOM      6  C   UNL     1      -0.140  10.850  20.203  0.00  0.00    +0.000 A 
ATOM      7  C   UNL     1       0.350  11.136  18.932  0.00  0.00    +0.000 A 
ATOM      8  C   UNL     1       1.190  10.226  18.289  0.00  0.00    +0.000 A 
ATOM      9  C   UNL     1       1.555   9.018  18.909  0.00  0.00    +0.000 A 
ATOM     10  C   UNL     1       2.391   8.083  18.266  0.00  0.00    +0.000 A 
ATOM     11  C   UNL     1       2.754   6.857  18.862  0.00  0.00    +0.000 A 
ATOM     12  C   UNL     1       2.310   6.647  20.180  0.00  0.00    +0.000 A 
ATOM     13  C   UNL     1       1.458   7.552  20.826  0.00  0.00    +0.000 A 
ATOM     14  C   UNL     1       1.067   8.738  20.199  0.00  0.00    +0.000 A 
ATOM     15  C   UNL     1       0.215   9.658  20.834  0.00  0.00    +0.000 A 
ENDBRANCH   1  11
BRANCH   1  16
ATOM     16  C   UNL     1       4.319   6.322  16.823  0.00  0.00    +0.000 C 
BRANCH  16  17
ATOM     17  N   UNL     1       5.465   5.556  16.358  0.00  0.00    +0.000 N 
ATOM     18  C   UNL     1       5.445   4.564  15.414  0.00  0.00    +0.000 A 
ATOM     19  C   UNL     1       6.748   4.139  15.313  0.00  0.00    +0.000 A 
ATOM     20  N   UNL     1       7.568   4.904  16.096  0.00  0.00    +0.000 NA
ATOM     21  C   UNL     1       6.774   5.766  16.689  0.00  0.00    +0.000 A 
ENDBRANCH  16  17
ENDBRANCH   1  16
TORSDOF 3
ENDMDL
MODEL 8
REMARK VINA RESULT:      -7.1      1.214      2.148
REMARK  Name = 
REMARK  3 active torsions:
REMARK  status: ('A' for Active; 'I' for Inactive)
REMARK    1  A    between atoms: C_6  and  C_7
REMARK    2  A    between atoms: C_7  and  C_8
REMARK    3  A    between atoms: C_8  and  N_9
REMARK                            x       y       z     vdW  Elec       q    Type
REMARK                         _______ _______ _______ _____ _____    ______ ____
ROOT
ATOM      1  C   UNL     1       3.574   6.100  18.039  0.00  0.00    +0.000 C 
ATOM      2  S   UNL     1       4.806   5.460  19.301  0.00  0.00    +0.000 S 
ATOM      3  C   UNL     1       4.122   3.801  19.523  0.00  0.00    +0.000 C 
ATOM      4  C   UNL     1       3.545   3.349  18.202  0.00  0.00    +0.000 C 
ATOM      5  S   UNL     1       2.444   4.665  17.629  0.00  0.00    +0.000 S 
ENDROOT
BRANCH   1  11
ATOM      6  C   UNL     1      -0.119  10.428  21.422  0.00  0.00    +0.000 A 
ATOM      7  C   UNL     1       0.216   9.363  22.254  0.00  0.00    +0.000 A 
ATOM      8  C   UNL     1       0.985   8.309  21.759  0.00  0.00    +0.000 A 
ATOM      9  C   UNL     1       1.429   8.304  20.424  0.00  0.00    +0.000 A 
ATOM     10  C   UNL     1       2.219   7.253  19.915  0.00  0.00    +0.000 A 
ATOM     11  C   UNL     1       2.690   7.237  18.585  0.00  0.00    +0.000 A 
ATOM     12  C   UNL     1       2.256   8.287  17.755  0.00  0.00    +0.000 A 
ATOM     13  C   UNL     1       1.493   9.352  18.250  0.00  0.00    +0.000 A 
ATOM     14  C   UNL     1       1.078   9.376  19.584  0.00  0.00    +0.000 A 
ATOM     15  C   UNL     1       0.309  10.437  20.095  0.00  0.00    +0.000 A 
ENDBRANCH   1  11
BRANCH   1  16
ATOM     16  C   UNL     1       4.363   6.430  16.730  0.00  0.00    +0.000 C 
BRANCH  16  17
ATOM     17  N   UNL     1       5.492   5.565  16.425  0.00  0.00    +0.000 N 
ATOM     18  C   UNL     1       5.487   4.504  15.559  0.00  0.00    +0.000 A 
ATOM     19  C   UNL     1       6.764   3.999  15.604  0.00  0.00    +0.000 A 
ATOM     20  N   UNL     1       7.564   4.776  16.396  0.00  0.00    +0.000 NA
ATOM     21  C   UNL     1       6.780   5.726  16.851  0.00  0.00    +0.000 A 
ENDBRANCH  16  17
ENDBRANCH   1  16
TORSDOF 3
ENDMDL
MODEL 9
REMARK VINA RESULT:      -7.1      2.054      6.124
REMARK  Name = 
REMARK  3 active torsions:
REMARK  status: ('A' for Active; 'I' for Inactive)
REMARK    1  A    between atoms: C_6  and  C_7
REMARK    2  A    between atoms: C_7  and  C_8
REMARK    3  A    between atoms: C_8  and  N_9
REMARK                            x       y       z     vdW  Elec       q    Type
REMARK                         _______ _______ _______ _____ _____    ______ ____
ROOT
ATOM      1  C   UNL     1       3.822   4.558  18.287  0.00  0.00    +0.000 C 
ATOM      2  S   UNL     1       2.066   4.274  17.692  0.00  0.00    +0.000 S 
ATOM      3  C   UNL     1       1.845   2.590  18.312  0.00  0.00    +0.000 C 
ATOM      4  C   UNL     1       2.618   2.458  19.603  0.00  0.00    +0.000 C 
ATOM      5  S   UNL     1       4.298   3.040  19.274  0.00  0.00    +0.000 S 
ENDROOT
BRANCH   1  11
ATOM      6  C   UNL     1       7.362   4.534  12.693  0.00  0.00    +0.000 A 
ATOM      7  C   UNL     1       6.210   3.774  12.510  0.00  0.00    +0.000 A 
ATOM      8  C   UNL     1       5.305   3.617  13.561  0.00  0.00    +0.000 A 
ATOM      9  C   UNL     1       5.540   4.218  14.811  0.00  0.00    +0.000 A 
ATOM     10  C   UNL     1       4.628   4.080  15.876  0.00  0.00    +0.000 A 
ATOM     11  C   UNL     1       4.835   4.689  17.132  0.00  0.00    +0.000 A 
ATOM     12  C   UNL     1       6.052   5.374  17.302  0.00  0.00    +0.000 A 
ATOM     13  C   UNL     1       6.958   5.542  16.248  0.00  0.00    +0.000 A 
ATOM     14  C   UNL     1       6.711   4.975  14.995  0.00  0.00    +0.000 A 
ATOM     15  C   UNL     1       7.612   5.132  13.927  0.00  0.00    +0.000 A 
ENDBRANCH   1  11
BRANCH   1  16
ATOM     16  C   UNL     1       3.796   5.752  19.297  0.00  0.00    +0.000 C 
BRANCH  16  17
ATOM     17  N   UNL     1       3.029   6.919  18.891  0.00  0.00    +0.000 N 
ATOM     18  C   UNL     1       2.073   7.557  19.636  0.00  0.00    +0.000 A 
ATOM     19  C   UNL     1       1.630   8.589  18.844  0.00  0.00    +0.000 A 
ATOM     20  N   UNL     1       2.353   8.652  17.684  0.00  0.00    +0.000 NA
ATOM     21  C   UNL     1       3.206   7.655  17.754  0.00  0.00    +0.000 A 
ENDBRANCH  16  17
ENDBRANCH   1  16
TORSDOF 3
ENDMDL
