MODEL 1
REMARK VINA RESULT:      -5.8      0.000      0.000
REMARK  Name = 
REMARK  4 active torsions:
REMARK  status: ('A' for Active; 'I' for Inactive)
REMARK    1  A    between atoms: C_1  and  C_2
REMARK    2  A    between atoms: C_5  and  S_6
REMARK    3  A    between atoms: S_6  and  N_9
REMARK    4  A    between atoms: N_9  and  C_10
REMARK                            x       y       z     vdW  Elec       q    Type
REMARK                         _______ _______ _______ _____ _____    ______ ____
ROOT
ATOM      1  S   UNL     1       6.900   5.497  16.157  0.00  0.00    +0.000 S 
ATOM      2  O   UNL     1       7.540   6.767  16.427  0.00  0.00    +0.000 OA
ATOM      3  O   UNL     1       7.461   4.254  16.641  0.00  0.00    +0.000 OA
ENDROOT
BRANCH   1   8
ATOM      4  C   UNL     1       1.862   4.076  18.054  0.00  0.00    +0.000 C 
ATOM      5  C   UNL     1       3.070   4.879  17.712  0.00  0.00    +0.000 A 
ATOM      6  C   UNL     1       3.298   6.222  17.929  0.00  0.00    +0.000 A 
ATOM      7  C   UNL     1       4.571   6.636  17.444  0.00  0.00    +0.000 A 
ATOM      8  C   UNL     1       5.279   5.594  16.878  0.00  0.00    +0.000 A 
ATOM      9  S   UNL     1       4.401   4.128  16.945  0.00  0.00    +0.000 S 
ENDBRANCH   1   8
BRANCH   1  10
ATOM     10  N   UNL     1       6.691   5.392  14.483  0.00  0.00    +0.000 NA
ATOM     11  H   UNL     1       7.421   5.943  14.027  0.00  0.00    +0.000 HD
BRANCH  10  12
ATOM     12  C   UNL     1       6.523   4.052  13.914  0.00  0.00    +0.000 C 
ATOM     13  C   UNL     1       5.410   3.637  12.998  0.00  0.00    +0.000 C 
ATOM     14  C   UNL     1       6.785   3.856  12.445  0.00  0.00    +0.000 C 
ENDBRANCH  10  12
ENDBRANCH   1  10
TORSDOF 3
ENDMDL
MODEL 2
REMARK VINA RESULT:      -5.8      1.386      1.839
REMARK  Name = 
REMARK  4 active torsions:
REMARK  status: ('A' for Active; 'I' for Inactive)
REMARK    1  A    between atoms: C_1  and  C_2
REMARK    2  A    between atoms: C_5  and  S_6
REMARK    3  A    between atoms: S_6  and  N_9
REMARK    4  A    between atoms: N_9  and  C_10
REMARK                            x       y       z     vdW  Elec       q    Type
REMARK                         _______ _______ _______ _____ _____    ______ ____
ROOT
ATOM      1  S   UNL     1       6.547   4.660  15.462  0.00  0.00    +0.000 S 
ATOM      2  O   UNL     1       6.492   5.896  14.709  0.00  0.00    +0.000 OA
ATOM      3  O   UNL     1       7.678   4.344  16.306  0.00  0.00    +0.000 OA
ENDROOT
BRANCH   1   8
ATOM      4  C   UNL     1       2.571   6.413  18.942  0.00  0.00    +0.000 C 
ATOM      5  C   UNL     1       3.399   5.536  18.067  0.00  0.00    +0.000 A 
ATOM      6  C   UNL     1       3.240   4.191  17.803  0.00  0.00    +0.000 A 
ATOM      7  C   UNL     1       4.247   3.693  16.928  0.00  0.00    +0.000 A 
ATOM      8  C   UNL     1       5.139   4.675  16.545  0.00  0.00    +0.000 A 
ATOM      9  S   UNL     1       4.747   6.187  17.241  0.00  0.00    +0.000 S 
ENDBRANCH   1   8
BRANCH   1  10
ATOM     10  N   UNL     1       6.312   3.399  14.361  0.00  0.00    +0.000 NA
ATOM     11  H   UNL     1       5.494   2.860  14.651  0.00  0.00    +0.000 HD
BRANCH  10  12
ATOM     12  C   UNL     1       6.312   3.748  12.938  0.00  0.00    +0.000 C 
ATOM     13  C   UNL     1       6.481   2.773  11.810  0.00  0.00    +0.000 C 
ATOM     14  C   UNL     1       5.128   3.348  12.098  0.00  0.00    +0.000 C 
ENDBRANCH  10  12
ENDBRANCH   1  10
TORSDOF 3
ENDMDL
MODEL 3
REMARK VINA RESULT:      -5.7      1.210      1.386
REMARK  Name = 
REMARK  4 active torsions:
REMARK  status: ('A' for Active; 'I' for Inactive)
REMARK    1  A    between atoms: C_1  and  C_2
REMARK    2  A    between atoms: C_5  and  S_6
REMARK    3  A    between atoms: S_6  and  N_9
REMARK    4  A    between atoms: N_9  and  C_10
REMARK                            x       y       z     vdW  Elec       q    Type
REMARK                         _______ _______ _______ _____ _____    ______ ____
ROOT
ATOM      1  S   UNL     1       7.096   5.456  17.660  0.00  0.00    +0.000 S 
ATOM      2  O   UNL     1       7.585   6.817  17.570  0.00  0.00    +0.000 OA
ATOM      3  O   UNL     1       7.461   4.599  18.767  0.00  0.00    +0.000 OA
ENDROOT
BRANCH   1   8
ATOM      4  C   UNL     1       1.722   4.066  18.083  0.00  0.00    +0.000 C 
ATOM      5  C   UNL     1       2.967   4.870  17.931  0.00  0.00    +0.000 A 
ATOM      6  C   UNL     1       3.093   6.234  17.764  0.00  0.00    +0.000 A 
ATOM      7  C   UNL     1       4.453   6.636  17.633  0.00  0.00    +0.000 A 
ATOM      8  C   UNL     1       5.324   5.567  17.713  0.00  0.00    +0.000 A 
ATOM      9  S   UNL     1       4.490   4.093  17.951  0.00  0.00    +0.000 S 
ENDBRANCH   1   8
BRANCH   1  10
ATOM     10  N   UNL     1       7.501   4.687  16.210  0.00  0.00    +0.000 NA
ATOM     11  H   UNL     1       7.554   3.681  16.377  0.00  0.00    +0.000 HD
BRANCH  10  12
ATOM     12  C   UNL     1       6.719   5.047  15.024  0.00  0.00    +0.000 C 
ATOM     13  C   UNL     1       7.086   4.701  13.611  0.00  0.00    +0.000 C 
ATOM     14  C   UNL     1       5.978   3.959  14.294  0.00  0.00    +0.000 C 
ENDBRANCH  10  12
ENDBRANCH   1  10
TORSDOF 3
ENDMDL
MODEL 4
REMARK VINA RESULT:      -5.7      1.028      1.342
REMARK  Name = 
REMARK  4 active torsions:
REMARK  status: ('A' for Active; 'I' for Inactive)
REMARK    1  A    between atoms: C_1  and  C_2
REMARK    2  A    between atoms: C_5  and  S_6
REMARK    3  A    between atoms: S_6  and  N_9
REMARK    4  A    between atoms: N_9  and  C_10
REMARK                            x       y       z     vdW  Elec       q    Type
REMARK                         _______ _______ _______ _____ _____    ______ ____
ROOT
ATOM      1  S   UNL     1       6.915   5.376  16.098  0.00  0.00    +0.000 S 
ATOM      2  O   UNL     1       7.102   6.766  16.457  0.00  0.00    +0.000 OA
ATOM      3  O   UNL     1       7.857   4.359  16.512  0.00  0.00    +0.000 OA
ENDROOT
BRANCH   1   8
ATOM      4  C   UNL     1       2.067   5.524  18.831  0.00  0.00    +0.000 C 
ATOM      5  C   UNL     1       3.215   5.042  18.012  0.00  0.00    +0.000 A 
ATOM      6  C   UNL     1       3.401   3.799  17.444  0.00  0.00    +0.000 A 
ATOM      7  C   UNL     1       4.640   3.708  16.746  0.00  0.00    +0.000 A 
ATOM      8  C   UNL     1       5.357   4.887  16.798  0.00  0.00    +0.000 A 
ATOM      9  S   UNL     1       4.524   6.091  17.682  0.00  0.00    +0.000 S 
ENDBRANCH   1   8
BRANCH   1  10
ATOM     10  N   UNL     1       6.742   5.317  14.418  0.00  0.00    +0.000 NA
ATOM     11  H   UNL     1       7.509   5.839  13.991  0.00  0.00    +0.000 HD
BRANCH  10  12
ATOM     12  C   UNL     1       6.522   3.999  13.816  0.00  0.00    +0.000 C 
ATOM     13  C   UNL     1       5.392   3.650  12.892  0.00  0.00    +0.000 C 
ATOM     14  C   UNL     1       6.775   3.829  12.342  0.00  0.00    +0.000 C 
ENDBRANCH  10  12
ENDBRANCH   1  10
TORSDOF 3
ENDMDL
MODEL 5
REMARK VINA RESULT:      -5.7      1.089      1.242
REMARK  Name = 
REMARK  4 active torsions:
REMARK  status: ('A' for Active; 'I' for Inactive)
REMARK    1  A    between atoms: C_1  and  C_2
REMARK    2  A    between atoms: C_5  and  S_6
REMARK    3  A    between atoms: S_6  and  N_9
REMARK    4  A    between atoms: N_9  and  C_10
REMARK                            x       y       z     vdW  Elec       q    Type
REMARK                         _______ _______ _______ _____ _____    ______ ____
ROOT
ATOM      1  S   UNL     1       6.993   4.679  16.216  0.00  0.00    +0.000 S 
ATOM      2  O   UNL     1       7.200   5.964  15.584  0.00  0.00    +0.000 OA
ATOM      3  O   UNL     1       8.052   4.023  16.952  0.00  0.00    +0.000 OA
ENDROOT
BRANCH   1   8
ATOM      4  C   UNL     1       2.014   4.417  18.693  0.00  0.00    +0.000 C 
ATOM      5  C   UNL     1       3.448   4.727  18.428  0.00  0.00    +0.000 A 
ATOM      6  C   UNL     1       4.334   5.428  19.218  0.00  0.00    +0.000 A 
ATOM      7  C   UNL     1       5.620   5.537  18.616  0.00  0.00    +0.000 A 
ATOM      8  C   UNL     1       5.677   4.907  17.388  0.00  0.00    +0.000 A 
ATOM      9  S   UNL     1       4.180   4.188  16.980  0.00  0.00    +0.000 S 
ENDBRANCH   1   8
BRANCH   1  10
ATOM     10  N   UNL     1       6.418   3.627  15.025  0.00  0.00    +0.000 NA
ATOM     11  H   UNL     1       5.636   3.093  15.408  0.00  0.00    +0.000 HD
BRANCH  10  12
ATOM     12  C   UNL     1       6.147   4.200  13.704  0.00  0.00    +0.000 C 
ATOM     13  C   UNL     1       6.988   3.982  12.480  0.00  0.00    +0.000 C 
ATOM     14  C   UNL     1       5.666   3.287  12.607  0.00  0.00    +0.000 C 
ENDBRANCH  10  12
ENDBRANCH   1  10
TORSDOF 3
ENDMDL
MODEL 6
REMARK VINA RESULT:      -5.7      1.692      1.804
REMARK  Name = 
REMARK  4 active torsions:
REMARK  status: ('A' for Active; 'I' for Inactive)
REMARK    1  A    between atoms: C_1  and  C_2
REMARK    2  A    between atoms: C_5  and  S_6
REMARK    3  A    between atoms: S_6  and  N_9
REMARK    4  A    between atoms: N_9  and  C_10
REMARK                            x       y       z     vdW  Elec       q    Type
REMARK                         _______ _______ _______ _____ _____    ______ ____
ROOT
ATOM      1  S   UNL     1       7.175   6.023  17.516  0.00  0.00    +0.000 S 
ATOM      2  O   UNL     1       7.463   7.197  16.719  0.00  0.00    +0.000 OA
ATOM      3  O   UNL     1       7.860   5.776  18.766  0.00  0.00    +0.000 OA
ENDROOT
BRANCH   1   8
ATOM      4  C   UNL     1       2.288   5.144  20.035  0.00  0.00    +0.000 C 
ATOM      5  C   UNL     1       3.329   5.686  19.116  0.00  0.00    +0.000 A 
ATOM      6  C   UNL     1       3.188   6.635  18.125  0.00  0.00    +0.000 A 
ATOM      7  C   UNL     1       4.411   6.881  17.439  0.00  0.00    +0.000 A 
ATOM      8  C   UNL     1       5.451   6.118  17.934  0.00  0.00    +0.000 A 
ATOM      9  S   UNL     1       4.938   5.118  19.223  0.00  0.00    +0.000 S 
ENDBRANCH   1   8
BRANCH   1  10
ATOM     10  N   UNL     1       7.366   4.680  16.508  0.00  0.00    +0.000 NA
ATOM     11  H   UNL     1       7.796   3.925  17.045  0.00  0.00    +0.000 HD
BRANCH  10  12
ATOM     12  C   UNL     1       6.197   4.257  15.732  0.00  0.00    +0.000 C 
ATOM     13  C   UNL     1       5.583   5.034  14.604  0.00  0.00    +0.000 C 
ATOM     14  C   UNL     1       6.401   3.814  14.307  0.00  0.00    +0.000 C 
ENDBRANCH  10  12
ENDBRANCH   1  10
TORSDOF 3
ENDMDL
MODEL 7
REMARK VINA RESULT:      -5.6      2.189      2.747
REMARK  Name = 
REMARK  4 active torsions:
REMARK  status: ('A' for Active; 'I' for Inactive)
REMARK    1  A    between atoms: C_1  and  C_2
REMARK    2  A    between atoms: C_5  and  S_6
REMARK    3  A    between atoms: S_6  and  N_9
REMARK    4  A    between atoms: N_9  and  C_10
REMARK                            x       y       z     vdW  Elec       q    Type
REMARK                         _______ _______ _______ _____ _____    ______ ____
ROOT
ATOM      1  S   UNL     1       5.799   4.897  18.213  0.00  0.00    +0.000 S 
ATOM      2  O   UNL     1       5.407   6.253  17.891  0.00  0.00    +0.000 OA
ATOM      3  O   UNL     1       6.558   4.596  19.407  0.00  0.00    +0.000 OA
ENDROOT
BRANCH   1   8
ATOM      4  C   UNL     1       0.835   3.128  20.009  0.00  0.00    +0.000 C 
ATOM      5  C   UNL     1       2.086   3.258  19.210  0.00  0.00    +0.000 A 
ATOM      6  C   UNL     1       2.486   2.519  18.116  0.00  0.00    +0.000 A 
ATOM      7  C   UNL     1       3.762   2.925  17.630  0.00  0.00    +0.000 A 
ATOM      8  C   UNL     1       4.293   3.967  18.365  0.00  0.00    +0.000 A 
ATOM      9  S   UNL     1       3.243   4.446  19.627  0.00  0.00    +0.000 S 
ENDBRANCH   1   8
BRANCH   1  10
ATOM     10  N   UNL     1       6.623   4.288  16.868  0.00  0.00    +0.000 NA
ATOM     11  H   UNL     1       6.465   3.280  16.816  0.00  0.00    +0.000 HD
BRANCH  10  12
ATOM     12  C   UNL     1       6.423   4.981  15.593  0.00  0.00    +0.000 C 
ATOM     13  C   UNL     1       7.004   4.554  14.277  0.00  0.00    +0.000 C 
ATOM     14  C   UNL     1       5.548   4.336  14.552  0.00  0.00    +0.000 C 
ENDBRANCH  10  12
ENDBRANCH   1  10
TORSDOF 3
ENDMDL
MODEL 8
REMARK VINA RESULT:      -5.6      3.017      5.524
REMARK  Name = 
REMARK  4 active torsions:
REMARK  status: ('A' for Active; 'I' for Inactive)
REMARK    1  A    between atoms: C_1  and  C_2
REMARK    2  A    between atoms: C_5  and  S_6
REMARK    3  A    between atoms: S_6  and  N_9
REMARK    4  A    between atoms: N_9  and  C_10
REMARK                            x       y       z     vdW  Elec       q    Type
REMARK                         _______ _______ _______ _____ _____    ______ ____
ROOT
ATOM      1  S   UNL     1       4.443   4.012  19.158  0.00  0.00    +0.000 S 
ATOM      2  O   UNL     1       4.979   2.920  19.943  0.00  0.00    +0.000 OA
ATOM      3  O   UNL     1       4.207   5.314  19.742  0.00  0.00    +0.000 OA
ENDROOT
BRANCH   1   8
ATOM      4  C   UNL     1       6.638   4.508  14.066  0.00  0.00    +0.000 C 
ATOM      5  C   UNL     1       6.490   4.509  15.548  0.00  0.00    +0.000 A 
ATOM      6  C   UNL     1       7.438   4.807  16.505  0.00  0.00    +0.000 A 
ATOM      7  C   UNL     1       6.926   4.677  17.827  0.00  0.00    +0.000 A 
ATOM      8  C   UNL     1       5.600   4.291  17.839  0.00  0.00    +0.000 A 
ATOM      9  S   UNL     1       4.989   4.096  16.254  0.00  0.00    +0.000 S 
ENDBRANCH   1   8
BRANCH   1  10
ATOM     10  N   UNL     1       3.011   3.457  18.451  0.00  0.00    +0.000 NA
ATOM     11  H   UNL     1       3.226   3.081  17.526  0.00  0.00    +0.000 HD
BRANCH  10  12
ATOM     12  C   UNL     1       2.165   2.577  19.262  0.00  0.00    +0.000 C 
ATOM     13  C   UNL     1       1.120   3.041  20.233  0.00  0.00    +0.000 C 
ATOM     14  C   UNL     1       0.704   2.464  18.914  0.00  0.00    +0.000 C 
ENDBRANCH  10  12
ENDBRANCH   1  10
TORSDOF 3
ENDMDL
MODEL 9
REMARK VINA RESULT:      -5.6      1.959      2.431
REMARK  Name = 
REMARK  4 active torsions:
REMARK  status: ('A' for Active; 'I' for Inactive)
REMARK    1  A    between atoms: C_1  and  C_2
REMARK    2  A    between atoms: C_5  and  S_6
REMARK    3  A    between atoms: S_6  and  N_9
REMARK    4  A    between atoms: N_9  and  C_10
REMARK                            x       y       z     vdW  Elec       q    Type
REMARK                         _______ _______ _______ _____ _____    ______ ____
ROOT
ATOM      1  S   UNL     1       5.623   4.809  18.195  0.00  0.00    +0.000 S 
ATOM      2  O   UNL     1       5.723   6.242  18.015  0.00  0.00    +0.000 OA
ATOM      3  O   UNL     1       6.118   4.165  19.393  0.00  0.00    +0.000 OA
ENDROOT
BRANCH   1   8
ATOM      4  C   UNL     1       0.770   2.167  18.871  0.00  0.00    +0.000 C 
ATOM      5  C   UNL     1       1.780   3.194  18.491  0.00  0.00    +0.000 A 
ATOM      6  C   UNL     1       1.580   4.399  17.848  0.00  0.00    +0.000 A 
ATOM      7  C   UNL     1       2.798   5.104  17.638  0.00  0.00    +0.000 A 
ATOM      8  C   UNL     1       3.891   4.420  18.133  0.00  0.00    +0.000 A 
ATOM      9  S   UNL     1       3.431   2.937  18.851  0.00  0.00    +0.000 S 
ENDBRANCH   1   8
BRANCH   1  10
ATOM     10  N   UNL     1       6.341   4.088  16.845  0.00  0.00    +0.000 NA
ATOM     11  H   UNL     1       5.964   3.145  16.738  0.00  0.00    +0.000 HD
BRANCH  10  12
ATOM     12  C   UNL     1       6.351   4.863  15.602  0.00  0.00    +0.000 C 
ATOM     13  C   UNL     1       6.891   4.380  14.288  0.00  0.00    +0.000 C 
ATOM     14  C   UNL     1       5.410   4.463  14.497  0.00  0.00    +0.000 C 
ENDBRANCH  10  12
ENDBRANCH   1  10
TORSDOF 3
ENDMDL
