MODEL 1
REMARK VINA RESULT:      -7.3      0.000      0.000
REMARK  Name = 
REMARK  10 active torsions:
REMARK  status: ('A' for Active; 'I' for Inactive)
REMARK    1  A    between atoms: C_1  and  C_2
REMARK    2  A    between atoms: C_2  and  O_3
REMARK    3  A    between atoms: O_3  and  C_4
REMARK    4  A    between atoms: C_7  and  C_8
REMARK    5  A    between atoms: C_15  and  S_16
REMARK    6  A    between atoms: S_16  and  C_17
REMARK    7  A    between atoms: C_17  and  C_18
REMARK    8  A    between atoms: C_23  and  C_24
REMARK    9  A    between atoms: C_30  and  O_31
REMARK   10  A    between atoms: O_31  and  C_32
REMARK                            x       y       z     vdW  Elec       q    Type
REMARK                         _______ _______ _______ _____ _____    ______ ____
ROOT
ATOM      1  C   UNL     1      -6.528  11.952  17.898  0.00  0.00    +0.000 C 
ATOM      2  C   UNL     1      -7.007  12.995  16.884  0.00  0.00    +0.000 C 
ATOM      3  C   UNL     1      -7.027  14.398  17.451  0.00  0.00    +0.000 C 
ATOM      4  O   UNL     1      -6.861  15.391  16.748  0.00  0.00    +0.000 OA
ATOM      5  N   UNL     1      -7.323  14.512  18.788  0.00  0.00    +0.000 N 
ATOM      6  C   UNL     1      -7.387  13.482  19.681  0.00  0.00    +0.000 A 
ATOM      7  N   UNL     1      -7.691  13.836  20.972  0.00  0.00    +0.000 NA
ATOM      8  C   UNL     1      -7.606  12.893  21.850  0.00  0.00    +0.000 A 
ATOM      9  N   UNL     1      -7.311  11.598  21.558  0.00  0.00    +0.000 N 
ATOM     10  C   UNL     1      -7.108  11.173  20.280  0.00  0.00    +0.000 A 
ATOM     11  O   UNL     1      -6.989   9.989  19.985  0.00  0.00    +0.000 OA
ATOM     12  C   UNL     1      -7.048  12.249  19.278  0.00  0.00    +0.000 A 
ATOM     13  H   UNL     1      -7.439  15.451  19.147  0.00  0.00    +0.000 HD
ATOM     14  H   UNL     1      -7.318  10.907  22.289  0.00  0.00    +0.000 HD
ENDROOT
BRANCH   1  18
ATOM     15  C   UNL     1      -2.221  11.305  17.986  0.00  0.00    +0.000 A 
ATOM     16  C   UNL     1      -2.884  11.865  19.089  0.00  0.00    +0.000 A 
ATOM     17  C   UNL     1      -4.257  12.102  19.067  0.00  0.00    +0.000 A 
ATOM     18  C   UNL     1      -5.006  11.831  17.919  0.00  0.00    +0.000 A 
ATOM     19  C   UNL     1      -4.323  11.370  16.785  0.00  0.00    +0.000 A 
ATOM     20  C   UNL     1      -2.941  11.107  16.799  0.00  0.00    +0.000 A 
BRANCH  20  21
ATOM     21  O   UNL     1      -2.510  10.645  15.585  0.00  0.00    +0.000 OA
ATOM     22  C   UNL     1      -3.455  10.184  14.636  0.00  0.00    +0.000 C 
ENDBRANCH  20  21
BRANCH  15  23
ATOM     23  O   UNL     1      -0.899  10.942  18.063  0.00  0.00    +0.000 OA
BRANCH  23  25
ATOM     24  C   UNL     1       0.629  10.085  19.720  0.00  0.00    +0.000 C 
ATOM     25  C   UNL     1      -0.263  11.241  19.314  0.00  0.00    +0.000 C 
ENDBRANCH  23  25
ENDBRANCH  15  23
ENDBRANCH   1  18
BRANCH   8  26
ATOM     26  S   UNL     1      -7.794  13.085  23.562  0.00  0.00    +0.000 S 
BRANCH  26  27
ATOM     27  C   UNL     1      -6.521  14.302  23.971  0.00  0.00    +0.000 C 
BRANCH  27  28
ATOM     28  C   UNL     1      -5.146  13.824  23.536  0.00  0.00    +0.000 A 
ATOM     29  C   UNL     1      -4.612  12.661  24.127  0.00  0.00    +0.000 A 
ATOM     30  C   UNL     1      -3.340  12.196  23.790  0.00  0.00    +0.000 A 
ATOM     31  C   UNL     1      -2.572  12.888  22.862  0.00  0.00    +0.000 A 
ATOM     32  C   UNL     1      -3.092  14.021  22.241  0.00  0.00    +0.000 A 
ATOM     33  C   UNL     1      -4.385  14.485  22.545  0.00  0.00    +0.000 A 
ATOM     34  C   UNL     1      -4.910  15.681  21.797  0.00  0.00    +0.000 C 
ENDBRANCH  27  28
ENDBRANCH  26  27
ENDBRANCH   8  26
TORSDOF 7
ENDMDL
MODEL 2
REMARK VINA RESULT:      -7.1      6.187      9.859
REMARK  Name = 
REMARK  10 active torsions:
REMARK  status: ('A' for Active; 'I' for Inactive)
REMARK    1  A    between atoms: C_1  and  C_2
REMARK    2  A    between atoms: C_2  and  O_3
REMARK    3  A    between atoms: O_3  and  C_4
REMARK    4  A    between atoms: C_7  and  C_8
REMARK    5  A    between atoms: C_15  and  S_16
REMARK    6  A    between atoms: S_16  and  C_17
REMARK    7  A    between atoms: C_17  and  C_18
REMARK    8  A    between atoms: C_23  and  C_24
REMARK    9  A    between atoms: C_30  and  O_31
REMARK   10  A    between atoms: O_31  and  C_32
REMARK                            x       y       z     vdW  Elec       q    Type
REMARK                         _______ _______ _______ _____ _____    ______ ____
ROOT
ATOM      1  C   UNL     1      -0.514  10.822  20.677  0.00  0.00    +0.000 C 
ATOM      2  C   UNL     1      -0.891  10.429  22.108  0.00  0.00    +0.000 C 
ATOM      3  C   UNL     1       0.220   9.692  22.825  0.00  0.00    +0.000 C 
ATOM      4  O   UNL     1       0.361   9.748  24.044  0.00  0.00    +0.000 OA
ATOM      5  N   UNL     1       1.020   8.889  22.050  0.00  0.00    +0.000 N 
ATOM      6  C   UNL     1       1.040   8.862  20.686  0.00  0.00    +0.000 A 
ATOM      7  N   UNL     1       1.932   7.983  20.123  0.00  0.00    +0.000 NA
ATOM      8  C   UNL     1       2.065   8.057  18.841  0.00  0.00    +0.000 A 
ATOM      9  N   UNL     1       1.339   8.884  18.042  0.00  0.00    +0.000 N 
ATOM     10  C   UNL     1       0.365   9.698  18.537  0.00  0.00    +0.000 A 
ATOM     11  O   UNL     1      -0.397  10.335  17.818  0.00  0.00    +0.000 OA
ATOM     12  C   UNL     1       0.295   9.746  20.007  0.00  0.00    +0.000 A 
ATOM     13  H   UNL     1       1.697   8.317  22.539  0.00  0.00    +0.000 HD
ATOM     14  H   UNL     1       1.459   8.846  17.044  0.00  0.00    +0.000 HD
ENDROOT
BRANCH   1  18
ATOM     15  C   UNL     1       1.536  14.641  20.240  0.00  0.00    +0.000 A 
ATOM     16  C   UNL     1       2.264  13.448  20.372  0.00  0.00    +0.000 A 
ATOM     17  C   UNL     1       1.623  12.222  20.539  0.00  0.00    +0.000 A 
ATOM     18  C   UNL     1       0.231  12.154  20.627  0.00  0.00    +0.000 A 
ATOM     19  C   UNL     1      -0.486  13.358  20.599  0.00  0.00    +0.000 A 
ATOM     20  C   UNL     1       0.146  14.602  20.411  0.00  0.00    +0.000 A 
BRANCH  20  21
ATOM     21  O   UNL     1      -0.764  15.625  20.397  0.00  0.00    +0.000 OA
ATOM     22  C   UNL     1      -0.954  16.410  21.559  0.00  0.00    +0.000 C 
ENDBRANCH  20  21
BRANCH  15  23
ATOM     23  O   UNL     1       2.164  15.824  19.934  0.00  0.00    +0.000 OA
BRANCH  23  25
ATOM     24  C   UNL     1       1.521  17.504  18.329  0.00  0.00    +0.000 C 
ATOM     25  C   UNL     1       2.181  16.156  18.538  0.00  0.00    +0.000 C 
ENDBRANCH  23  25
ENDBRANCH  15  23
ENDBRANCH   1  18
BRANCH   8  26
ATOM     26  S   UNL     1       3.214   7.174  17.891  0.00  0.00    +0.000 S 
BRANCH  26  27
ATOM     27  C   UNL     1       3.733   5.856  19.014  0.00  0.00    +0.000 C 
BRANCH  27  28
ATOM     28  C   UNL     1       2.835   4.637  18.883  0.00  0.00    +0.000 A 
ATOM     29  C   UNL     1       1.753   4.493  19.774  0.00  0.00    +0.000 A 
ATOM     30  C   UNL     1       0.915   3.377  19.721  0.00  0.00    +0.000 A 
ATOM     31  C   UNL     1       1.149   2.379  18.783  0.00  0.00    +0.000 A 
ATOM     32  C   UNL     1       2.193   2.517  17.871  0.00  0.00    +0.000 A 
ATOM     33  C   UNL     1       3.026   3.650  17.889  0.00  0.00    +0.000 A 
ATOM     34  C   UNL     1       4.100   3.766  16.842  0.00  0.00    +0.000 C 
ENDBRANCH  27  28
ENDBRANCH  26  27
ENDBRANCH   8  26
TORSDOF 7
ENDMDL
MODEL 3
REMARK VINA RESULT:      -7.0      4.995      8.703
REMARK  Name = 
REMARK  10 active torsions:
REMARK  status: ('A' for Active; 'I' for Inactive)
REMARK    1  A    between atoms: C_1  and  C_2
REMARK    2  A    between atoms: C_2  and  O_3
REMARK    3  A    between atoms: O_3  and  C_4
REMARK    4  A    between atoms: C_7  and  C_8
REMARK    5  A    between atoms: C_15  and  S_16
REMARK    6  A    between atoms: S_16  and  C_17
REMARK    7  A    between atoms: C_17  and  C_18
REMARK    8  A    between atoms: C_23  and  C_24
REMARK    9  A    between atoms: C_30  and  O_31
REMARK   10  A    between atoms: O_31  and  C_32
REMARK                            x       y       z     vdW  Elec       q    Type
REMARK                         _______ _______ _______ _____ _____    ______ ____
ROOT
ATOM      1  C   UNL     1      -0.625  12.449  20.558  0.00  0.00    +0.000 C 
ATOM      2  C   UNL     1      -0.151  13.876  20.266  0.00  0.00    +0.000 C 
ATOM      3  C   UNL     1       0.441  14.024  18.880  0.00  0.00    +0.000 C 
ATOM      4  O   UNL     1       0.394  15.083  18.259  0.00  0.00    +0.000 OA
ATOM      5  N   UNL     1       1.108  12.933  18.381  0.00  0.00    +0.000 N 
ATOM      6  C   UNL     1       1.102  11.679  18.920  0.00  0.00    +0.000 A 
ATOM      7  N   UNL     1       1.837  10.739  18.241  0.00  0.00    +0.000 NA
ATOM      8  C   UNL     1       1.716   9.522  18.656  0.00  0.00    +0.000 A 
ATOM      9  N   UNL     1       0.980   9.150  19.737  0.00  0.00    +0.000 N 
ATOM     10  C   UNL     1       0.320  10.057  20.510  0.00  0.00    +0.000 A 
ATOM     11  O   UNL     1      -0.222   9.758  21.568  0.00  0.00    +0.000 OA
ATOM     12  C   UNL     1       0.315  11.429  19.976  0.00  0.00    +0.000 A 
ATOM     13  H   UNL     1       1.593  13.061  17.502  0.00  0.00    +0.000 HD
ATOM     14  H   UNL     1       0.979   8.189  20.034  0.00  0.00    +0.000 HD
ENDROOT
BRANCH   1  18
ATOM     15  C   UNL     1      -4.632  11.960  18.920  0.00  0.00    +0.000 A 
ATOM     16  C   UNL     1      -4.432  12.628  20.138  0.00  0.00    +0.000 A 
ATOM     17  C   UNL     1      -3.159  12.770  20.688  0.00  0.00    +0.000 A 
ATOM     18  C   UNL     1      -2.048  12.205  20.060  0.00  0.00    +0.000 A 
ATOM     19  C   UNL     1      -2.264  11.450  18.899  0.00  0.00    +0.000 A 
ATOM     20  C   UNL     1      -3.541  11.315  18.321  0.00  0.00    +0.000 A 
BRANCH  20  21
ATOM     21  O   UNL     1      -3.494  10.554  17.184  0.00  0.00    +0.000 OA
ATOM     22  C   UNL     1      -2.706  10.979  16.088  0.00  0.00    +0.000 C 
ENDBRANCH  20  21
BRANCH  15  23
ATOM     23  O   UNL     1      -5.864  11.947  18.313  0.00  0.00    +0.000 OA
BRANCH  23  25
ATOM     24  C   UNL     1      -7.258  10.751  19.873  0.00  0.00    +0.000 C 
ATOM     25  C   UNL     1      -6.617  10.741  18.501  0.00  0.00    +0.000 C 
ENDBRANCH  23  25
ENDBRANCH  15  23
ENDBRANCH   1  18
BRANCH   8  26
ATOM     26  S   UNL     1       2.412   8.124  17.905  0.00  0.00    +0.000 S 
BRANCH  26  27
ATOM     27  C   UNL     1       2.391   6.901  19.237  0.00  0.00    +0.000 C 
BRANCH  27  28
ATOM     28  C   UNL     1       2.600   5.497  18.696  0.00  0.00    +0.000 A 
ATOM     29  C   UNL     1       3.479   5.311  17.610  0.00  0.00    +0.000 A 
ATOM     30  C   UNL     1       3.683   4.048  17.052  0.00  0.00    +0.000 A 
ATOM     31  C   UNL     1       3.007   2.947  17.562  0.00  0.00    +0.000 A 
ATOM     32  C   UNL     1       2.158   3.101  18.656  0.00  0.00    +0.000 A 
ATOM     33  C   UNL     1       1.966   4.361  19.251  0.00  0.00    +0.000 A 
ATOM     34  C   UNL     1       1.082   4.452  20.466  0.00  0.00    +0.000 C 
ENDBRANCH  27  28
ENDBRANCH  26  27
ENDBRANCH   8  26
TORSDOF 7
ENDMDL
MODEL 4
REMARK VINA RESULT:      -6.9      4.946      8.859
REMARK  Name = 
REMARK  10 active torsions:
REMARK  status: ('A' for Active; 'I' for Inactive)
REMARK    1  A    between atoms: C_1  and  C_2
REMARK    2  A    between atoms: C_2  and  O_3
REMARK    3  A    between atoms: O_3  and  C_4
REMARK    4  A    between atoms: C_7  and  C_8
REMARK    5  A    between atoms: C_15  and  S_16
REMARK    6  A    between atoms: S_16  and  C_17
REMARK    7  A    between atoms: C_17  and  C_18
REMARK    8  A    between atoms: C_23  and  C_24
REMARK    9  A    between atoms: C_30  and  O_31
REMARK   10  A    between atoms: O_31  and  C_32
REMARK                            x       y       z     vdW  Elec       q    Type
REMARK                         _______ _______ _______ _____ _____    ______ ____
ROOT
ATOM      1  C   UNL     1      -0.317  12.451  21.450  0.00  0.00    +0.000 C 
ATOM      2  C   UNL     1       0.379  13.481  20.555  0.00  0.00    +0.000 C 
ATOM      3  C   UNL     1       0.755  12.921  19.200  0.00  0.00    +0.000 C 
ATOM      4  O   UNL     1       0.821  13.626  18.196  0.00  0.00    +0.000 OA
ATOM      5  N   UNL     1       1.100  11.592  19.163  0.00  0.00    +0.000 N 
ATOM      6  C   UNL     1       0.931  10.696  20.178  0.00  0.00    +0.000 A 
ATOM      7  N   UNL     1       1.342   9.413  19.910  0.00  0.00    +0.000 NA
ATOM      8  C   UNL     1       1.050   8.529  20.805  0.00  0.00    +0.000 A 
ATOM      9  N   UNL     1       0.440   8.808  21.988  0.00  0.00    +0.000 N 
ATOM     10  C   UNL     1       0.110  10.079  22.350  0.00  0.00    +0.000 A 
ATOM     11  O   UNL     1      -0.302  10.365  23.468  0.00  0.00    +0.000 OA
ATOM     12  C   UNL     1       0.292  11.085  21.290  0.00  0.00    +0.000 A 
ATOM     13  H   UNL     1       1.451  11.240  18.281  0.00  0.00    +0.000 HD
ATOM     14  H   UNL     1       0.295   8.074  22.660  0.00  0.00    +0.000 HD
ENDROOT
BRANCH   1  18
ATOM     15  C   UNL     1      -4.587  12.567  20.596  0.00  0.00    +0.000 A 
ATOM     16  C   UNL     1      -4.114  12.711  21.910  0.00  0.00    +0.000 A 
ATOM     17  C   UNL     1      -2.754  12.651  22.203  0.00  0.00    +0.000 A 
ATOM     18  C   UNL     1      -1.821  12.395  21.195  0.00  0.00    +0.000 A 
ATOM     19  C   UNL     1      -2.304  12.148  19.903  0.00  0.00    +0.000 A 
ATOM     20  C   UNL     1      -3.674  12.226  19.588  0.00  0.00    +0.000 A 
BRANCH  20  21
ATOM     21  O   UNL     1      -3.895  11.968  18.262  0.00  0.00    +0.000 OA
ATOM     22  C   UNL     1      -4.140  10.640  17.838  0.00  0.00    +0.000 C 
ENDBRANCH  20  21
BRANCH  15  23
ATOM     23  O   UNL     1      -5.911  12.769  20.293  0.00  0.00    +0.000 OA
BRANCH  23  25
ATOM     24  C   UNL     1      -7.152  10.712  20.092  0.00  0.00    +0.000 C 
ATOM     25  C   UNL     1      -6.826  11.900  20.975  0.00  0.00    +0.000 C 
ENDBRANCH  23  25
ENDBRANCH  15  23
ENDBRANCH   1  18
BRANCH   8  26
ATOM     26  S   UNL     1       1.319   6.823  20.666  0.00  0.00    +0.000 S 
BRANCH  26  27
ATOM     27  C   UNL     1       2.563   6.719  19.358  0.00  0.00    +0.000 C 
BRANCH  27  28
ATOM     28  C   UNL     1       2.543   5.356  18.688  0.00  0.00    +0.000 A 
ATOM     29  C   UNL     1       1.575   4.414  19.093  0.00  0.00    +0.000 A 
ATOM     30  C   UNL     1       1.532   3.135  18.536  0.00  0.00    +0.000 A 
ATOM     31  C   UNL     1       2.460   2.768  17.569  0.00  0.00    +0.000 A 
ATOM     32  C   UNL     1       3.405   3.693  17.130  0.00  0.00    +0.000 A 
ATOM     33  C   UNL     1       3.442   4.996  17.658  0.00  0.00    +0.000 A 
ATOM     34  C   UNL     1       4.449   5.965  17.101  0.00  0.00    +0.000 C 
ENDBRANCH  27  28
ENDBRANCH  26  27
ENDBRANCH   8  26
TORSDOF 7
ENDMDL
MODEL 5
REMARK VINA RESULT:      -6.9      6.201      9.704
REMARK  Name = 
REMARK  10 active torsions:
REMARK  status: ('A' for Active; 'I' for Inactive)
REMARK    1  A    between atoms: C_1  and  C_2
REMARK    2  A    between atoms: C_2  and  O_3
REMARK    3  A    between atoms: O_3  and  C_4
REMARK    4  A    between atoms: C_7  and  C_8
REMARK    5  A    between atoms: C_15  and  S_16
REMARK    6  A    between atoms: S_16  and  C_17
REMARK    7  A    between atoms: C_17  and  C_18
REMARK    8  A    between atoms: C_23  and  C_24
REMARK    9  A    between atoms: C_30  and  O_31
REMARK   10  A    between atoms: O_31  and  C_32
REMARK                            x       y       z     vdW  Elec       q    Type
REMARK                         _______ _______ _______ _____ _____    ______ ____
ROOT
ATOM      1  C   UNL     1      -0.483  10.929  20.340  0.00  0.00    +0.000 C 
ATOM      2  C   UNL     1      -1.012  10.676  21.755  0.00  0.00    +0.000 C 
ATOM      3  C   UNL     1      -0.017   9.943  22.630  0.00  0.00    +0.000 C 
ATOM      4  O   UNL     1       0.015  10.091  23.849  0.00  0.00    +0.000 OA
ATOM      5  N   UNL     1       0.799   9.037  21.999  0.00  0.00    +0.000 N 
ATOM      6  C   UNL     1       0.941   8.895  20.649  0.00  0.00    +0.000 A 
ATOM      7  N   UNL     1       1.826   7.927  20.245  0.00  0.00    +0.000 NA
ATOM      8  C   UNL     1       2.079   7.887  18.979  0.00  0.00    +0.000 A 
ATOM      9  N   UNL     1       1.480   8.682  18.053  0.00  0.00    +0.000 N 
ATOM     10  C   UNL     1       0.516   9.585  18.388  0.00  0.00    +0.000 A 
ATOM     11  O   UNL     1      -0.136  10.200  17.552  0.00  0.00    +0.000 OA
ATOM     12  C   UNL     1       0.316   9.758  19.836  0.00  0.00    +0.000 A 
ATOM     13  H   UNL     1       1.393   8.471  22.593  0.00  0.00    +0.000 HD
ATOM     14  H   UNL     1       1.688   8.555  17.077  0.00  0.00    +0.000 HD
ENDROOT
BRANCH   1  18
ATOM     15  C   UNL     1       1.926  14.520  19.814  0.00  0.00    +0.000 A 
ATOM     16  C   UNL     1       2.422  13.424  20.538  0.00  0.00    +0.000 A 
ATOM     17  C   UNL     1       1.654  12.279  20.737  0.00  0.00    +0.000 A 
ATOM     18  C   UNL     1       0.344  12.210  20.259  0.00  0.00    +0.000 A 
ATOM     19  C   UNL     1      -0.184  13.345  19.628  0.00  0.00    +0.000 A 
ATOM     20  C   UNL     1       0.586  14.502  19.402  0.00  0.00    +0.000 A 
BRANCH  20  21
ATOM     21  O   UNL     1      -0.139  15.463  18.751  0.00  0.00    +0.000 OA
ATOM     22  C   UNL     1      -0.813  16.458  19.498  0.00  0.00    +0.000 C 
ENDBRANCH  20  21
BRANCH  15  23
ATOM     23  O   UNL     1       2.734  15.585  19.499  0.00  0.00    +0.000 OA
BRANCH  23  25
ATOM     24  C   UNL     1       3.546  15.633  17.230  0.00  0.00    +0.000 C 
ATOM     25  C   UNL     1       3.857  15.266  18.666  0.00  0.00    +0.000 C 
ENDBRANCH  23  25
ENDBRANCH  15  23
ENDBRANCH   1  18
BRANCH   8  26
ATOM     26  S   UNL     1       3.253   6.868  18.214  0.00  0.00    +0.000 S 
BRANCH  26  27
ATOM     27  C   UNL     1       2.319   5.354  17.891  0.00  0.00    +0.000 C 
BRANCH  27  28
ATOM     28  C   UNL     1       2.423   4.386  19.058  0.00  0.00    +0.000 A 
ATOM     29  C   UNL     1       1.378   4.348  20.003  0.00  0.00    +0.000 A 
ATOM     30  C   UNL     1       1.436   3.502  21.113  0.00  0.00    +0.000 A 
ATOM     31  C   UNL     1       2.543   2.684  21.304  0.00  0.00    +0.000 A 
ATOM     32  C   UNL     1       3.572   2.681  20.365  0.00  0.00    +0.000 A 
ATOM     33  C   UNL     1       3.514   3.503  19.224  0.00  0.00    +0.000 A 
ATOM     34  C   UNL     1       4.630   3.411  18.219  0.00  0.00    +0.000 C 
ENDBRANCH  27  28
ENDBRANCH  26  27
ENDBRANCH   8  26
TORSDOF 7
ENDMDL
MODEL 6
REMARK VINA RESULT:      -6.8      5.160      8.970
REMARK  Name = 
REMARK  10 active torsions:
REMARK  status: ('A' for Active; 'I' for Inactive)
REMARK    1  A    between atoms: C_1  and  C_2
REMARK    2  A    between atoms: C_2  and  O_3
REMARK    3  A    between atoms: O_3  and  C_4
REMARK    4  A    between atoms: C_7  and  C_8
REMARK    5  A    between atoms: C_15  and  S_16
REMARK    6  A    between atoms: S_16  and  C_17
REMARK    7  A    between atoms: C_17  and  C_18
REMARK    8  A    between atoms: C_23  and  C_24
REMARK    9  A    between atoms: C_30  and  O_31
REMARK   10  A    between atoms: O_31  and  C_32
REMARK                            x       y       z     vdW  Elec       q    Type
REMARK                         _______ _______ _______ _____ _____    ______ ____
ROOT
ATOM      1  C   UNL     1      -0.606  12.104  20.426  0.00  0.00    +0.000 C 
ATOM      2  C   UNL     1      -0.090  13.541  20.314  0.00  0.00    +0.000 C 
ATOM      3  C   UNL     1       0.635  13.804  19.012  0.00  0.00    +0.000 C 
ATOM      4  O   UNL     1       0.661  14.915  18.489  0.00  0.00    +0.000 OA
ATOM      5  N   UNL     1       1.336  12.749  18.480  0.00  0.00    +0.000 N 
ATOM      6  C   UNL     1       1.264  11.452  18.898  0.00  0.00    +0.000 A 
ATOM      7  N   UNL     1       2.050  10.563  18.209  0.00  0.00    +0.000 NA
ATOM      8  C   UNL     1       1.877   9.316  18.496  0.00  0.00    +0.000 A 
ATOM      9  N   UNL     1       1.035   8.862  19.462  0.00  0.00    +0.000 N 
ATOM     10  C   UNL     1       0.312   9.708  20.249  0.00  0.00    +0.000 A 
ATOM     11  O   UNL     1      -0.334   9.325  21.218  0.00  0.00    +0.000 OA
ATOM     12  C   UNL     1       0.374  11.122  19.846  0.00  0.00    +0.000 A 
ATOM     13  H   UNL     1       1.905  12.947  17.667  0.00  0.00    +0.000 HD
ATOM     14  H   UNL     1       0.994   7.878  19.667  0.00  0.00    +0.000 HD
ENDROOT
BRANCH   1  18
ATOM     15  C   UNL     1      -4.418  11.803  18.339  0.00  0.00    +0.000 A 
ATOM     16  C   UNL     1      -4.303  12.561  19.515  0.00  0.00    +0.000 A 
ATOM     17  C   UNL     1      -3.097  12.646  20.208  0.00  0.00    +0.000 A 
ATOM     18  C   UNL     1      -1.976  11.935  19.774  0.00  0.00    +0.000 A 
ATOM     19  C   UNL     1      -2.123  11.097  18.659  0.00  0.00    +0.000 A 
ATOM     20  C   UNL     1      -3.329  11.017  17.937  0.00  0.00    +0.000 A 
BRANCH  20  21
ATOM     21  O   UNL     1      -3.219  10.153  16.881  0.00  0.00    +0.000 OA
ATOM     22  C   UNL     1      -2.881  10.651  15.600  0.00  0.00    +0.000 C 
ENDBRANCH  20  21
BRANCH  15  23
ATOM     23  O   UNL     1      -5.565  11.837  17.584  0.00  0.00    +0.000 OA
BRANCH  23  25
ATOM     24  C   UNL     1      -7.634  12.730  18.440  0.00  0.00    +0.000 C 
ATOM     25  C   UNL     1      -6.765  11.498  18.293  0.00  0.00    +0.000 C 
ENDBRANCH  23  25
ENDBRANCH  15  23
ENDBRANCH   1  18
BRANCH   8  26
ATOM     26  S   UNL     1       2.626   7.978  17.688  0.00  0.00    +0.000 S 
BRANCH  26  27
ATOM     27  C   UNL     1       2.933   6.816  19.039  0.00  0.00    +0.000 C 
BRANCH  27  28
ATOM     28  C   UNL     1       3.009   5.387  18.527  0.00  0.00    +0.000 A 
ATOM     29  C   UNL     1       1.854   4.804  17.968  0.00  0.00    +0.000 A 
ATOM     30  C   UNL     1       1.857   3.485  17.512  0.00  0.00    +0.000 A 
ATOM     31  C   UNL     1       3.012   2.719  17.615  0.00  0.00    +0.000 A 
ATOM     32  C   UNL     1       4.174   3.284  18.135  0.00  0.00    +0.000 A 
ATOM     33  C   UNL     1       4.197   4.623  18.568  0.00  0.00    +0.000 A 
ATOM     34  C   UNL     1       5.498   5.192  19.066  0.00  0.00    +0.000 C 
ENDBRANCH  27  28
ENDBRANCH  26  27
ENDBRANCH   8  26
TORSDOF 7
ENDMDL
MODEL 7
REMARK VINA RESULT:      -6.8      5.196      9.110
REMARK  Name = 
REMARK  10 active torsions:
REMARK  status: ('A' for Active; 'I' for Inactive)
REMARK    1  A    between atoms: C_1  and  C_2
REMARK    2  A    between atoms: C_2  and  O_3
REMARK    3  A    between atoms: O_3  and  C_4
REMARK    4  A    between atoms: C_7  and  C_8
REMARK    5  A    between atoms: C_15  and  S_16
REMARK    6  A    between atoms: S_16  and  C_17
REMARK    7  A    between atoms: C_17  and  C_18
REMARK    8  A    between atoms: C_23  and  C_24
REMARK    9  A    between atoms: C_30  and  O_31
REMARK   10  A    between atoms: O_31  and  C_32
REMARK                            x       y       z     vdW  Elec       q    Type
REMARK                         _______ _______ _______ _____ _____    ______ ____
ROOT
ATOM      1  C   UNL     1      -0.215  12.327  20.479  0.00  0.00    +0.000 C 
ATOM      2  C   UNL     1       0.462  13.689  20.297  0.00  0.00    +0.000 C 
ATOM      3  C   UNL     1       1.162  13.821  18.961  0.00  0.00    +0.000 C 
ATOM      4  O   UNL     1       1.298  14.904  18.398  0.00  0.00    +0.000 OA
ATOM      5  N   UNL     1       1.713  12.673  18.445  0.00  0.00    +0.000 N 
ATOM      6  C   UNL     1       1.505  11.408  18.912  0.00  0.00    +0.000 A 
ATOM      7  N   UNL     1       2.154  10.410  18.229  0.00  0.00    +0.000 NA
ATOM      8  C   UNL     1       1.845   9.203  18.568  0.00  0.00    +0.000 A 
ATOM      9  N   UNL     1       0.994   8.884  19.579  0.00  0.00    +0.000 N 
ATOM     10  C   UNL     1       0.407   9.835  20.358  0.00  0.00    +0.000 A 
ATOM     11  O   UNL     1      -0.241   9.563  21.362  0.00  0.00    +0.000 OA
ATOM     12  C   UNL     1       0.620  11.218  19.902  0.00  0.00    +0.000 A 
ATOM     13  H   UNL     1       2.270  12.776  17.606  0.00  0.00    +0.000 HD
ATOM     14  H   UNL     1       0.846   7.919  19.821  0.00  0.00    +0.000 HD
ENDROOT
BRANCH   1  18
ATOM     15  C   UNL     1      -4.294  12.038  18.977  0.00  0.00    +0.000 A 
ATOM     16  C   UNL     1      -3.218  11.522  18.236  0.00  0.00    +0.000 A 
ATOM     17  C   UNL     1      -1.906  11.630  18.691  0.00  0.00    +0.000 A 
ATOM     18  C   UNL     1      -1.620  12.301  19.881  0.00  0.00    +0.000 A 
ATOM     19  C   UNL     1      -2.684  12.905  20.565  0.00  0.00    +0.000 A 
ATOM     20  C   UNL     1      -4.017  12.787  20.129  0.00  0.00    +0.000 A 
BRANCH  20  21
ATOM     21  O   UNL     1      -4.876  13.440  20.971  0.00  0.00    +0.000 OA
ATOM     22  C   UNL     1      -5.023  12.993  22.306  0.00  0.00    +0.000 C 
ENDBRANCH  20  21
BRANCH  15  23
ATOM     23  O   UNL     1      -5.593  11.805  18.596  0.00  0.00    +0.000 OA
BRANCH  23  25
ATOM     24  C   UNL     1      -7.322  11.011  20.077  0.00  0.00    +0.000 C 
ATOM     25  C   UNL     1      -6.183  10.623  19.156  0.00  0.00    +0.000 C 
ENDBRANCH  23  25
ENDBRANCH  15  23
ENDBRANCH   1  18
BRANCH   8  26
ATOM     26  S   UNL     1       2.400   7.760  17.784  0.00  0.00    +0.000 S 
BRANCH  26  27
ATOM     27  C   UNL     1       2.565   6.596  19.159  0.00  0.00    +0.000 C 
BRANCH  27  28
ATOM     28  C   UNL     1       2.531   5.159  18.668  0.00  0.00    +0.000 A 
ATOM     29  C   UNL     1       3.314   4.804  17.551  0.00  0.00    +0.000 A 
ATOM     30  C   UNL     1       3.296   3.506  17.036  0.00  0.00    +0.000 A 
ATOM     31  C   UNL     1       2.489   2.540  17.622  0.00  0.00    +0.000 A 
ATOM     32  C   UNL     1       1.731   2.859  18.747  0.00  0.00    +0.000 A 
ATOM     33  C   UNL     1       1.762   4.153  19.298  0.00  0.00    +0.000 A 
ATOM     34  C   UNL     1       0.967   4.419  20.547  0.00  0.00    +0.000 C 
ENDBRANCH  27  28
ENDBRANCH  26  27
ENDBRANCH   8  26
TORSDOF 7
ENDMDL
MODEL 8
REMARK VINA RESULT:      -6.8      6.212      9.819
REMARK  Name = 
REMARK  10 active torsions:
REMARK  status: ('A' for Active; 'I' for Inactive)
REMARK    1  A    between atoms: C_1  and  C_2
REMARK    2  A    between atoms: C_2  and  O_3
REMARK    3  A    between atoms: O_3  and  C_4
REMARK    4  A    between atoms: C_7  and  C_8
REMARK    5  A    between atoms: C_15  and  S_16
REMARK    6  A    between atoms: S_16  and  C_17
REMARK    7  A    between atoms: C_17  and  C_18
REMARK    8  A    between atoms: C_23  and  C_24
REMARK    9  A    between atoms: C_30  and  O_31
REMARK   10  A    between atoms: O_31  and  C_32
REMARK                            x       y       z     vdW  Elec       q    Type
REMARK                         _______ _______ _______ _____ _____    ______ ____
ROOT
ATOM      1  C   UNL     1      -0.455  10.719  20.416  0.00  0.00    +0.000 C 
ATOM      2  C   UNL     1      -0.864  10.369  21.850  0.00  0.00    +0.000 C 
ATOM      3  C   UNL     1       0.242   9.682  22.623  0.00  0.00    +0.000 C 
ATOM      4  O   UNL     1       0.349   9.783  23.842  0.00  0.00    +0.000 OA
ATOM      5  N   UNL     1       1.079   8.868  21.898  0.00  0.00    +0.000 N 
ATOM      6  C   UNL     1       1.136   8.793  20.537  0.00  0.00    +0.000 A 
ATOM      7  N   UNL     1       2.061   7.914  20.031  0.00  0.00    +0.000 NA
ATOM      8  C   UNL     1       2.227   7.945  18.751  0.00  0.00    +0.000 A 
ATOM      9  N   UNL     1       1.507   8.727  17.903  0.00  0.00    +0.000 N 
ATOM     10  C   UNL     1       0.503   9.538  18.343  0.00  0.00    +0.000 A 
ATOM     11  O   UNL     1      -0.250  10.133  17.581  0.00  0.00    +0.000 OA
ATOM     12  C   UNL     1       0.392   9.636  19.807  0.00  0.00    +0.000 A 
ATOM     13  H   UNL     1       1.753   8.328  22.425  0.00  0.00    +0.000 HD
ATOM     14  H   UNL     1       1.655   8.657  16.911  0.00  0.00    +0.000 HD
ENDROOT
BRANCH   1  18
ATOM     15  C   UNL     1       1.591  14.529  19.890  0.00  0.00    +0.000 A 
ATOM     16  C   UNL     1       2.284  13.401  20.360  0.00  0.00    +0.000 A 
ATOM     17  C   UNL     1       1.638  12.183  20.558  0.00  0.00    +0.000 A 
ATOM     18  C   UNL     1       0.264  12.064  20.338  0.00  0.00    +0.000 A 
ATOM     19  C   UNL     1      -0.443  13.217  19.970  0.00  0.00    +0.000 A 
ATOM     20  C   UNL     1       0.199  14.449  19.746  0.00  0.00    +0.000 A 
BRANCH  20  21
ATOM     21  O   UNL     1      -0.696  15.416  19.374  0.00  0.00    +0.000 OA
ATOM     22  C   UNL     1      -1.168  16.341  20.336  0.00  0.00    +0.000 C 
ENDBRANCH  20  21
BRANCH  15  23
ATOM     23  O   UNL     1       2.258  15.684  19.562  0.00  0.00    +0.000 OA
BRANCH  23  25
ATOM     24  C   UNL     1       4.333  16.604  20.372  0.00  0.00    +0.000 C 
ATOM     25  C   UNL     1       2.866  16.365  20.668  0.00  0.00    +0.000 C 
ENDBRANCH  23  25
ENDBRANCH  15  23
ENDBRANCH   1  18
BRANCH   8  26
ATOM     26  S   UNL     1       3.419   7.053  17.863  0.00  0.00    +0.000 S 
BRANCH  26  27
ATOM     27  C   UNL     1       3.916   5.771  19.038  0.00  0.00    +0.000 C 
BRANCH  27  28
ATOM     28  C   UNL     1       3.081   4.514  18.865  0.00  0.00    +0.000 A 
ATOM     29  C   UNL     1       3.186   3.790  17.661  0.00  0.00    +0.000 A 
ATOM     30  C   UNL     1       2.417   2.646  17.434  0.00  0.00    +0.000 A 
ATOM     31  C   UNL     1       1.523   2.209  18.403  0.00  0.00    +0.000 A 
ATOM     32  C   UNL     1       1.426   2.891  19.614  0.00  0.00    +0.000 A 
ATOM     33  C   UNL     1       2.217   4.026  19.872  0.00  0.00    +0.000 A 
ATOM     34  C   UNL     1       2.107   4.683  21.221  0.00  0.00    +0.000 C 
ENDBRANCH  27  28
ENDBRANCH  26  27
ENDBRANCH   8  26
TORSDOF 7
ENDMDL
MODEL 9
REMARK VINA RESULT:      -6.7      6.308      9.939
REMARK  Name = 
REMARK  10 active torsions:
REMARK  status: ('A' for Active; 'I' for Inactive)
REMARK    1  A    between atoms: C_1  and  C_2
REMARK    2  A    between atoms: C_2  and  O_3
REMARK    3  A    between atoms: O_3  and  C_4
REMARK    4  A    between atoms: C_7  and  C_8
REMARK    5  A    between atoms: C_15  and  S_16
REMARK    6  A    between atoms: S_16  and  C_17
REMARK    7  A    between atoms: C_17  and  C_18
REMARK    8  A    between atoms: C_23  and  C_24
REMARK    9  A    between atoms: C_30  and  O_31
REMARK   10  A    between atoms: O_31  and  C_32
REMARK                            x       y       z     vdW  Elec       q    Type
REMARK                         _______ _______ _______ _____ _____    ______ ____
ROOT
ATOM      1  C   UNL     1      -0.582  10.750  20.269  0.00  0.00    +0.000 C 
ATOM      2  C   UNL     1      -0.963  10.482  21.727  0.00  0.00    +0.000 C 
ATOM      3  C   UNL     1       0.175   9.889  22.531  0.00  0.00    +0.000 C 
ATOM      4  O   UNL     1       0.289  10.076  23.739  0.00  0.00    +0.000 OA
ATOM      5  N   UNL     1       1.035   9.061  21.852  0.00  0.00    +0.000 N 
ATOM      6  C   UNL     1       1.082   8.896  20.498  0.00  0.00    +0.000 A 
ATOM      7  N   UNL     1       2.034   8.020  20.041  0.00  0.00    +0.000 NA
ATOM      8  C   UNL     1       2.187   7.972  18.760  0.00  0.00    +0.000 A 
ATOM      9  N   UNL     1       1.430   8.668  17.871  0.00  0.00    +0.000 N 
ATOM     10  C   UNL     1       0.401   9.468  18.267  0.00  0.00    +0.000 A 
ATOM     11  O   UNL     1      -0.382   9.983  17.476  0.00  0.00    +0.000 OA
ATOM     12  C   UNL     1       0.300   9.661  19.723  0.00  0.00    +0.000 A 
ATOM     13  H   UNL     1       1.734   8.582  22.406  0.00  0.00    +0.000 HD
ATOM     14  H   UNL     1       1.571   8.536  16.884  0.00  0.00    +0.000 HD
ENDROOT
BRANCH   1  18
ATOM     15  C   UNL     1       1.157  14.736  20.002  0.00  0.00    +0.000 A 
ATOM     16  C   UNL     1       0.230  14.292  19.045  0.00  0.00    +0.000 A 
ATOM     17  C   UNL     1      -0.315  13.011  19.102  0.00  0.00    +0.000 A 
ATOM     18  C   UNL     1       0.086  12.112  20.092  0.00  0.00    +0.000 A 
ATOM     19  C   UNL     1       1.087  12.523  20.983  0.00  0.00    +0.000 A 
ATOM     20  C   UNL     1       1.632  13.820  20.951  0.00  0.00    +0.000 A 
BRANCH  20  21
ATOM     21  O   UNL     1       2.573  13.988  21.931  0.00  0.00    +0.000 OA
ATOM     22  C   UNL     1       3.937  14.122  21.578  0.00  0.00    +0.000 C 
ENDBRANCH  20  21
BRANCH  15  23
ATOM     23  O   UNL     1       1.582  16.041  20.025  0.00  0.00    +0.000 OA
BRANCH  23  25
ATOM     24  C   UNL     1       2.144  17.737  21.644  0.00  0.00    +0.000 C 
ATOM     25  C   UNL     1       1.058  16.828  21.104  0.00  0.00    +0.000 C 
ENDBRANCH  23  25
ENDBRANCH  15  23
ENDBRANCH   1  18
BRANCH   8  26
ATOM     26  S   UNL     1       3.403   7.066  17.919  0.00  0.00    +0.000 S 
BRANCH  26  27
ATOM     27  C   UNL     1       3.804   5.750  19.093  0.00  0.00    +0.000 C 
BRANCH  27  28
ATOM     28  C   UNL     1       2.870   4.563  18.927  0.00  0.00    +0.000 A 
ATOM     29  C   UNL     1       1.746   4.460  19.771  0.00  0.00    +0.000 A 
ATOM     30  C   UNL     1       0.873   3.374  19.685  0.00  0.00    +0.000 A 
ATOM     31  C   UNL     1       1.110   2.365  18.760  0.00  0.00    +0.000 A 
ATOM     32  C   UNL     1       2.197   2.463  17.893  0.00  0.00    +0.000 A 
ATOM     33  C   UNL     1       3.068   3.566  17.944  0.00  0.00    +0.000 A 
ATOM     34  C   UNL     1       4.188   3.641  16.942  0.00  0.00    +0.000 C 
ENDBRANCH  27  28
ENDBRANCH  26  27
ENDBRANCH   8  26
TORSDOF 7
ENDMDL
