MODEL 1
REMARK VINA RESULT:      -6.8      0.000      0.000
REMARK  Name = 
REMARK  3 active torsions:
REMARK  status: ('A' for Active; 'I' for Inactive)
REMARK    1  A    between atoms: N_1  and  C_2
REMARK    2  A    between atoms: C_7  and  S_8
REMARK    3  A    between atoms: S_8  and  O_11
REMARK                            x       y       z     vdW  Elec       q    Type
REMARK                         _______ _______ _______ _____ _____    ______ ____
ROOT
ATOM      1  C   UNL     1       1.656   2.765  18.666  0.00  0.00    +0.000 C 
ATOM      2  C   UNL     1       1.528   4.297  18.469  0.00  0.00    +0.000 C 
ATOM      3  C   UNL     1       2.885   4.664  17.945  0.00  0.00    +0.000 A 
ATOM      4  C   UNL     1       3.438   5.931  17.844  0.00  0.00    +0.000 A 
ATOM      5  C   UNL     1       4.712   6.055  17.287  0.00  0.00    +0.000 A 
ATOM      6  C   UNL     1       5.402   4.910  16.849  0.00  0.00    +0.000 A 
ATOM      7  C   UNL     1       4.830   3.637  16.925  0.00  0.00    +0.000 A 
ATOM      8  C   UNL     1       3.569   3.532  17.488  0.00  0.00    +0.000 A 
ATOM      9  C   UNL     1       2.740   2.295  17.665  0.00  0.00    +0.000 C 
ENDROOT
BRANCH   1  10
ATOM     10  N   UNL     1       2.033   2.423  20.049  0.00  0.00    +0.000 NA
ATOM     11  H   UNL     1       1.878   3.227  20.655  0.00  0.00    +0.000 HD
ATOM     12  H   UNL     1       3.038   2.239  20.084  0.00  0.00    +0.000 HD
ENDBRANCH   1  10
BRANCH   6  13
ATOM     13  S   UNL     1       7.026   5.075  16.157  0.00  0.00    +0.000 S 
ATOM     14  O   UNL     1       7.017   4.421  14.861  0.00  0.00    +0.000 OA
ATOM     15  O   UNL     1       7.435   6.446  16.330  0.00  0.00    +0.000 OA
BRANCH  13  16
ATOM     16  O   UNL     1       7.952   4.139  17.092  0.00  0.00    +0.000 OA
ATOM     17  H   UNL     1       8.319   3.418  16.538  0.00  0.00    +0.000 HD
ENDBRANCH  13  16
ENDBRANCH   6  13
TORSDOF 3
ENDMDL
MODEL 2
REMARK VINA RESULT:      -6.8      0.907      1.118
REMARK  Name = 
REMARK  3 active torsions:
REMARK  status: ('A' for Active; 'I' for Inactive)
REMARK    1  A    between atoms: N_1  and  C_2
REMARK    2  A    between atoms: C_7  and  S_8
REMARK    3  A    between atoms: S_8  and  O_11
REMARK                            x       y       z     vdW  Elec       q    Type
REMARK                         _______ _______ _______ _____ _____    ______ ____
ROOT
ATOM      1  C   UNL     1       1.736   2.583  18.336  0.00  0.00    +0.000 C 
ATOM      2  C   UNL     1       1.481   4.064  17.958  0.00  0.00    +0.000 C 
ATOM      3  C   UNL     1       2.873   4.617  17.881  0.00  0.00    +0.000 A 
ATOM      4  C   UNL     1       3.253   5.949  17.845  0.00  0.00    +0.000 A 
ATOM      5  C   UNL     1       4.613   6.247  17.733  0.00  0.00    +0.000 A 
ATOM      6  C   UNL     1       5.557   5.207  17.664  0.00  0.00    +0.000 A 
ATOM      7  C   UNL     1       5.169   3.864  17.671  0.00  0.00    +0.000 A 
ATOM      8  C   UNL     1       3.817   3.587  17.791  0.00  0.00    +0.000 A 
ATOM      9  C   UNL     1       3.150   2.244  17.803  0.00  0.00    +0.000 C 
ENDROOT
BRANCH   1  10
ATOM     10  N   UNL     1       1.658   2.371  19.793  0.00  0.00    +0.000 NA
ATOM     11  H   UNL     1       2.194   1.543  20.047  0.00  0.00    +0.000 HD
ATOM     12  H   UNL     1       0.690   2.165  20.047  0.00  0.00    +0.000 HD
ENDBRANCH   1  10
BRANCH   6  13
ATOM     13  S   UNL     1       7.283   5.594  17.538  0.00  0.00    +0.000 S 
ATOM     14  O   UNL     1       7.474   6.341  16.309  0.00  0.00    +0.000 OA
ATOM     15  O   UNL     1       7.711   6.092  18.822  0.00  0.00    +0.000 OA
BRANCH  13  16
ATOM     16  O   UNL     1       7.991   4.167  17.277  0.00  0.00    +0.000 OA
ATOM     17  H   UNL     1       7.549   3.496  17.839  0.00  0.00    +0.000 HD
ENDBRANCH  13  16
ENDBRANCH   6  13
TORSDOF 3
ENDMDL
MODEL 3
REMARK VINA RESULT:      -6.8      0.365      1.074
REMARK  Name = 
REMARK  3 active torsions:
REMARK  status: ('A' for Active; 'I' for Inactive)
REMARK    1  A    between atoms: N_1  and  C_2
REMARK    2  A    between atoms: C_7  and  S_8
REMARK    3  A    between atoms: S_8  and  O_11
REMARK                            x       y       z     vdW  Elec       q    Type
REMARK                         _______ _______ _______ _____ _____    ______ ____
ROOT
ATOM      1  C   UNL     1       1.663   2.839  18.457  0.00  0.00    +0.000 C 
ATOM      2  C   UNL     1       1.529   4.379  18.341  0.00  0.00    +0.000 C 
ATOM      3  C   UNL     1       2.881   4.778  17.830  0.00  0.00    +0.000 A 
ATOM      4  C   UNL     1       3.430   6.051  17.791  0.00  0.00    +0.000 A 
ATOM      5  C   UNL     1       4.700   6.208  17.234  0.00  0.00    +0.000 A 
ATOM      6  C   UNL     1       5.391   5.090  16.733  0.00  0.00    +0.000 A 
ATOM      7  C   UNL     1       4.824   3.812  16.746  0.00  0.00    +0.000 A 
ATOM      8  C   UNL     1       3.566   3.673  17.311  0.00  0.00    +0.000 A 
ATOM      9  C   UNL     1       2.742   2.426  17.427  0.00  0.00    +0.000 C 
ENDROOT
BRANCH   1  10
ATOM     10  N   UNL     1       2.049   2.427  19.819  0.00  0.00    +0.000 NA
ATOM     11  H   UNL     1       2.972   1.997  19.796  0.00  0.00    +0.000 HD
ATOM     12  H   UNL     1       1.410   1.697  20.140  0.00  0.00    +0.000 HD
ENDBRANCH   1  10
BRANCH   6  13
ATOM     13  S   UNL     1       7.010   5.295  16.041  0.00  0.00    +0.000 S 
ATOM     14  O   UNL     1       7.884   4.328  16.679  0.00  0.00    +0.000 OA
ATOM     15  O   UNL     1       6.863   5.381  14.610  0.00  0.00    +0.000 OA
BRANCH  13  16
ATOM     16  O   UNL     1       7.499   6.731  16.596  0.00  0.00    +0.000 OA
ATOM     17  H   UNL     1       8.441   6.656  16.857  0.00  0.00    +0.000 HD
ENDBRANCH  13  16
ENDBRANCH   6  13
TORSDOF 3
ENDMDL
MODEL 4
REMARK VINA RESULT:      -6.7      0.421      1.286
REMARK  Name = 
REMARK  3 active torsions:
REMARK  status: ('A' for Active; 'I' for Inactive)
REMARK    1  A    between atoms: N_1  and  C_2
REMARK    2  A    between atoms: C_7  and  S_8
REMARK    3  A    between atoms: S_8  and  O_11
REMARK                            x       y       z     vdW  Elec       q    Type
REMARK                         _______ _______ _______ _____ _____    ______ ____
ROOT
ATOM      1  C   UNL     1       1.677   2.689  18.434  0.00  0.00    +0.000 C 
ATOM      2  C   UNL     1       1.442   4.215  18.300  0.00  0.00    +0.000 C 
ATOM      3  C   UNL     1       2.797   4.711  17.893  0.00  0.00    +0.000 A 
ATOM      4  C   UNL     1       3.254   6.020  17.891  0.00  0.00    +0.000 A 
ATOM      5  C   UNL     1       4.549   6.269  17.433  0.00  0.00    +0.000 A 
ATOM      6  C   UNL     1       5.355   5.204  16.993  0.00  0.00    +0.000 A 
ATOM      7  C   UNL     1       4.883   3.888  16.969  0.00  0.00    +0.000 A 
ATOM      8  C   UNL     1       3.598   3.659  17.435  0.00  0.00    +0.000 A 
ATOM      9  C   UNL     1       2.860   2.355  17.493  0.00  0.00    +0.000 C 
ENDROOT
BRANCH   1  10
ATOM     10  N   UNL     1       1.985   2.305  19.824  0.00  0.00    +0.000 NA
ATOM     11  H   UNL     1       1.636   3.019  20.461  0.00  0.00    +0.000 HD
ATOM     12  H   UNL     1       3.000   2.293  19.949  0.00  0.00    +0.000 HD
ENDBRANCH   1  10
BRANCH   6  13
ATOM     13  S   UNL     1       7.005   5.527  16.428  0.00  0.00    +0.000 S 
ATOM     14  O   UNL     1       7.305   6.915  16.727  0.00  0.00    +0.000 OA
ATOM     15  O   UNL     1       7.838   4.440  16.878  0.00  0.00    +0.000 OA
BRANCH  13  16
ATOM     16  O   UNL     1       6.893   5.459  14.819  0.00  0.00    +0.000 OA
ATOM     17  H   UNL     1       6.810   6.374  14.477  0.00  0.00    +0.000 HD
ENDBRANCH  13  16
ENDBRANCH   6  13
TORSDOF 3
ENDMDL
MODEL 5
REMARK VINA RESULT:      -6.6      1.739      1.954
REMARK  Name = 
REMARK  3 active torsions:
REMARK  status: ('A' for Active; 'I' for Inactive)
REMARK    1  A    between atoms: N_1  and  C_2
REMARK    2  A    between atoms: C_7  and  S_8
REMARK    3  A    between atoms: S_8  and  O_11
REMARK                            x       y       z     vdW  Elec       q    Type
REMARK                         _______ _______ _______ _____ _____    ______ ____
ROOT
ATOM      1  C   UNL     1       1.531   3.302  19.408  0.00  0.00    +0.000 C 
ATOM      2  C   UNL     1       1.563   4.337  18.256  0.00  0.00    +0.000 C 
ATOM      3  C   UNL     1       2.992   4.792  18.276  0.00  0.00    +0.000 A 
ATOM      4  C   UNL     1       3.536   5.901  17.647  0.00  0.00    +0.000 A 
ATOM      5  C   UNL     1       4.910   6.122  17.764  0.00  0.00    +0.000 A 
ATOM      6  C   UNL     1       5.703   5.230  18.509  0.00  0.00    +0.000 A 
ATOM      7  C   UNL     1       5.158   4.096  19.117  0.00  0.00    +0.000 A 
ATOM      8  C   UNL     1       3.792   3.898  18.998  0.00  0.00    +0.000 A 
ATOM      9  C   UNL     1       2.977   2.760  19.535  0.00  0.00    +0.000 C 
ENDROOT
BRANCH   1  10
ATOM     10  N   UNL     1       1.084   3.910  20.675  0.00  0.00    +0.000 NA
ATOM     11  H   UNL     1       0.636   3.202  21.254  0.00  0.00    +0.000 HD
ATOM     12  H   UNL     1       0.360   4.603  20.473  0.00  0.00    +0.000 HD
ENDBRANCH   1  10
BRANCH   6  13
ATOM     13  S   UNL     1       7.445   5.526  18.666  0.00  0.00    +0.000 S 
ATOM     14  O   UNL     1       8.134   4.361  18.145  0.00  0.00    +0.000 OA
ATOM     15  O   UNL     1       7.704   6.859  18.183  0.00  0.00    +0.000 OA
BRANCH  13  16
ATOM     16  O   UNL     1       7.710   5.495  20.258  0.00  0.00    +0.000 OA
ATOM     17  H   UNL     1       7.228   4.729  20.636  0.00  0.00    +0.000 HD
ENDBRANCH  13  16
ENDBRANCH   6  13
TORSDOF 3
ENDMDL
MODEL 6
REMARK VINA RESULT:      -6.6      0.873      1.103
REMARK  Name = 
REMARK  3 active torsions:
REMARK  status: ('A' for Active; 'I' for Inactive)
REMARK    1  A    between atoms: N_1  and  C_2
REMARK    2  A    between atoms: C_7  and  S_8
REMARK    3  A    between atoms: S_8  and  O_11
REMARK                            x       y       z     vdW  Elec       q    Type
REMARK                         _______ _______ _______ _____ _____    ______ ____
ROOT
ATOM      1  C   UNL     1       1.720   2.641  18.304  0.00  0.00    +0.000 C 
ATOM      2  C   UNL     1       1.498   4.130  17.935  0.00  0.00    +0.000 C 
ATOM      3  C   UNL     1       2.902   4.643  17.829  0.00  0.00    +0.000 A 
ATOM      4  C   UNL     1       3.319   5.965  17.787  0.00  0.00    +0.000 A 
ATOM      5  C   UNL     1       4.684   6.225  17.645  0.00  0.00    +0.000 A 
ATOM      6  C   UNL     1       5.596   5.159  17.553  0.00  0.00    +0.000 A 
ATOM      7  C   UNL     1       5.171   3.827  17.566  0.00  0.00    +0.000 A 
ATOM      8  C   UNL     1       3.815   3.588  17.715  0.00  0.00    +0.000 A 
ATOM      9  C   UNL     1       3.111   2.264  17.739  0.00  0.00    +0.000 C 
ENDROOT
BRANCH   1  10
ATOM     10  N   UNL     1       1.668   2.427  19.762  0.00  0.00    +0.000 NA
ATOM     11  H   UNL     1       0.770   2.019  20.016  0.00  0.00    +0.000 HD
ATOM     12  H   UNL     1       1.705   3.334  20.233  0.00  0.00    +0.000 HD
ENDBRANCH   1  10
BRANCH   6  13
ATOM     13  S   UNL     1       7.329   5.498  17.389  0.00  0.00    +0.000 S 
ATOM     14  O   UNL     1       8.004   4.231  17.175  0.00  0.00    +0.000 OA
ATOM     15  O   UNL     1       7.470   6.613  16.486  0.00  0.00    +0.000 OA
BRANCH  13  16
ATOM     16  O   UNL     1       7.782   5.970  18.866  0.00  0.00    +0.000 OA
ATOM     17  H   UNL     1       8.125   5.188  19.347  0.00  0.00    +0.000 HD
ENDBRANCH  13  16
ENDBRANCH   6  13
TORSDOF 3
ENDMDL
MODEL 7
REMARK VINA RESULT:      -6.6      1.628      2.157
REMARK  Name = 
REMARK  3 active torsions:
REMARK  status: ('A' for Active; 'I' for Inactive)
REMARK    1  A    between atoms: N_1  and  C_2
REMARK    2  A    between atoms: C_7  and  S_8
REMARK    3  A    between atoms: S_8  and  O_11
REMARK                            x       y       z     vdW  Elec       q    Type
REMARK                         _______ _______ _______ _____ _____    ______ ____
ROOT
ATOM      1  C   UNL     1       1.570   2.598  19.880  0.00  0.00    +0.000 C 
ATOM      2  C   UNL     1       1.758   2.507  18.344  0.00  0.00    +0.000 C 
ATOM      3  C   UNL     1       3.064   3.214  18.141  0.00  0.00    +0.000 A 
ATOM      4  C   UNL     1       3.602   3.673  16.949  0.00  0.00    +0.000 A 
ATOM      5  C   UNL     1       4.861   4.276  16.978  0.00  0.00    +0.000 A 
ATOM      6  C   UNL     1       5.549   4.407  18.198  0.00  0.00    +0.000 A 
ATOM      7  C   UNL     1       5.018   3.917  19.395  0.00  0.00    +0.000 A 
ATOM      8  C   UNL     1       3.764   3.330  19.348  0.00  0.00    +0.000 A 
ATOM      9  C   UNL     1       2.993   2.716  20.478  0.00  0.00    +0.000 C 
ENDROOT
BRANCH   1  10
ATOM     10  N   UNL     1       0.742   3.758  20.259  0.00  0.00    +0.000 NA
ATOM     11  H   UNL     1       0.992   4.064  21.198  0.00  0.00    +0.000 HD
ATOM     12  H   UNL     1      -0.236   3.465  20.313  0.00  0.00    +0.000 HD
ENDBRANCH   1  10
BRANCH   6  13
ATOM     13  S   UNL     1       7.141   5.188  18.229  0.00  0.00    +0.000 S 
ATOM     14  O   UNL     1       7.127   6.248  17.239  0.00  0.00    +0.000 OA
ATOM     15  O   UNL     1       7.482   5.422  19.610  0.00  0.00    +0.000 OA
BRANCH  13  16
ATOM     16  O   UNL     1       8.142   4.070  17.633  0.00  0.00    +0.000 OA
ATOM     17  H   UNL     1       7.910   3.204  18.032  0.00  0.00    +0.000 HD
ENDBRANCH  13  16
ENDBRANCH   6  13
TORSDOF 3
ENDMDL
MODEL 8
REMARK VINA RESULT:      -6.6      1.112      1.617
REMARK  Name = 
REMARK  3 active torsions:
REMARK  status: ('A' for Active; 'I' for Inactive)
REMARK    1  A    between atoms: N_1  and  C_2
REMARK    2  A    between atoms: C_7  and  S_8
REMARK    3  A    between atoms: S_8  and  O_11
REMARK                            x       y       z     vdW  Elec       q    Type
REMARK                         _______ _______ _______ _____ _____    ______ ____
ROOT
ATOM      1  C   UNL     1       1.307   3.304  18.628  0.00  0.00    +0.000 C 
ATOM      2  C   UNL     1       2.016   4.273  19.608  0.00  0.00    +0.000 C 
ATOM      3  C   UNL     1       3.363   4.441  18.970  0.00  0.00    +0.000 A 
ATOM      4  C   UNL     1       4.507   4.981  19.538  0.00  0.00    +0.000 A 
ATOM      5  C   UNL     1       5.654   5.080  18.748  0.00  0.00    +0.000 A 
ATOM      6  C   UNL     1       5.630   4.635  17.415  0.00  0.00    +0.000 A 
ATOM      7  C   UNL     1       4.467   4.118  16.835  0.00  0.00    +0.000 A 
ATOM      8  C   UNL     1       3.341   4.019  17.636  0.00  0.00    +0.000 A 
ATOM      9  C   UNL     1       1.979   3.523  17.251  0.00  0.00    +0.000 C 
ENDROOT
BRANCH   1  10
ATOM     10  N   UNL     1       1.436   1.901  19.061  0.00  0.00    +0.000 NA
ATOM     11  H   UNL     1       1.093   1.284  18.326  0.00  0.00    +0.000 HD
ATOM     12  H   UNL     1       0.824   1.743  19.864  0.00  0.00    +0.000 HD
ENDBRANCH   1  10
BRANCH   6  13
ATOM     13  S   UNL     1       7.096   4.750  16.424  0.00  0.00    +0.000 S 
ATOM     14  O   UNL     1       8.192   4.200  17.200  0.00  0.00    +0.000 OA
ATOM     15  O   UNL     1       6.766   4.273  15.104  0.00  0.00    +0.000 OA
BRANCH  13  16
ATOM     16  O   UNL     1       7.395   6.335  16.340  0.00  0.00    +0.000 OA
ATOM     17  H   UNL     1       7.206   6.635  15.426  0.00  0.00    +0.000 HD
ENDBRANCH  13  16
ENDBRANCH   6  13
TORSDOF 3
ENDMDL
MODEL 9
REMARK VINA RESULT:      -6.6      0.996      1.679
REMARK  Name = 
REMARK  3 active torsions:
REMARK  status: ('A' for Active; 'I' for Inactive)
REMARK    1  A    between atoms: N_1  and  C_2
REMARK    2  A    between atoms: C_7  and  S_8
REMARK    3  A    between atoms: S_8  and  O_11
REMARK                            x       y       z     vdW  Elec       q    Type
REMARK                         _______ _______ _______ _____ _____    ______ ____
ROOT
ATOM      1  C   UNL     1       1.730   2.668  18.335  0.00  0.00    +0.000 C 
ATOM      2  C   UNL     1       1.508   4.127  17.859  0.00  0.00    +0.000 C 
ATOM      3  C   UNL     1       2.905   4.669  17.835  0.00  0.00    +0.000 A 
ATOM      4  C   UNL     1       3.297   5.996  17.746  0.00  0.00    +0.000 A 
ATOM      5  C   UNL     1       4.662   6.282  17.699  0.00  0.00    +0.000 A 
ATOM      6  C   UNL     1       5.601   5.236  17.745  0.00  0.00    +0.000 A 
ATOM      7  C   UNL     1       5.204   3.897  17.805  0.00  0.00    +0.000 A 
ATOM      8  C   UNL     1       3.845   3.632  17.860  0.00  0.00    +0.000 A 
ATOM      9  C   UNL     1       3.170   2.295  17.907  0.00  0.00    +0.000 C 
ENDROOT
BRANCH   1  10
ATOM     10  N   UNL     1       1.563   2.540  19.795  0.00  0.00    +0.000 NA
ATOM     11  H   UNL     1       0.572   2.503  20.023  0.00  0.00    +0.000 HD
ATOM     12  H   UNL     1       1.922   3.384  20.246  0.00  0.00    +0.000 HD
ENDBRANCH   1  10
BRANCH   6  13
ATOM     13  S   UNL     1       7.334   5.609  17.701  0.00  0.00    +0.000 S 
ATOM     14  O   UNL     1       7.695   6.163  18.992  0.00  0.00    +0.000 OA
ATOM     15  O   UNL     1       8.009   4.470  17.131  0.00  0.00    +0.000 OA
BRANCH  13  16
ATOM     16  O   UNL     1       7.448   6.845  16.667  0.00  0.00    +0.000 OA
ATOM     17  H   UNL     1       7.500   6.482  15.758  0.00  0.00    +0.000 HD
ENDBRANCH  13  16
ENDBRANCH   6  13
TORSDOF 3
ENDMDL
