MODEL 1
REMARK VINA RESULT:      -7.5      0.000      0.000
REMARK  Name = 
REMARK  7 active torsions:
REMARK  status: ('A' for Active; 'I' for Inactive)
REMARK    1  A    between atoms: C_1  and  C_2
REMARK    2  A    between atoms: C_2  and  C_3
REMARK    3  A    between atoms: C_6  and  N_7
REMARK    4  A    between atoms: N_7  and  C_8
REMARK    5  A    between atoms: N_7  and  S_12
REMARK    6  A    between atoms: S_12  and  C_15
REMARK    7  A    between atoms: C_24  and  C_25
REMARK                            x       y       z     vdW  Elec       q    Type
REMARK                         _______ _______ _______ _____ _____    ______ ____
ROOT
ATOM      1  C   UNL     1       0.217  14.389  20.854  0.00  0.00    +0.000 A 
ATOM      2  C   UNL     1      -0.382  15.350  20.026  0.00  0.00    +0.000 A 
ATOM      3  C   UNL     1      -1.658  15.849  20.365  0.00  0.00    +0.000 A 
ATOM      4  C   UNL     1      -2.271  15.413  21.540  0.00  0.00    +0.000 A 
ATOM      5  C   UNL     1      -1.443  14.846  22.496  0.00  0.00    +0.000 A 
ATOM      6  C   UNL     1      -0.259  14.217  22.145  0.00  0.00    +0.000 A 
ATOM      7  C   UNL     1      -2.061  14.506  23.747  0.00  0.00    +0.000 C 
ATOM      8  O   UNL     1      -1.669  14.927  24.820  0.00  0.00    +0.000 OA
ATOM      9  C   UNL     1      -3.265  13.704  23.501  0.00  0.00    +0.000 C 
ATOM     10  C   UNL     1      -4.227  14.673  22.818  0.00  0.00    +0.000 C 
ATOM     11  O   UNL     1      -3.659  15.335  21.627  0.00  0.00    +0.000 OA
ENDROOT
BRANCH  10  12
ATOM     12  C   UNL     1      -5.601  13.947  22.583  0.00  0.00    +0.000 C 
ATOM     13  C   UNL     1      -6.065  13.238  23.885  0.00  0.00    +0.000 C 
ATOM     14  C   UNL     1      -7.380  12.499  23.715  0.00  0.00    +0.000 C 
ATOM     15  O   UNL     1      -7.257  11.543  22.665  0.00  0.00    +0.000 OA
ATOM     16  C   UNL     1      -6.966  12.162  21.413  0.00  0.00    +0.000 C 
ATOM     17  C   UNL     1      -5.621  12.900  21.452  0.00  0.00    +0.000 C 
ENDBRANCH  10  12
BRANCH   1  18
ATOM     18  S   UNL     1       1.100  13.007  20.111  0.00  0.00    +0.000 S 
ATOM     19  O   UNL     1       2.379  12.917  20.771  0.00  0.00    +0.000 OA
ATOM     20  O   UNL     1       1.008  13.250  18.684  0.00  0.00    +0.000 OA
BRANCH  18  21
ATOM     21  N   UNL     1       0.161  11.622  20.454  0.00  0.00    +0.000 N 
BRANCH  21  25
ATOM     22  C   UNL     1      -2.689  10.736  17.450  0.00  0.00    +0.000 A 
ATOM     23  C   UNL     1      -2.982  11.665  18.457  0.00  0.00    +0.000 A 
ATOM     24  C   UNL     1      -2.061  11.938  19.469  0.00  0.00    +0.000 A 
ATOM     25  C   UNL     1      -0.832  11.283  19.480  0.00  0.00    +0.000 A 
ATOM     26  C   UNL     1      -0.534  10.337  18.493  0.00  0.00    +0.000 A 
ATOM     27  C   UNL     1      -1.463  10.060  17.486  0.00  0.00    +0.000 A 
BRANCH  22  29
ATOM     28  C   UNL     1      -2.926  10.251  14.986  0.00  0.00    +0.000 C 
ATOM     29  C   UNL     1      -3.657  10.523  16.310  0.00  0.00    +0.000 C 
ENDBRANCH  22  29
ENDBRANCH  21  25
BRANCH  21  30
ATOM     30  C   UNL     1       0.329  10.760  21.688  0.00  0.00    +0.000 C 
ATOM     31  C   UNL     1      -0.762  10.726  22.790  0.00  0.00    +0.000 C 
ATOM     32  C   UNL     1      -0.567   9.205  22.891  0.00  0.00    +0.000 C 
ATOM     33  C   UNL     1       0.116   9.236  21.521  0.00  0.00    +0.000 C 
ENDBRANCH  21  30
ENDBRANCH  18  21
ENDBRANCH   1  18
TORSDOF 6
ENDMDL
MODEL 2
REMARK VINA RESULT:      -7.3      6.194      8.455
REMARK  Name = 
REMARK  7 active torsions:
REMARK  status: ('A' for Active; 'I' for Inactive)
REMARK    1  A    between atoms: C_1  and  C_2
REMARK    2  A    between atoms: C_2  and  C_3
REMARK    3  A    between atoms: C_6  and  N_7
REMARK    4  A    between atoms: N_7  and  C_8
REMARK    5  A    between atoms: N_7  and  S_12
REMARK    6  A    between atoms: S_12  and  C_15
REMARK    7  A    between atoms: C_24  and  C_25
REMARK                            x       y       z     vdW  Elec       q    Type
REMARK                         _______ _______ _______ _____ _____    ______ ____
ROOT
ATOM      1  C   UNL     1       2.301   6.380  19.031  0.00  0.00    +0.000 A 
ATOM      2  C   UNL     1       2.533   7.175  17.899  0.00  0.00    +0.000 A 
ATOM      3  C   UNL     1       2.059   8.505  17.885  0.00  0.00    +0.000 A 
ATOM      4  C   UNL     1       1.417   9.012  19.015  0.00  0.00    +0.000 A 
ATOM      5  C   UNL     1       1.640   8.340  20.207  0.00  0.00    +0.000 A 
ATOM      6  C   UNL     1       1.956   6.990  20.227  0.00  0.00    +0.000 A 
ATOM      7  C   UNL     1       1.072   8.934  21.385  0.00  0.00    +0.000 C 
ATOM      8  O   UNL     1       1.731   9.234  22.364  0.00  0.00    +0.000 OA
ATOM      9  C   UNL     1      -0.350   9.217  21.158  0.00  0.00    +0.000 C 
ATOM     10  C   UNL     1      -0.348  10.320  20.102  0.00  0.00    +0.000 C 
ATOM     11  O   UNL     1       0.426   9.983  18.891  0.00  0.00    +0.000 OA
ENDROOT
BRANCH  10  12
ATOM     12  C   UNL     1      -1.829  10.776  19.838  0.00  0.00    +0.000 C 
ATOM     13  C   UNL     1      -2.218  10.510  18.358  0.00  0.00    +0.000 C 
ATOM     14  C   UNL     1      -3.634  10.951  18.034  0.00  0.00    +0.000 C 
ATOM     15  O   UNL     1      -3.781  12.338  18.329  0.00  0.00    +0.000 OA
ATOM     16  C   UNL     1      -3.568  12.614  19.712  0.00  0.00    +0.000 C 
ATOM     17  C   UNL     1      -2.139  12.255  20.142  0.00  0.00    +0.000 C 
ENDBRANCH  10  12
BRANCH   1  18
ATOM     18  S   UNL     1       1.831   4.655  18.821  0.00  0.00    +0.000 S 
ATOM     19  O   UNL     1       1.215   4.540  17.521  0.00  0.00    +0.000 OA
ATOM     20  O   UNL     1       1.097   4.335  20.029  0.00  0.00    +0.000 OA
BRANCH  18  21
ATOM     21  N   UNL     1       3.291   3.771  18.861  0.00  0.00    +0.000 N 
BRANCH  21  25
ATOM     22  C   UNL     1       6.630   5.970  17.466  0.00  0.00    +0.000 A 
ATOM     23  C   UNL     1       5.766   5.339  16.562  0.00  0.00    +0.000 A 
ATOM     24  C   UNL     1       4.682   4.584  17.015  0.00  0.00    +0.000 A 
ATOM     25  C   UNL     1       4.452   4.458  18.382  0.00  0.00    +0.000 A 
ATOM     26  C   UNL     1       5.319   5.065  19.298  0.00  0.00    +0.000 A 
ATOM     27  C   UNL     1       6.408   5.812  18.840  0.00  0.00    +0.000 A 
BRANCH  22  29
ATOM     28  C   UNL     1       7.767   8.210  17.690  0.00  0.00    +0.000 C 
ATOM     29  C   UNL     1       7.740   6.859  16.958  0.00  0.00    +0.000 C 
ENDBRANCH  22  29
ENDBRANCH  21  25
BRANCH  21  30
ATOM     30  C   UNL     1       3.416   2.350  19.371  0.00  0.00    +0.000 C 
ATOM     31  C   UNL     1       3.954   1.220  18.456  0.00  0.00    +0.000 C 
ATOM     32  C   UNL     1       4.765   0.684  19.647  0.00  0.00    +0.000 C 
ATOM     33  C   UNL     1       4.591   2.043  20.332  0.00  0.00    +0.000 C 
ENDBRANCH  21  30
ENDBRANCH  18  21
ENDBRANCH   1  18
TORSDOF 6
ENDMDL
MODEL 3
REMARK VINA RESULT:      -7.2      0.690      1.214
REMARK  Name = 
REMARK  7 active torsions:
REMARK  status: ('A' for Active; 'I' for Inactive)
REMARK    1  A    between atoms: C_1  and  C_2
REMARK    2  A    between atoms: C_2  and  C_3
REMARK    3  A    between atoms: C_6  and  N_7
REMARK    4  A    between atoms: N_7  and  C_8
REMARK    5  A    between atoms: N_7  and  S_12
REMARK    6  A    between atoms: S_12  and  C_15
REMARK    7  A    between atoms: C_24  and  C_25
REMARK                            x       y       z     vdW  Elec       q    Type
REMARK                         _______ _______ _______ _____ _____    ______ ____
ROOT
ATOM      1  C   UNL     1       0.462  14.396  20.772  0.00  0.00    +0.000 A 
ATOM      2  C   UNL     1      -0.141  15.412  20.014  0.00  0.00    +0.000 A 
ATOM      3  C   UNL     1      -1.365  15.961  20.452  0.00  0.00    +0.000 A 
ATOM      4  C   UNL     1      -1.921  15.518  21.652  0.00  0.00    +0.000 A 
ATOM      5  C   UNL     1      -1.061  14.882  22.534  0.00  0.00    +0.000 A 
ATOM      6  C   UNL     1       0.065  14.208  22.086  0.00  0.00    +0.000 A 
ATOM      7  C   UNL     1      -1.611  14.533  23.814  0.00  0.00    +0.000 C 
ATOM      8  O   UNL     1      -1.128  14.900  24.870  0.00  0.00    +0.000 OA
ATOM      9  C   UNL     1      -2.867  13.798  23.627  0.00  0.00    +0.000 C 
ATOM     10  C   UNL     1      -3.823  14.834  23.039  0.00  0.00    +0.000 C 
ATOM     11  O   UNL     1      -3.302  15.505  21.831  0.00  0.00    +0.000 OA
ENDROOT
BRANCH  10  12
ATOM     12  C   UNL     1      -5.244  14.183  22.876  0.00  0.00    +0.000 C 
ATOM     13  C   UNL     1      -5.524  13.200  24.047  0.00  0.00    +0.000 C 
ATOM     14  C   UNL     1      -6.876  12.522  23.934  0.00  0.00    +0.000 C 
ATOM     15  O   UNL     1      -6.960  11.826  22.693  0.00  0.00    +0.000 OA
ATOM     16  C   UNL     1      -6.846  12.711  21.578  0.00  0.00    +0.000 C 
ATOM     17  C   UNL     1      -5.484  13.417  21.559  0.00  0.00    +0.000 C 
ENDBRANCH  10  12
BRANCH   1  18
ATOM     18  S   UNL     1       1.223  12.998  19.932  0.00  0.00    +0.000 S 
ATOM     19  O   UNL     1       2.522  12.801  20.528  0.00  0.00    +0.000 OA
ATOM     20  O   UNL     1       1.084  13.309  18.523  0.00  0.00    +0.000 OA
BRANCH  18  21
ATOM     21  N   UNL     1       0.215  11.659  20.260  0.00  0.00    +0.000 N 
BRANCH  21  25
ATOM     22  C   UNL     1      -3.261  11.127  17.902  0.00  0.00    +0.000 A 
ATOM     23  C   UNL     1      -2.068  10.473  17.568  0.00  0.00    +0.000 A 
ATOM     24  C   UNL     1      -0.909  10.669  18.322  0.00  0.00    +0.000 A 
ATOM     25  C   UNL     1      -0.936  11.522  19.421  0.00  0.00    +0.000 A 
ATOM     26  C   UNL     1      -2.115  12.200  19.754  0.00  0.00    +0.000 A 
ATOM     27  C   UNL     1      -3.271  12.007  18.992  0.00  0.00    +0.000 A 
BRANCH  22  29
ATOM     28  C   UNL     1      -5.782  11.208  17.939  0.00  0.00    +0.000 C 
ATOM     29  C   UNL     1      -4.528  10.830  17.135  0.00  0.00    +0.000 C 
ENDBRANCH  22  29
ENDBRANCH  21  25
BRANCH  21  30
ATOM     30  C   UNL     1       0.476  10.640  21.350  0.00  0.00    +0.000 C 
ATOM     31  C   UNL     1      -0.413  10.585  22.619  0.00  0.00    +0.000 C 
ATOM     32  C   UNL     1      -0.394   9.051  22.528  0.00  0.00    +0.000 C 
ATOM     33  C   UNL     1       0.053   9.178  21.068  0.00  0.00    +0.000 C 
ENDBRANCH  21  30
ENDBRANCH  18  21
ENDBRANCH   1  18
TORSDOF 6
ENDMDL
MODEL 4
REMARK VINA RESULT:      -7.1      6.417      8.582
REMARK  Name = 
REMARK  7 active torsions:
REMARK  status: ('A' for Active; 'I' for Inactive)
REMARK    1  A    between atoms: C_1  and  C_2
REMARK    2  A    between atoms: C_2  and  C_3
REMARK    3  A    between atoms: C_6  and  N_7
REMARK    4  A    between atoms: N_7  and  C_8
REMARK    5  A    between atoms: N_7  and  S_12
REMARK    6  A    between atoms: S_12  and  C_15
REMARK    7  A    between atoms: C_24  and  C_25
REMARK                            x       y       z     vdW  Elec       q    Type
REMARK                         _______ _______ _______ _____ _____    ______ ____
ROOT
ATOM      1  C   UNL     1       2.385   6.185  18.988  0.00  0.00    +0.000 A 
ATOM      2  C   UNL     1       2.953   6.887  17.914  0.00  0.00    +0.000 A 
ATOM      3  C   UNL     1       2.678   8.264  17.771  0.00  0.00    +0.000 A 
ATOM      4  C   UNL     1       1.891   8.905  18.727  0.00  0.00    +0.000 A 
ATOM      5  C   UNL     1       1.768   8.271  19.953  0.00  0.00    +0.000 A 
ATOM      6  C   UNL     1       1.885   6.894  20.070  0.00  0.00    +0.000 A 
ATOM      7  C   UNL     1       1.053   8.992  20.969  0.00  0.00    +0.000 C 
ATOM      8  O   UNL     1       1.529   9.253  22.060  0.00  0.00    +0.000 OA
ATOM      9  C   UNL     1      -0.238   9.443  20.439  0.00  0.00    +0.000 C 
ATOM     10  C   UNL     1       0.133  10.482  19.384  0.00  0.00    +0.000 C 
ATOM     11  O   UNL     1       1.090   9.989  18.373  0.00  0.00    +0.000 OA
ENDROOT
BRANCH  10  12
ATOM     12  C   UNL     1      -1.184  11.111  18.801  0.00  0.00    +0.000 C 
ATOM     13  C   UNL     1      -2.036  11.731  19.943  0.00  0.00    +0.000 C 
ATOM     14  C   UNL     1      -3.335  12.336  19.444  0.00  0.00    +0.000 C 
ATOM     15  O   UNL     1      -4.095  11.342  18.763  0.00  0.00    +0.000 OA
ATOM     16  C   UNL     1      -3.407  10.837  17.618  0.00  0.00    +0.000 C 
ATOM     17  C   UNL     1      -2.094  10.149  18.012  0.00  0.00    +0.000 C 
ENDBRANCH  10  12
BRANCH   1  18
ATOM     18  S   UNL     1       1.738   4.527  18.720  0.00  0.00    +0.000 S 
ATOM     19  O   UNL     1       1.218   4.488  17.375  0.00  0.00    +0.000 OA
ATOM     20  O   UNL     1       0.879   4.290  19.863  0.00  0.00    +0.000 OA
BRANCH  18  21
ATOM     21  N   UNL     1       3.080   3.480  18.864  0.00  0.00    +0.000 N 
BRANCH  21  25
ATOM     22  C   UNL     1       6.323   4.527  16.351  0.00  0.00    +0.000 A 
ATOM     23  C   UNL     1       5.164   3.950  15.814  0.00  0.00    +0.000 A 
ATOM     24  C   UNL     1       4.104   3.572  16.640  0.00  0.00    +0.000 A 
ATOM     25  C   UNL     1       4.195   3.772  18.015  0.00  0.00    +0.000 A 
ATOM     26  C   UNL     1       5.354   4.327  18.568  0.00  0.00    +0.000 A 
ATOM     27  C   UNL     1       6.416   4.697  17.738  0.00  0.00    +0.000 A 
BRANCH  22  29
ATOM     28  C   UNL     1       7.053   4.823  13.955  0.00  0.00    +0.000 C 
ATOM     29  C   UNL     1       7.419   5.018  15.435  0.00  0.00    +0.000 C 
ENDBRANCH  22  29
ENDBRANCH  21  25
BRANCH  21  30
ATOM     30  C   UNL     1       3.150   2.307  19.820  0.00  0.00    +0.000 C 
ATOM     31  C   UNL     1       4.492   1.576  20.086  0.00  0.00    +0.000 C 
ATOM     32  C   UNL     1       4.126   1.517  21.578  0.00  0.00    +0.000 C 
ATOM     33  C   UNL     1       3.095   2.623  21.334  0.00  0.00    +0.000 C 
ENDBRANCH  21  30
ENDBRANCH  18  21
ENDBRANCH   1  18
TORSDOF 6
ENDMDL
MODEL 5
REMARK VINA RESULT:      -7.1      3.300      7.324
REMARK  Name = 
REMARK  7 active torsions:
REMARK  status: ('A' for Active; 'I' for Inactive)
REMARK    1  A    between atoms: C_1  and  C_2
REMARK    2  A    between atoms: C_2  and  C_3
REMARK    3  A    between atoms: C_6  and  N_7
REMARK    4  A    between atoms: N_7  and  C_8
REMARK    5  A    between atoms: N_7  and  S_12
REMARK    6  A    between atoms: S_12  and  C_15
REMARK    7  A    between atoms: C_24  and  C_25
REMARK                            x       y       z     vdW  Elec       q    Type
REMARK                         _______ _______ _______ _____ _____    ______ ____
ROOT
ATOM      1  C   UNL     1      -7.665  12.798  22.192  0.00  0.00    +0.000 A 
ATOM      2  C   UNL     1      -7.906  13.902  21.361  0.00  0.00    +0.000 A 
ATOM      3  C   UNL     1      -7.630  13.796  19.981  0.00  0.00    +0.000 A 
ATOM      4  C   UNL     1      -7.171  12.583  19.468  0.00  0.00    +0.000 A 
ATOM      5  C   UNL     1      -7.400  11.458  20.245  0.00  0.00    +0.000 A 
ATOM      6  C   UNL     1      -7.518  11.543  21.623  0.00  0.00    +0.000 A 
ATOM      7  C   UNL     1      -7.030  10.199  19.660  0.00  0.00    +0.000 C 
ATOM      8  O   UNL     1      -7.810   9.274  19.521  0.00  0.00    +0.000 OA
ATOM      9  C   UNL     1      -5.649  10.269  19.169  0.00  0.00    +0.000 C 
ATOM     10  C   UNL     1      -5.716  11.258  18.006  0.00  0.00    +0.000 C 
ATOM     11  O   UNL     1      -6.323  12.556  18.363  0.00  0.00    +0.000 OA
ENDROOT
BRANCH  10  12
ATOM     12  C   UNL     1      -4.299  11.351  17.333  0.00  0.00    +0.000 C 
ATOM     13  C   UNL     1      -4.341  10.743  15.904  0.00  0.00    +0.000 C 
ATOM     14  C   UNL     1      -2.993  10.784  15.208  0.00  0.00    +0.000 C 
ATOM     15  O   UNL     1      -2.028  10.092  15.996  0.00  0.00    +0.000 OA
ATOM     16  C   UNL     1      -1.852  10.698  17.275  0.00  0.00    +0.000 C 
ATOM     17  C   UNL     1      -3.149  10.664  18.096  0.00  0.00    +0.000 C 
ENDBRANCH  10  12
BRANCH   1  18
ATOM     18  S   UNL     1      -6.934  13.057  23.817  0.00  0.00    +0.000 S 
ATOM     19  O   UNL     1      -6.524  11.763  24.308  0.00  0.00    +0.000 OA
ATOM     20  O   UNL     1      -7.916  13.851  24.528  0.00  0.00    +0.000 OA
BRANCH  18  21
ATOM     21  N   UNL     1      -5.568  14.048  23.556  0.00  0.00    +0.000 N 
BRANCH  21  25
ATOM     22  C   UNL     1      -2.152  12.335  21.730  0.00  0.00    +0.000 A 
ATOM     23  C   UNL     1      -3.161  12.915  20.949  0.00  0.00    +0.000 A 
ATOM     24  C   UNL     1      -4.305  13.452  21.542  0.00  0.00    +0.000 A 
ATOM     25  C   UNL     1      -4.448  13.416  22.926  0.00  0.00    +0.000 A 
ATOM     26  C   UNL     1      -3.460  12.820  23.718  0.00  0.00    +0.000 A 
ATOM     27  C   UNL     1      -2.320  12.276  23.120  0.00  0.00    +0.000 A 
BRANCH  22  29
ATOM     28  C   UNL     1      -0.508  10.432  21.553  0.00  0.00    +0.000 C 
ATOM     29  C   UNL     1      -0.880  11.846  21.081  0.00  0.00    +0.000 C 
ENDBRANCH  22  29
ENDBRANCH  21  25
BRANCH  21  30
ATOM     30  C   UNL     1      -5.490  15.513  23.933  0.00  0.00    +0.000 C 
ATOM     31  C   UNL     1      -4.175  16.314  23.747  0.00  0.00    +0.000 C 
ATOM     32  C   UNL     1      -5.007  17.496  23.224  0.00  0.00    +0.000 C 
ATOM     33  C   UNL     1      -6.167  16.527  22.980  0.00  0.00    +0.000 C 
ENDBRANCH  21  30
ENDBRANCH  18  21
ENDBRANCH   1  18
TORSDOF 6
ENDMDL
MODEL 6
REMARK VINA RESULT:      -6.9      6.037      8.283
REMARK  Name = 
REMARK  7 active torsions:
REMARK  status: ('A' for Active; 'I' for Inactive)
REMARK    1  A    between atoms: C_1  and  C_2
REMARK    2  A    between atoms: C_2  and  C_3
REMARK    3  A    between atoms: C_6  and  N_7
REMARK    4  A    between atoms: N_7  and  C_8
REMARK    5  A    between atoms: N_7  and  S_12
REMARK    6  A    between atoms: S_12  and  C_15
REMARK    7  A    between atoms: C_24  and  C_25
REMARK                            x       y       z     vdW  Elec       q    Type
REMARK                         _______ _______ _______ _____ _____    ______ ____
ROOT
ATOM      1  C   UNL     1       2.312   6.583  19.059  0.00  0.00    +0.000 A 
ATOM      2  C   UNL     1       2.826   7.274  17.952  0.00  0.00    +0.000 A 
ATOM      3  C   UNL     1       2.438   8.614  17.738  0.00  0.00    +0.000 A 
ATOM      4  C   UNL     1       1.594   9.235  18.658  0.00  0.00    +0.000 A 
ATOM      5  C   UNL     1       1.516   8.655  19.915  0.00  0.00    +0.000 A 
ATOM      6  C   UNL     1       1.748   7.301  20.101  0.00  0.00    +0.000 A 
ATOM      7  C   UNL     1       0.737   9.363  20.892  0.00  0.00    +0.000 C 
ATOM      8  O   UNL     1       1.182   9.719  21.968  0.00  0.00    +0.000 OA
ATOM      9  C   UNL     1      -0.584   9.677  20.337  0.00  0.00    +0.000 C 
ATOM     10  C   UNL     1      -0.294  10.690  19.231  0.00  0.00    +0.000 C 
ATOM     11  O   UNL     1       0.706  10.228  18.249  0.00  0.00    +0.000 OA
ENDROOT
BRANCH  10  12
ATOM     12  C   UNL     1      -1.656  11.175  18.614  0.00  0.00    +0.000 C 
ATOM     13  C   UNL     1      -2.560  11.787  19.719  0.00  0.00    +0.000 C 
ATOM     14  C   UNL     1      -3.902  12.256  19.188  0.00  0.00    +0.000 C 
ATOM     15  O   UNL     1      -4.576  11.166  18.565  0.00  0.00    +0.000 OA
ATOM     16  C   UNL     1      -3.845  10.655  17.450  0.00  0.00    +0.000 C 
ATOM     17  C   UNL     1      -2.481  10.099  17.881  0.00  0.00    +0.000 C 
ENDBRANCH  10  12
BRANCH   1  18
ATOM     18  S   UNL     1       1.809   4.864  18.874  0.00  0.00    +0.000 S 
ATOM     19  O   UNL     1       1.251   4.727  17.550  0.00  0.00    +0.000 OA
ATOM     20  O   UNL     1       1.012   4.597  20.055  0.00  0.00    +0.000 OA
BRANCH  18  21
ATOM     21  N   UNL     1       3.242   3.947  19.007  0.00  0.00    +0.000 N 
BRANCH  21  25
ATOM     22  C   UNL     1       6.652   5.906  17.437  0.00  0.00    +0.000 A 
ATOM     23  C   UNL     1       5.721   5.302  16.581  0.00  0.00    +0.000 A 
ATOM     24  C   UNL     1       4.612   4.626  17.093  0.00  0.00    +0.000 A 
ATOM     25  C   UNL     1       4.424   4.551  18.470  0.00  0.00    +0.000 A 
ATOM     26  C   UNL     1       5.357   5.130  19.338  0.00  0.00    +0.000 A 
ATOM     27  C   UNL     1       6.470   5.799  18.821  0.00  0.00    +0.000 A 
BRANCH  22  29
ATOM     28  C   UNL     1       7.833   8.134  17.450  0.00  0.00    +0.000 C 
ATOM     29  C   UNL     1       7.793   6.713  16.866  0.00  0.00    +0.000 C 
ENDBRANCH  22  29
ENDBRANCH  21  25
BRANCH  21  30
ATOM     30  C   UNL     1       3.325   2.579  19.653  0.00  0.00    +0.000 C 
ATOM     31  C   UNL     1       4.659   1.788  19.674  0.00  0.00    +0.000 C 
ATOM     32  C   UNL     1       4.357   1.380  21.125  0.00  0.00    +0.000 C 
ATOM     33  C   UNL     1       3.344   2.526  21.200  0.00  0.00    +0.000 C 
ENDBRANCH  21  30
ENDBRANCH  18  21
ENDBRANCH   1  18
TORSDOF 6
ENDMDL
MODEL 7
REMARK VINA RESULT:      -6.9      6.068      8.318
REMARK  Name = 
REMARK  7 active torsions:
REMARK  status: ('A' for Active; 'I' for Inactive)
REMARK    1  A    between atoms: C_1  and  C_2
REMARK    2  A    between atoms: C_2  and  C_3
REMARK    3  A    between atoms: C_6  and  N_7
REMARK    4  A    between atoms: N_7  and  C_8
REMARK    5  A    between atoms: N_7  and  S_12
REMARK    6  A    between atoms: S_12  and  C_15
REMARK    7  A    between atoms: C_24  and  C_25
REMARK                            x       y       z     vdW  Elec       q    Type
REMARK                         _______ _______ _______ _____ _____    ______ ____
ROOT
ATOM      1  C   UNL     1       2.563   6.778  18.917  0.00  0.00    +0.000 A 
ATOM      2  C   UNL     1       2.754   7.592  17.791  0.00  0.00    +0.000 A 
ATOM      3  C   UNL     1       2.135   8.860  17.747  0.00  0.00    +0.000 A 
ATOM      4  C   UNL     1       1.391   9.294  18.844  0.00  0.00    +0.000 A 
ATOM      5  C   UNL     1       1.635   8.653  20.048  0.00  0.00    +0.000 A 
ATOM      6  C   UNL     1       2.098   7.348  20.092  0.00  0.00    +0.000 A 
ATOM      7  C   UNL     1       0.951   9.182  21.196  0.00  0.00    +0.000 C 
ATOM      8  O   UNL     1       1.528   9.556  22.201  0.00  0.00    +0.000 OA
ATOM      9  C   UNL     1      -0.482   9.302  20.905  0.00  0.00    +0.000 C 
ATOM     10  C   UNL     1      -0.557  10.397  19.843  0.00  0.00    +0.000 C 
ATOM     11  O   UNL     1       0.304  10.148  18.669  0.00  0.00    +0.000 OA
ENDROOT
BRANCH  10  12
ATOM     12  C   UNL     1      -2.066  10.683  19.510  0.00  0.00    +0.000 C 
ATOM     13  C   UNL     1      -2.397  10.215  18.066  0.00  0.00    +0.000 C 
ATOM     14  C   UNL     1      -3.839  10.485  17.678  0.00  0.00    +0.000 C 
ATOM     15  O   UNL     1      -4.116  11.877  17.806  0.00  0.00    +0.000 OA
ATOM     16  C   UNL     1      -3.958  12.329  19.151  0.00  0.00    +0.000 C 
ATOM     17  C   UNL     1      -2.513  12.154  19.636  0.00  0.00    +0.000 C 
ENDBRANCH  10  12
BRANCH   1  18
ATOM     18  S   UNL     1       2.299   5.011  18.697  0.00  0.00    +0.000 S 
ATOM     19  O   UNL     1       1.439   4.850  17.550  0.00  0.00    +0.000 OA
ATOM     20  O   UNL     1       1.894   4.544  20.008  0.00  0.00    +0.000 OA
BRANCH  18  21
ATOM     21  N   UNL     1       3.841   4.351  18.375  0.00  0.00    +0.000 N 
BRANCH  21  25
ATOM     22  C   UNL     1       7.043   7.014  17.608  0.00  0.00    +0.000 A 
ATOM     23  C   UNL     1       6.931   6.374  18.850  0.00  0.00    +0.000 A 
ATOM     24  C   UNL     1       5.860   5.521  19.121  0.00  0.00    +0.000 A 
ATOM     25  C   UNL     1       4.891   5.297  18.148  0.00  0.00    +0.000 A 
ATOM     26  C   UNL     1       4.977   5.946  16.911  0.00  0.00    +0.000 A 
ATOM     27  C   UNL     1       6.046   6.807  16.646  0.00  0.00    +0.000 A 
BRANCH  22  29
ATOM     28  C   UNL     1       8.287   9.142  18.141  0.00  0.00    +0.000 C 
ATOM     29  C   UNL     1       8.256   7.858  17.297  0.00  0.00    +0.000 C 
ENDBRANCH  22  29
ENDBRANCH  21  25
BRANCH  21  30
ATOM     30  C   UNL     1       4.144   2.867  18.330  0.00  0.00    +0.000 C 
ATOM     31  C   UNL     1       4.294   2.046  19.637  0.00  0.00    +0.000 C 
ATOM     32  C   UNL     1       3.493   0.911  18.978  0.00  0.00    +0.000 C 
ATOM     33  C   UNL     1       2.983   1.919  17.944  0.00  0.00    +0.000 C 
ENDBRANCH  21  30
ENDBRANCH  18  21
ENDBRANCH   1  18
TORSDOF 6
ENDMDL
MODEL 8
REMARK VINA RESULT:      -6.9      6.471      8.608
REMARK  Name = 
REMARK  7 active torsions:
REMARK  status: ('A' for Active; 'I' for Inactive)
REMARK    1  A    between atoms: C_1  and  C_2
REMARK    2  A    between atoms: C_2  and  C_3
REMARK    3  A    between atoms: C_6  and  N_7
REMARK    4  A    between atoms: N_7  and  C_8
REMARK    5  A    between atoms: N_7  and  S_12
REMARK    6  A    between atoms: S_12  and  C_15
REMARK    7  A    between atoms: C_24  and  C_25
REMARK                            x       y       z     vdW  Elec       q    Type
REMARK                         _______ _______ _______ _____ _____    ______ ____
ROOT
ATOM      1  C   UNL     1       2.334   6.170  19.030  0.00  0.00    +0.000 A 
ATOM      2  C   UNL     1       2.622   6.988  17.928  0.00  0.00    +0.000 A 
ATOM      3  C   UNL     1       2.202   8.336  17.944  0.00  0.00    +0.000 A 
ATOM      4  C   UNL     1       1.555   8.835  19.074  0.00  0.00    +0.000 A 
ATOM      5  C   UNL     1       1.724   8.120  20.249  0.00  0.00    +0.000 A 
ATOM      6  C   UNL     1       1.985   6.759  20.236  0.00  0.00    +0.000 A 
ATOM      7  C   UNL     1       1.153   8.702  21.432  0.00  0.00    +0.000 C 
ATOM      8  O   UNL     1       1.801   8.947  22.434  0.00  0.00    +0.000 OA
ATOM      9  C   UNL     1      -0.251   9.048  21.184  0.00  0.00    +0.000 C 
ATOM     10  C   UNL     1      -0.181  10.181  20.161  0.00  0.00    +0.000 C 
ATOM     11  O   UNL     1       0.607   9.849  18.958  0.00  0.00    +0.000 OA
ENDROOT
BRANCH  10  12
ATOM     12  C   UNL     1      -1.636  10.704  19.879  0.00  0.00    +0.000 C 
ATOM     13  C   UNL     1      -2.005  10.490  18.385  0.00  0.00    +0.000 C 
ATOM     14  C   UNL     1      -3.395  10.996  18.045  0.00  0.00    +0.000 C 
ATOM     15  O   UNL     1      -3.491  12.380  18.370  0.00  0.00    +0.000 OA
ATOM     16  C   UNL     1      -3.296  12.614  19.764  0.00  0.00    +0.000 C 
ATOM     17  C   UNL     1      -1.892  12.187  20.213  0.00  0.00    +0.000 C 
ENDBRANCH  10  12
BRANCH   1  18
ATOM     18  S   UNL     1       1.800   4.472  18.758  0.00  0.00    +0.000 S 
ATOM     19  O   UNL     1       1.174   4.429  17.458  0.00  0.00    +0.000 OA
ATOM     20  O   UNL     1       1.061   4.133  19.958  0.00  0.00    +0.000 OA
BRANCH  18  21
ATOM     21  N   UNL     1       3.227   3.536  18.756  0.00  0.00    +0.000 N 
BRANCH  21  25
ATOM     22  C   UNL     1       6.389   4.708  16.194  0.00  0.00    +0.000 A 
ATOM     23  C   UNL     1       6.484   4.906  17.578  0.00  0.00    +0.000 A 
ATOM     24  C   UNL     1       5.432   4.552  18.425  0.00  0.00    +0.000 A 
ATOM     25  C   UNL     1       4.274   3.993  17.893  0.00  0.00    +0.000 A 
ATOM     26  C   UNL     1       4.156   3.810  16.510  0.00  0.00    +0.000 A 
ATOM     27  C   UNL     1       5.208   4.173  15.665  0.00  0.00    +0.000 A 
BRANCH  22  29
ATOM     28  C   UNL     1       7.207   4.892  13.815  0.00  0.00    +0.000 C 
ATOM     29  C   UNL     1       7.571   5.008  15.304  0.00  0.00    +0.000 C 
ENDBRANCH  22  29
ENDBRANCH  21  25
BRANCH  21  30
ATOM     30  C   UNL     1       3.437   2.295  19.600  0.00  0.00    +0.000 C 
ATOM     31  C   UNL     1       4.739   1.462  19.479  0.00  0.00    +0.000 C 
ATOM     32  C   UNL     1       4.752   1.320  21.010  0.00  0.00    +0.000 C 
ATOM     33  C   UNL     1       3.786   2.506  21.093  0.00  0.00    +0.000 C 
ENDBRANCH  21  30
ENDBRANCH  18  21
ENDBRANCH   1  18
TORSDOF 6
ENDMDL
MODEL 9
REMARK VINA RESULT:      -6.7      6.294      8.325
REMARK  Name = 
REMARK  7 active torsions:
REMARK  status: ('A' for Active; 'I' for Inactive)
REMARK    1  A    between atoms: C_1  and  C_2
REMARK    2  A    between atoms: C_2  and  C_3
REMARK    3  A    between atoms: C_6  and  N_7
REMARK    4  A    between atoms: N_7  and  C_8
REMARK    5  A    between atoms: N_7  and  S_12
REMARK    6  A    between atoms: S_12  and  C_15
REMARK    7  A    between atoms: C_24  and  C_25
REMARK                            x       y       z     vdW  Elec       q    Type
REMARK                         _______ _______ _______ _____ _____    ______ ____
ROOT
ATOM      1  C   UNL     1       2.450   6.686  19.060  0.00  0.00    +0.000 A 
ATOM      2  C   UNL     1       2.660   7.437  17.894  0.00  0.00    +0.000 A 
ATOM      3  C   UNL     1       2.082   8.721  17.790  0.00  0.00    +0.000 A 
ATOM      4  C   UNL     1       1.358   9.231  18.867  0.00  0.00    +0.000 A 
ATOM      5  C   UNL     1       1.588   8.643  20.101  0.00  0.00    +0.000 A 
ATOM      6  C   UNL     1       2.010   7.327  20.207  0.00  0.00    +0.000 A 
ATOM      7  C   UNL     1       0.929   9.249  21.224  0.00  0.00    +0.000 C 
ATOM      8  O   UNL     1       1.523   9.654  22.207  0.00  0.00    +0.000 OA
ATOM      9  C   UNL     1      -0.502   9.401  20.934  0.00  0.00    +0.000 C 
ATOM     10  C   UNL     1      -0.547  10.444  19.819  0.00  0.00    +0.000 C 
ATOM     11  O   UNL     1       0.298  10.110  18.656  0.00  0.00    +0.000 OA
ENDROOT
BRANCH  10  12
ATOM     12  C   UNL     1      -2.049  10.762  19.479  0.00  0.00    +0.000 C 
ATOM     13  C   UNL     1      -2.400  10.246  18.056  0.00  0.00    +0.000 C 
ATOM     14  C   UNL     1      -3.834  10.544  17.661  0.00  0.00    +0.000 C 
ATOM     15  O   UNL     1      -4.068  11.947  17.734  0.00  0.00    +0.000 OA
ATOM     16  C   UNL     1      -3.892  12.448  19.058  0.00  0.00    +0.000 C 
ATOM     17  C   UNL     1      -2.451  12.249  19.546  0.00  0.00    +0.000 C 
ENDBRANCH  10  12
BRANCH   1  18
ATOM     18  S   UNL     1       2.129   4.919  18.929  0.00  0.00    +0.000 S 
ATOM     19  O   UNL     1       1.615   4.679  17.601  0.00  0.00    +0.000 OA
ATOM     20  O   UNL     1       1.339   4.612  20.104  0.00  0.00    +0.000 OA
BRANCH  18  21
ATOM     21  N   UNL     1       3.646   4.159  19.120  0.00  0.00    +0.000 N 
BRANCH  21  25
ATOM     22  C   UNL     1       6.247   4.709  15.824  0.00  0.00    +0.000 A 
ATOM     23  C   UNL     1       5.118   3.887  15.710  0.00  0.00    +0.000 A 
ATOM     24  C   UNL     1       4.274   3.674  16.802  0.00  0.00    +0.000 A 
ATOM     25  C   UNL     1       4.553   4.288  18.020  0.00  0.00    +0.000 A 
ATOM     26  C   UNL     1       5.688   5.094  18.155  0.00  0.00    +0.000 A 
ATOM     27  C   UNL     1       6.535   5.297  17.062  0.00  0.00    +0.000 A 
BRANCH  22  29
ATOM     28  C   UNL     1       6.670   4.157  13.400  0.00  0.00    +0.000 C 
ATOM     29  C   UNL     1       7.095   5.004  14.610  0.00  0.00    +0.000 C 
ENDBRANCH  22  29
ENDBRANCH  21  25
BRANCH  21  30
ATOM     30  C   UNL     1       4.068   3.392  20.356  0.00  0.00    +0.000 C 
ATOM     31  C   UNL     1       3.022   2.651  21.229  0.00  0.00    +0.000 C 
ATOM     32  C   UNL     1       4.007   1.476  21.354  0.00  0.00    +0.000 C 
ATOM     33  C   UNL     1       4.762   2.026  20.139  0.00  0.00    +0.000 C 
ENDBRANCH  21  30
ENDBRANCH  18  21
ENDBRANCH   1  18
TORSDOF 6
ENDMDL
