MODEL 1
REMARK VINA RESULT:      -7.1      0.000      0.000
REMARK  Name = 
REMARK  7 active torsions:
REMARK  status: ('A' for Active; 'I' for Inactive)
REMARK    1  A    between atoms: C_1  and  C_2
REMARK    2  A    between atoms: C_4  and  N_5
REMARK    3  A    between atoms: C_6  and  C_8
REMARK    4  A    between atoms: C_13  and  O_14
REMARK    5  A    between atoms: C_15  and  C_16
REMARK    6  A    between atoms: N_18  and  C_19
REMARK    7  A    between atoms: N_18  and  C_20
REMARK                            x       y       z     vdW  Elec       q    Type
REMARK                         _______ _______ _______ _____ _____    ______ ____
ROOT
ATOM      1  C   UNL     1       2.573   8.366  18.410  0.00  0.00    +0.000 C 
ATOM      2  C   UNL     1       3.130   6.984  18.231  0.00  0.00    +0.000 A 
ATOM      3  C   UNL     1       3.811   6.659  17.053  0.00  0.00    +0.000 A 
ATOM      4  C   UNL     1       4.437   5.426  16.887  0.00  0.00    +0.000 A 
ATOM      5  C   UNL     1       4.358   4.499  17.946  0.00  0.00    +0.000 A 
ATOM      6  C   UNL     1       3.617   4.768  19.122  0.00  0.00    +0.000 A 
ATOM      7  C   UNL     1       2.988   6.017  19.235  0.00  0.00    +0.000 A 
ENDROOT
BRANCH   6   8
ATOM      8  C   UNL     1       3.323   3.668  20.099  0.00  0.00    +0.000 C 
ATOM      9  O   UNL     1       4.273   2.946  20.375  0.00  0.00    +0.000 OA
ATOM     10  N   UNL     1       2.038   3.400  20.616  0.00  0.00    +0.000 N 
ATOM     11  C   UNL     1       0.811   4.163  20.465  0.00  0.00    +0.000 C 
ATOM     12  C   UNL     1       1.900   2.228  21.484  0.00  0.00    +0.000 C 
ENDBRANCH   6   8
BRANCH   4  13
ATOM     13  N   UNL     1       5.128   5.082  15.693  0.00  0.00    +0.000 N 
ATOM     14  C   UNL     1       6.462   5.362  15.405  0.00  0.00    +0.000 C 
ATOM     15  O   UNL     1       7.255   5.887  16.181  0.00  0.00    +0.000 OA
ATOM     16  H   UNL     1       4.633   4.523  15.005  0.00  0.00    +0.000 HD
BRANCH  14  17
ATOM     17  C   UNL     1       6.903   4.956  14.065  0.00  0.00    +0.000 A 
ATOM     18  N   UNL     1       6.307   3.919  13.382  0.00  0.00    +0.000 NA
ATOM     19  N   UNL     1       6.943   3.800  12.227  0.00  0.00    +0.000 NA
ATOM     20  N   UNL     1       7.880   4.747  12.260  0.00  0.00    +0.000 N 
ATOM     21  N   UNL     1       7.926   5.514  13.369  0.00  0.00    +0.000 NA
ATOM     22  H   UNL     1       8.524   4.875  11.482  0.00  0.00    +0.000 HD
ENDBRANCH  14  17
ENDBRANCH   4  13
BRANCH   5  23
ATOM     23  O   UNL     1       5.087   3.341  17.814  0.00  0.00    +0.000 OA
ATOM     24  H   UNL     1       4.544   2.629  18.195  0.00  0.00    +0.000 HD
ENDBRANCH   5  23
TORSDOF 4
ENDMDL
MODEL 2
REMARK VINA RESULT:      -6.9      2.653      4.168
REMARK  Name = 
REMARK  7 active torsions:
REMARK  status: ('A' for Active; 'I' for Inactive)
REMARK    1  A    between atoms: C_1  and  C_2
REMARK    2  A    between atoms: C_4  and  N_5
REMARK    3  A    between atoms: C_6  and  C_8
REMARK    4  A    between atoms: C_13  and  O_14
REMARK    5  A    between atoms: C_15  and  C_16
REMARK    6  A    between atoms: N_18  and  C_19
REMARK    7  A    between atoms: N_18  and  C_20
REMARK                            x       y       z     vdW  Elec       q    Type
REMARK                         _______ _______ _______ _____ _____    ______ ____
ROOT
ATOM      1  C   UNL     1       1.134   3.243  20.807  0.00  0.00    +0.000 C 
ATOM      2  C   UNL     1       1.752   4.449  20.162  0.00  0.00    +0.000 A 
ATOM      3  C   UNL     1       2.680   4.283  19.128  0.00  0.00    +0.000 A 
ATOM      4  C   UNL     1       3.197   5.370  18.428  0.00  0.00    +0.000 A 
ATOM      5  C   UNL     1       2.764   6.659  18.799  0.00  0.00    +0.000 A 
ATOM      6  C   UNL     1       1.881   6.868  19.886  0.00  0.00    +0.000 A 
ATOM      7  C   UNL     1       1.401   5.742  20.573  0.00  0.00    +0.000 A 
ENDROOT
BRANCH   6   8
ATOM      8  C   UNL     1       1.660   8.250  20.428  0.00  0.00    +0.000 C 
ATOM      9  O   UNL     1       1.961   8.404  21.605  0.00  0.00    +0.000 OA
ATOM     10  N   UNL     1       1.070   9.298  19.690  0.00  0.00    +0.000 N 
ATOM     11  C   UNL     1       0.705   9.337  18.284  0.00  0.00    +0.000 C 
ATOM     12  C   UNL     1       0.835  10.558  20.396  0.00  0.00    +0.000 C 
ENDBRANCH   6   8
BRANCH   4  13
ATOM     13  N   UNL     1       4.144   5.215  17.379  0.00  0.00    +0.000 N 
ATOM     14  C   UNL     1       5.478   4.844  17.523  0.00  0.00    +0.000 C 
ATOM     15  O   UNL     1       6.010   4.524  18.583  0.00  0.00    +0.000 OA
ATOM     16  H   UNL     1       3.813   5.319  16.424  0.00  0.00    +0.000 HD
BRANCH  14  17
ATOM     17  C   UNL     1       6.254   4.829  16.278  0.00  0.00    +0.000 A 
ATOM     18  N   UNL     1       7.232   5.762  16.014  0.00  0.00    +0.000 NA
ATOM     19  N   UNL     1       7.722   5.482  14.817  0.00  0.00    +0.000 NA
ATOM     20  N   UNL     1       7.033   4.415  14.412  0.00  0.00    +0.000 N 
ATOM     21  N   UNL     1       6.098   3.942  15.262  0.00  0.00    +0.000 NA
ATOM     22  H   UNL     1       7.211   3.988  13.505  0.00  0.00    +0.000 HD
ENDBRANCH  14  17
ENDBRANCH   4  13
BRANCH   5  23
ATOM     23  O   UNL     1       3.187   7.707  18.016  0.00  0.00    +0.000 OA
ATOM     24  H   UNL     1       3.008   8.518  18.522  0.00  0.00    +0.000 HD
ENDBRANCH   5  23
TORSDOF 4
ENDMDL
MODEL 3
REMARK VINA RESULT:      -6.9      1.965      2.670
REMARK  Name = 
REMARK  7 active torsions:
REMARK  status: ('A' for Active; 'I' for Inactive)
REMARK    1  A    between atoms: C_1  and  C_2
REMARK    2  A    between atoms: C_4  and  N_5
REMARK    3  A    between atoms: C_6  and  C_8
REMARK    4  A    between atoms: C_13  and  O_14
REMARK    5  A    between atoms: C_15  and  C_16
REMARK    6  A    between atoms: N_18  and  C_19
REMARK    7  A    between atoms: N_18  and  C_20
REMARK                            x       y       z     vdW  Elec       q    Type
REMARK                         _______ _______ _______ _____ _____    ______ ____
ROOT
ATOM      1  C   UNL     1       8.222   5.886  19.290  0.00  0.00    +0.000 C 
ATOM      2  C   UNL     1       6.966   5.374  18.647  0.00  0.00    +0.000 A 
ATOM      3  C   UNL     1       7.016   4.842  17.354  0.00  0.00    +0.000 A 
ATOM      4  C   UNL     1       5.901   4.258  16.759  0.00  0.00    +0.000 A 
ATOM      5  C   UNL     1       4.702   4.224  17.500  0.00  0.00    +0.000 A 
ATOM      6  C   UNL     1       4.596   4.816  18.782  0.00  0.00    +0.000 A 
ATOM      7  C   UNL     1       5.743   5.409  19.331  0.00  0.00    +0.000 A 
ENDROOT
BRANCH   6   8
ATOM      8  C   UNL     1       3.252   5.008  19.419  0.00  0.00    +0.000 C 
ATOM      9  O   UNL     1       2.770   6.128  19.296  0.00  0.00    +0.000 OA
ATOM     10  N   UNL     1       2.598   4.021  20.186  0.00  0.00    +0.000 N 
ATOM     11  C   UNL     1       2.965   2.631  20.397  0.00  0.00    +0.000 C 
ATOM     12  C   UNL     1       1.335   4.401  20.822  0.00  0.00    +0.000 C 
ENDBRANCH   6   8
BRANCH   4  13
ATOM     13  N   UNL     1       5.938   3.719  15.445  0.00  0.00    +0.000 N 
ATOM     14  C   UNL     1       6.354   4.384  14.294  0.00  0.00    +0.000 C 
ATOM     15  O   UNL     1       6.821   5.519  14.266  0.00  0.00    +0.000 OA
ATOM     16  H   UNL     1       5.702   2.737  15.329  0.00  0.00    +0.000 HD
BRANCH  14  17
ATOM     17  C   UNL     1       6.223   3.612  13.052  0.00  0.00    +0.000 A 
ATOM     18  N   UNL     1       4.996   3.228  12.556  0.00  0.00    +0.000 NA
ATOM     19  N   UNL     1       5.226   2.542  11.447  0.00  0.00    +0.000 NA
ATOM     20  N   UNL     1       6.552   2.536  11.323  0.00  0.00    +0.000 N 
ATOM     21  N   UNL     1       7.252   3.181  12.279  0.00  0.00    +0.000 NA
ATOM     22  H   UNL     1       7.004   2.066  10.541  0.00  0.00    +0.000 HD
ENDBRANCH  14  17
ENDBRANCH   4  13
BRANCH   5  23
ATOM     23  O   UNL     1       3.650   3.532  16.947  0.00  0.00    +0.000 OA
ATOM     24  H   UNL     1       3.011   3.383  17.666  0.00  0.00    +0.000 HD
ENDBRANCH   5  23
TORSDOF 4
ENDMDL
MODEL 4
REMARK VINA RESULT:      -6.9      1.071      1.380
REMARK  Name = 
REMARK  7 active torsions:
REMARK  status: ('A' for Active; 'I' for Inactive)
REMARK    1  A    between atoms: C_1  and  C_2
REMARK    2  A    between atoms: C_4  and  N_5
REMARK    3  A    between atoms: C_6  and  C_8
REMARK    4  A    between atoms: C_13  and  O_14
REMARK    5  A    between atoms: C_15  and  C_16
REMARK    6  A    between atoms: N_18  and  C_19
REMARK    7  A    between atoms: N_18  and  C_20
REMARK                            x       y       z     vdW  Elec       q    Type
REMARK                         _______ _______ _______ _____ _____    ______ ____
ROOT
ATOM      1  C   UNL     1       2.150   9.042  18.275  0.00  0.00    +0.000 C 
ATOM      2  C   UNL     1       2.608   7.614  18.327  0.00  0.00    +0.000 A 
ATOM      3  C   UNL     1       3.368   7.092  17.275  0.00  0.00    +0.000 A 
ATOM      4  C   UNL     1       3.906   5.808  17.328  0.00  0.00    +0.000 A 
ATOM      5  C   UNL     1       3.653   5.036  18.480  0.00  0.00    +0.000 A 
ATOM      6  C   UNL     1       2.830   5.506  19.531  0.00  0.00    +0.000 A 
ATOM      7  C   UNL     1       2.296   6.799  19.423  0.00  0.00    +0.000 A 
ENDROOT
BRANCH   6   8
ATOM      8  C   UNL     1       2.357   4.566  20.601  0.00  0.00    +0.000 C 
ATOM      9  O   UNL     1       2.761   4.816  21.731  0.00  0.00    +0.000 OA
ATOM     10  N   UNL     1       1.577   3.418  20.351  0.00  0.00    +0.000 N 
ATOM     11  C   UNL     1       0.954   2.986  19.111  0.00  0.00    +0.000 C 
ATOM     12  C   UNL     1       1.282   2.551  21.492  0.00  0.00    +0.000 C 
ENDBRANCH   6   8
BRANCH   4  13
ATOM     13  N   UNL     1       4.675   5.264  16.264  0.00  0.00    +0.000 N 
ATOM     14  C   UNL     1       5.956   5.661  15.889  0.00  0.00    +0.000 C 
ATOM     15  O   UNL     1       6.636   6.497  16.478  0.00  0.00    +0.000 OA
ATOM     16  H   UNL     1       4.293   4.468  15.763  0.00  0.00    +0.000 HD
BRANCH  14  17
ATOM     17  C   UNL     1       6.493   4.979  14.705  0.00  0.00    +0.000 A 
ATOM     18  N   UNL     1       7.550   5.489  13.984  0.00  0.00    +0.000 NA
ATOM     19  N   UNL     1       7.774   4.653  12.983  0.00  0.00    +0.000 NA
ATOM     20  N   UNL     1       6.861   3.694  13.133  0.00  0.00    +0.000 N 
ATOM     21  N   UNL     1       6.022   3.818  14.182  0.00  0.00    +0.000 NA
ATOM     22  H   UNL     1       6.809   2.912  12.483  0.00  0.00    +0.000 HD
ENDBRANCH  14  17
ENDBRANCH   4  13
BRANCH   5  23
ATOM     23  O   UNL     1       4.296   3.823  18.568  0.00  0.00    +0.000 OA
ATOM     24  H   UNL     1       4.822   3.731  17.755  0.00  0.00    +0.000 HD
ENDBRANCH   5  23
TORSDOF 4
ENDMDL
MODEL 5
REMARK VINA RESULT:      -6.9      3.738      4.827
REMARK  Name = 
REMARK  7 active torsions:
REMARK  status: ('A' for Active; 'I' for Inactive)
REMARK    1  A    between atoms: C_1  and  C_2
REMARK    2  A    between atoms: C_4  and  N_5
REMARK    3  A    between atoms: C_6  and  C_8
REMARK    4  A    between atoms: C_13  and  O_14
REMARK    5  A    between atoms: C_15  and  C_16
REMARK    6  A    between atoms: N_18  and  C_19
REMARK    7  A    between atoms: N_18  and  C_20
REMARK                            x       y       z     vdW  Elec       q    Type
REMARK                         _______ _______ _______ _____ _____    ______ ____
ROOT
ATOM      1  C   UNL     1       5.785   3.889  13.881  0.00  0.00    +0.000 C 
ATOM      2  C   UNL     1       5.717   4.447  15.273  0.00  0.00    +0.000 A 
ATOM      3  C   UNL     1       6.376   5.645  15.571  0.00  0.00    +0.000 A 
ATOM      4  C   UNL     1       6.253   6.257  16.816  0.00  0.00    +0.000 A 
ATOM      5  C   UNL     1       5.445   5.625  17.783  0.00  0.00    +0.000 A 
ATOM      6  C   UNL     1       4.822   4.378  17.539  0.00  0.00    +0.000 A 
ATOM      7  C   UNL     1       4.991   3.792  16.275  0.00  0.00    +0.000 A 
ENDROOT
BRANCH   6   8
ATOM      8  C   UNL     1       4.206   3.605  18.668  0.00  0.00    +0.000 C 
ATOM      9  O   UNL     1       4.997   3.165  19.493  0.00  0.00    +0.000 OA
ATOM     10  N   UNL     1       2.829   3.312  18.760  0.00  0.00    +0.000 N 
ATOM     11  C   UNL     1       1.733   3.786  17.932  0.00  0.00    +0.000 C 
ATOM     12  C   UNL     1       2.402   2.463  19.874  0.00  0.00    +0.000 C 
ENDBRANCH   6   8
BRANCH   4  13
ATOM     13  N   UNL     1       6.922   7.471  17.133  0.00  0.00    +0.000 N 
ATOM     14  C   UNL     1       7.882   7.646  18.126  0.00  0.00    +0.000 C 
ATOM     15  O   UNL     1       8.345   6.748  18.825  0.00  0.00    +0.000 OA
ATOM     16  H   UNL     1       6.737   8.279  16.547  0.00  0.00    +0.000 HD
BRANCH  14  17
ATOM     17  C   UNL     1       8.360   9.024  18.289  0.00  0.00    +0.000 A 
ATOM     18  N   UNL     1       7.994  10.031  17.423  0.00  0.00    +0.000 NA
ATOM     19  N   UNL     1       8.601  11.134  17.834  0.00  0.00    +0.000 NA
ATOM     20  N   UNL     1       9.296  10.756  18.906  0.00  0.00    +0.000 N 
ATOM     21  N   UNL     1       9.202   9.458  19.261  0.00  0.00    +0.000 NA
ATOM     22  H   UNL     1       9.866  11.421  19.424  0.00  0.00    +0.000 HD
ENDBRANCH  14  17
ENDBRANCH   4  13
BRANCH   5  23
ATOM     23  O   UNL     1       5.235   6.307  18.959  0.00  0.00    +0.000 OA
ATOM     24  H   UNL     1       5.786   5.871  19.632  0.00  0.00    +0.000 HD
ENDBRANCH   5  23
TORSDOF 4
ENDMDL
MODEL 6
REMARK VINA RESULT:      -6.8      1.299      1.514
REMARK  Name = 
REMARK  7 active torsions:
REMARK  status: ('A' for Active; 'I' for Inactive)
REMARK    1  A    between atoms: C_1  and  C_2
REMARK    2  A    between atoms: C_4  and  N_5
REMARK    3  A    between atoms: C_6  and  C_8
REMARK    4  A    between atoms: C_13  and  O_14
REMARK    5  A    between atoms: C_15  and  C_16
REMARK    6  A    between atoms: N_18  and  C_19
REMARK    7  A    between atoms: N_18  and  C_20
REMARK                            x       y       z     vdW  Elec       q    Type
REMARK                         _______ _______ _______ _____ _____    ______ ____
ROOT
ATOM      1  C   UNL     1       1.611   9.072  18.967  0.00  0.00    +0.000 C 
ATOM      2  C   UNL     1       2.194   7.690  18.912  0.00  0.00    +0.000 A 
ATOM      3  C   UNL     1       3.003   7.322  17.831  0.00  0.00    +0.000 A 
ATOM      4  C   UNL     1       3.652   6.091  17.789  0.00  0.00    +0.000 A 
ATOM      5  C   UNL     1       3.464   5.210  18.874  0.00  0.00    +0.000 A 
ATOM      6  C   UNL     1       2.597   5.521  19.949  0.00  0.00    +0.000 A 
ATOM      7  C   UNL     1       1.951   6.766  19.937  0.00  0.00    +0.000 A 
ENDROOT
BRANCH   6   8
ATOM      8  C   UNL     1       2.206   4.462  20.937  0.00  0.00    +0.000 C 
ATOM      9  O   UNL     1       2.650   4.612  22.069  0.00  0.00    +0.000 OA
ATOM     10  N   UNL     1       1.455   3.315  20.603  0.00  0.00    +0.000 N 
ATOM     11  C   UNL     1       0.792   2.986  19.352  0.00  0.00    +0.000 C 
ATOM     12  C   UNL     1       1.241   2.327  21.661  0.00  0.00    +0.000 C 
ENDBRANCH   6   8
BRANCH   4  13
ATOM     13  N   UNL     1       4.472   5.703  16.695  0.00  0.00    +0.000 N 
ATOM     14  C   UNL     1       5.855   5.548  16.717  0.00  0.00    +0.000 C 
ATOM     15  O   UNL     1       6.560   5.655  17.717  0.00  0.00    +0.000 OA
ATOM     16  H   UNL     1       4.011   5.451  15.825  0.00  0.00    +0.000 HD
BRANCH  14  17
ATOM     17  C   UNL     1       6.461   5.209  15.424  0.00  0.00    +0.000 A 
ATOM     18  N   UNL     1       5.832   4.387  14.515  0.00  0.00    +0.000 NA
ATOM     19  N   UNL     1       6.642   4.270  13.474  0.00  0.00    +0.000 NA
ATOM     20  N   UNL     1       7.706   5.007  13.791  0.00  0.00    +0.000 N 
ATOM     21  N   UNL     1       7.676   5.628  14.988  0.00  0.00    +0.000 NA
ATOM     22  H   UNL     1       8.496   5.090  13.154  0.00  0.00    +0.000 HD
ENDBRANCH  14  17
ENDBRANCH   4  13
BRANCH   5  23
ATOM     23  O   UNL     1       4.212   4.056  18.874  0.00  0.00    +0.000 OA
ATOM     24  H   UNL     1       3.578   3.318  18.889  0.00  0.00    +0.000 HD
ENDBRANCH   5  23
TORSDOF 4
ENDMDL
MODEL 7
REMARK VINA RESULT:      -6.8      3.025      4.304
REMARK  Name = 
REMARK  7 active torsions:
REMARK  status: ('A' for Active; 'I' for Inactive)
REMARK    1  A    between atoms: C_1  and  C_2
REMARK    2  A    between atoms: C_4  and  N_5
REMARK    3  A    between atoms: C_6  and  C_8
REMARK    4  A    between atoms: C_13  and  O_14
REMARK    5  A    between atoms: C_15  and  C_16
REMARK    6  A    between atoms: N_18  and  C_19
REMARK    7  A    between atoms: N_18  and  C_20
REMARK                            x       y       z     vdW  Elec       q    Type
REMARK                         _______ _______ _______ _____ _____    ______ ____
ROOT
ATOM      1  C   UNL     1       2.055   4.369  21.203  0.00  0.00    +0.000 C 
ATOM      2  C   UNL     1       2.336   5.507  20.267  0.00  0.00    +0.000 A 
ATOM      3  C   UNL     1       3.311   5.362  19.274  0.00  0.00    +0.000 A 
ATOM      4  C   UNL     1       3.532   6.349  18.316  0.00  0.00    +0.000 A 
ATOM      5  C   UNL     1       2.743   7.516  18.379  0.00  0.00    +0.000 A 
ATOM      6  C   UNL     1       1.798   7.726  19.412  0.00  0.00    +0.000 A 
ATOM      7  C   UNL     1       1.625   6.710  20.365  0.00  0.00    +0.000 A 
ENDROOT
BRANCH   6   8
ATOM      8  C   UNL     1       1.182   9.079  19.611  0.00  0.00    +0.000 C 
ATOM      9  O   UNL     1       0.825   9.647  18.585  0.00  0.00    +0.000 OA
ATOM     10  N   UNL     1       1.084   9.722  20.863  0.00  0.00    +0.000 N 
ATOM     11  C   UNL     1       1.387   9.202  22.186  0.00  0.00    +0.000 C 
ATOM     12  C   UNL     1       0.545  11.083  20.873  0.00  0.00    +0.000 C 
ENDBRANCH   6   8
BRANCH   4  13
ATOM     13  N   UNL     1       4.522   6.216  17.305  0.00  0.00    +0.000 N 
ATOM     14  C   UNL     1       4.821   5.058  16.593  0.00  0.00    +0.000 C 
ATOM     15  O   UNL     1       4.213   3.995  16.689  0.00  0.00    +0.000 OA
ATOM     16  H   UNL     1       5.023   7.053  17.021  0.00  0.00    +0.000 HD
BRANCH  14  17
ATOM     17  C   UNL     1       5.942   5.180  15.654  0.00  0.00    +0.000 A 
ATOM     18  N   UNL     1       5.878   4.685  14.370  0.00  0.00    +0.000 NA
ATOM     19  N   UNL     1       7.045   4.941  13.798  0.00  0.00    +0.000 NA
ATOM     20  N   UNL     1       7.752   5.563  14.740  0.00  0.00    +0.000 N 
ATOM     21  N   UNL     1       7.141   5.755  15.928  0.00  0.00    +0.000 NA
ATOM     22  H   UNL     1       8.705   5.874  14.562  0.00  0.00    +0.000 HD
ENDBRANCH  14  17
ENDBRANCH   4  13
BRANCH   5  23
ATOM     23  O   UNL     1       2.888   8.420  17.353  0.00  0.00    +0.000 OA
ATOM     24  H   UNL     1       2.377   8.068  16.603  0.00  0.00    +0.000 HD
ENDBRANCH   5  23
TORSDOF 4
ENDMDL
MODEL 8
REMARK VINA RESULT:      -6.8      3.377      6.952
REMARK  Name = 
REMARK  7 active torsions:
REMARK  status: ('A' for Active; 'I' for Inactive)
REMARK    1  A    between atoms: C_1  and  C_2
REMARK    2  A    between atoms: C_4  and  N_5
REMARK    3  A    between atoms: C_6  and  C_8
REMARK    4  A    between atoms: C_13  and  O_14
REMARK    5  A    between atoms: C_15  and  C_16
REMARK    6  A    between atoms: N_18  and  C_19
REMARK    7  A    between atoms: N_18  and  C_20
REMARK                            x       y       z     vdW  Elec       q    Type
REMARK                         _______ _______ _______ _____ _____    ______ ____
ROOT
ATOM      1  C   UNL     1       3.540   2.239  17.947  0.00  0.00    +0.000 C 
ATOM      2  C   UNL     1       4.006   3.515  17.309  0.00  0.00    +0.000 A 
ATOM      3  C   UNL     1       3.367   4.720  17.623  0.00  0.00    +0.000 A 
ATOM      4  C   UNL     1       3.831   5.941  17.140  0.00  0.00    +0.000 A 
ATOM      5  C   UNL     1       4.969   5.930  16.308  0.00  0.00    +0.000 A 
ATOM      6  C   UNL     1       5.597   4.724  15.913  0.00  0.00    +0.000 A 
ATOM      7  C   UNL     1       5.081   3.518  16.411  0.00  0.00    +0.000 A 
ENDROOT
BRANCH   6   8
ATOM      8  C   UNL     1       6.622   4.728  14.817  0.00  0.00    +0.000 C 
ATOM      9  O   UNL     1       7.693   5.249  15.105  0.00  0.00    +0.000 OA
ATOM     10  N   UNL     1       6.377   4.255  13.511  0.00  0.00    +0.000 N 
ATOM     11  C   UNL     1       5.214   3.555  12.992  0.00  0.00    +0.000 C 
ATOM     12  C   UNL     1       7.452   4.420  12.531  0.00  0.00    +0.000 C 
ENDBRANCH   6   8
BRANCH   4  13
ATOM     13  N   UNL     1       3.188   7.171  17.447  0.00  0.00    +0.000 N 
ATOM     14  C   UNL     1       2.561   7.493  18.648  0.00  0.00    +0.000 C 
ATOM     15  O   UNL     1       2.539   6.778  19.646  0.00  0.00    +0.000 OA
ATOM     16  H   UNL     1       3.239   7.916  16.759  0.00  0.00    +0.000 HD
BRANCH  14  17
ATOM     17  C   UNL     1       1.913   8.810  18.673  0.00  0.00    +0.000 A 
ATOM     18  N   UNL     1       1.137   9.223  19.734  0.00  0.00    +0.000 NA
ATOM     19  N   UNL     1       0.693  10.435  19.439  0.00  0.00    +0.000 NA
ATOM     20  N   UNL     1       1.203  10.698  18.237  0.00  0.00    +0.000 N 
ATOM     21  N   UNL     1       1.977   9.740  17.686  0.00  0.00    +0.000 NA
ATOM     22  H   UNL     1       1.012  11.580  17.767  0.00  0.00    +0.000 HD
ENDBRANCH  14  17
ENDBRANCH   4  13
BRANCH   5  23
ATOM     23  O   UNL     1       5.485   7.153  15.946  0.00  0.00    +0.000 OA
ATOM     24  H   UNL     1       4.807   7.814  16.168  0.00  0.00    +0.000 HD
ENDBRANCH   5  23
TORSDOF 4
ENDMDL
MODEL 9
REMARK VINA RESULT:      -6.8      1.879      2.625
REMARK  Name = 
REMARK  7 active torsions:
REMARK  status: ('A' for Active; 'I' for Inactive)
REMARK    1  A    between atoms: C_1  and  C_2
REMARK    2  A    between atoms: C_4  and  N_5
REMARK    3  A    between atoms: C_6  and  C_8
REMARK    4  A    between atoms: C_13  and  O_14
REMARK    5  A    between atoms: C_15  and  C_16
REMARK    6  A    between atoms: N_18  and  C_19
REMARK    7  A    between atoms: N_18  and  C_20
REMARK                            x       y       z     vdW  Elec       q    Type
REMARK                         _______ _______ _______ _____ _____    ______ ____
ROOT
ATOM      1  C   UNL     1       8.155   6.477  19.021  0.00  0.00    +0.000 C 
ATOM      2  C   UNL     1       7.020   5.618  18.544  0.00  0.00    +0.000 A 
ATOM      3  C   UNL     1       7.041   5.101  17.244  0.00  0.00    +0.000 A 
ATOM      4  C   UNL     1       6.067   4.214  16.794  0.00  0.00    +0.000 A 
ATOM      5  C   UNL     1       5.040   3.853  17.690  0.00  0.00    +0.000 A 
ATOM      6  C   UNL     1       4.948   4.412  18.988  0.00  0.00    +0.000 A 
ATOM      7  C   UNL     1       5.944   5.316  19.389  0.00  0.00    +0.000 A 
ENDROOT
BRANCH   6   8
ATOM      8  C   UNL     1       3.705   4.224  19.806  0.00  0.00    +0.000 C 
ATOM      9  O   UNL     1       3.590   3.127  20.339  0.00  0.00    +0.000 OA
ATOM     10  N   UNL     1       2.678   5.187  19.907  0.00  0.00    +0.000 N 
ATOM     11  C   UNL     1       2.650   6.553  19.411  0.00  0.00    +0.000 C 
ATOM     12  C   UNL     1       1.485   4.810  20.667  0.00  0.00    +0.000 C 
ENDBRANCH   6   8
BRANCH   4  13
ATOM     13  N   UNL     1       6.075   3.685  15.474  0.00  0.00    +0.000 N 
ATOM     14  C   UNL     1       6.026   4.421  14.293  0.00  0.00    +0.000 C 
ATOM     15  O   UNL     1       6.044   5.647  14.226  0.00  0.00    +0.000 OA
ATOM     16  H   UNL     1       6.191   2.682  15.368  0.00  0.00    +0.000 HD
BRANCH  14  17
ATOM     17  C   UNL     1       5.975   3.618  13.066  0.00  0.00    +0.000 A 
ATOM     18  N   UNL     1       4.786   3.320  12.436  0.00  0.00    +0.000 NA
ATOM     19  N   UNL     1       5.083   2.576  11.382  0.00  0.00    +0.000 NA
ATOM     20  N   UNL     1       6.410   2.454  11.418  0.00  0.00    +0.000 N 
ATOM     21  N   UNL     1       7.046   3.073  12.434  0.00  0.00    +0.000 NA
ATOM     22  H   UNL     1       6.907   1.919  10.710  0.00  0.00    +0.000 HD
ENDBRANCH  14  17
ENDBRANCH   4  13
BRANCH   5  23
ATOM     23  O   UNL     1       4.162   2.881  17.270  0.00  0.00    +0.000 OA
ATOM     24  H   UNL     1       3.654   3.269  16.536  0.00  0.00    +0.000 HD
ENDBRANCH   5  23
TORSDOF 4
ENDMDL
