MODEL 1
REMARK VINA RESULT:      -8.3      0.000      0.000
REMARK  Name = 
REMARK  5 active torsions:
REMARK  status: ('A' for Active; 'I' for Inactive)
REMARK    1  A    between atoms: C_1  and  O_2
REMARK    2  A    between atoms: O_2  and  C_3
REMARK    3  A    between atoms: C_6  and  C_7
REMARK    4  A    between atoms: C_13  and  C_14
REMARK    5  A    between atoms: C_26  and  O_27
REMARK                            x       y       z     vdW  Elec       q    Type
REMARK                         _______ _______ _______ _____ _____    ______ ____
ROOT
ATOM      1  C   UNL     1      -0.433  10.629  17.939  0.00  0.00    +0.000 C 
ATOM      2  C   UNL     1       0.453  10.121  18.820  0.00  0.00    +0.000 C 
ATOM      3  C   UNL     1       0.303   9.867  20.281  0.00  0.00    +0.000 C 
ATOM      4  O   UNL     1       0.286   8.456  20.476  0.00  0.00    +0.000 OA
ATOM      5  C   UNL     1       1.567   7.881  20.203  0.00  0.00    +0.000 C 
ATOM      6  C   UNL     1       2.025   8.178  18.804  0.00  0.00    +0.000 C 
ATOM      7  C   UNL     1       2.612   7.311  17.954  0.00  0.00    +0.000 C 
ATOM      8  C   UNL     1       1.740   9.563  18.302  0.00  0.00    +0.000 C 
ATOM      9  O   UNL     1       2.475  10.175  17.540  0.00  0.00    +0.000 OA
ENDROOT
BRANCH   7  10
ATOM     10  C   UNL     1       2.794   5.876  18.251  0.00  0.00    +0.000 A 
ATOM     11  C   UNL     1       1.758   4.974  17.931  0.00  0.00    +0.000 A 
ATOM     12  C   UNL     1       1.865   3.614  18.255  0.00  0.00    +0.000 A 
ATOM     13  C   UNL     1       3.014   3.194  18.893  0.00  0.00    +0.000 A 
ATOM     14  C   UNL     1       4.034   4.074  19.182  0.00  0.00    +0.000 A 
ATOM     15  C   UNL     1       3.961   5.418  18.873  0.00  0.00    +0.000 A 
ATOM     16  O   UNL     1       5.079   3.456  19.801  0.00  0.00    +0.000 OA
ATOM     17  C   UNL     1       4.580   2.104  19.899  0.00  0.00    +0.000 C 
ATOM     18  O   UNL     1       3.282   1.931  19.292  0.00  0.00    +0.000 OA
ENDBRANCH   7  10
BRANCH   1  22
ATOM     19  C   UNL     1      -4.579  11.495  18.764  0.00  0.00    +0.000 A 
ATOM     20  C   UNL     1      -4.234  10.383  17.981  0.00  0.00    +0.000 A 
ATOM     21  C   UNL     1      -2.889  10.077  17.689  0.00  0.00    +0.000 A 
ATOM     22  C   UNL     1      -1.861  10.850  18.224  0.00  0.00    +0.000 A 
ATOM     23  C   UNL     1      -2.206  11.910  19.081  0.00  0.00    +0.000 A 
ATOM     24  C   UNL     1      -3.548  12.269  19.293  0.00  0.00    +0.000 A 
BRANCH  19  26
ATOM     25  C   UNL     1      -6.737  10.539  19.153  0.00  0.00    +0.000 C 
ATOM     26  O   UNL     1      -5.930  11.686  18.910  0.00  0.00    +0.000 OA
ENDBRANCH  19  26
BRANCH  24  27
ATOM     27  O   UNL     1      -3.779  13.409  20.007  0.00  0.00    +0.000 OA
ATOM     28  H   UNL     1      -3.394  14.158  19.521  0.00  0.00    +0.000 HD
ENDBRANCH  24  27
ENDBRANCH   1  22
TORSDOF 4
ENDMDL
MODEL 2
REMARK VINA RESULT:      -8.2      0.705      1.367
REMARK  Name = 
REMARK  5 active torsions:
REMARK  status: ('A' for Active; 'I' for Inactive)
REMARK    1  A    between atoms: C_1  and  O_2
REMARK    2  A    between atoms: O_2  and  C_3
REMARK    3  A    between atoms: C_6  and  C_7
REMARK    4  A    between atoms: C_13  and  C_14
REMARK    5  A    between atoms: C_26  and  O_27
REMARK                            x       y       z     vdW  Elec       q    Type
REMARK                         _______ _______ _______ _____ _____    ______ ____
ROOT
ATOM      1  C   UNL     1      -0.692  10.663  17.896  0.00  0.00    +0.000 C 
ATOM      2  C   UNL     1       0.196  10.238  18.817  0.00  0.00    +0.000 C 
ATOM      3  C   UNL     1       0.008   9.984  20.274  0.00  0.00    +0.000 C 
ATOM      4  O   UNL     1       0.101   8.578  20.484  0.00  0.00    +0.000 OA
ATOM      5  C   UNL     1       1.436   8.111  20.269  0.00  0.00    +0.000 C 
ATOM      6  C   UNL     1       1.925   8.435  18.886  0.00  0.00    +0.000 C 
ATOM      7  C   UNL     1       2.616   7.613  18.071  0.00  0.00    +0.000 C 
ATOM      8  C   UNL     1       1.545   9.787  18.357  0.00  0.00    +0.000 C 
ATOM      9  O   UNL     1       2.257  10.452  17.619  0.00  0.00    +0.000 OA
ENDROOT
BRANCH   7  10
ATOM     10  C   UNL     1       2.906   6.201  18.390  0.00  0.00    +0.000 A 
ATOM     11  C   UNL     1       4.064   5.891  19.133  0.00  0.00    +0.000 A 
ATOM     12  C   UNL     1       4.410   4.559  19.402  0.00  0.00    +0.000 A 
ATOM     13  C   UNL     1       3.579   3.570  18.916  0.00  0.00    +0.000 A 
ATOM     14  C   UNL     1       2.437   3.878  18.211  0.00  0.00    +0.000 A 
ATOM     15  C   UNL     1       2.067   5.179  17.933  0.00  0.00    +0.000 A 
ATOM     16  O   UNL     1       1.755   2.760  17.833  0.00  0.00    +0.000 OA
ATOM     17  C   UNL     1       2.621   1.724  18.347  0.00  0.00    +0.000 C 
ATOM     18  O   UNL     1       3.762   2.240  19.064  0.00  0.00    +0.000 OA
ENDBRANCH   7  10
BRANCH   1  22
ATOM     19  C   UNL     1      -4.929  11.181  18.531  0.00  0.00    +0.000 A 
ATOM     20  C   UNL     1      -4.453  10.057  17.840  0.00  0.00    +0.000 A 
ATOM     21  C   UNL     1      -3.075   9.862  17.612  0.00  0.00    +0.000 A 
ATOM     22  C   UNL     1      -2.144  10.765  18.121  0.00  0.00    +0.000 A 
ATOM     23  C   UNL     1      -2.618  11.843  18.888  0.00  0.00    +0.000 A 
ATOM     24  C   UNL     1      -3.995  12.086  19.033  0.00  0.00    +0.000 A 
BRANCH  19  26
ATOM     25  C   UNL     1      -6.908  10.728  19.795  0.00  0.00    +0.000 C 
ATOM     26  O   UNL     1      -6.296  11.252  18.621  0.00  0.00    +0.000 OA
ENDBRANCH  19  26
BRANCH  24  27
ATOM     27  O   UNL     1      -4.358  13.245  19.655  0.00  0.00    +0.000 OA
ATOM     28  H   UNL     1      -3.551  13.697  19.955  0.00  0.00    +0.000 HD
ENDBRANCH  24  27
ENDBRANCH   1  22
TORSDOF 4
ENDMDL
MODEL 3
REMARK VINA RESULT:      -8.0      0.999      1.013
REMARK  Name = 
REMARK  5 active torsions:
REMARK  status: ('A' for Active; 'I' for Inactive)
REMARK    1  A    between atoms: C_1  and  O_2
REMARK    2  A    between atoms: O_2  and  C_3
REMARK    3  A    between atoms: C_6  and  C_7
REMARK    4  A    between atoms: C_13  and  C_14
REMARK    5  A    between atoms: C_26  and  O_27
REMARK                            x       y       z     vdW  Elec       q    Type
REMARK                         _______ _______ _______ _____ _____    ______ ____
ROOT
ATOM      1  C   UNL     1      -0.656  10.338  17.822  0.00  0.00    +0.000 C 
ATOM      2  C   UNL     1       0.250  10.063  18.782  0.00  0.00    +0.000 C 
ATOM      3  C   UNL     1       0.126  10.169  20.264  0.00  0.00    +0.000 C 
ATOM      4  O   UNL     1       0.127   8.846  20.794  0.00  0.00    +0.000 OA
ATOM      5  C   UNL     1       1.409   8.230  20.644  0.00  0.00    +0.000 C 
ATOM      6  C   UNL     1       1.841   8.184  19.206  0.00  0.00    +0.000 C 
ATOM      7  C   UNL     1       2.423   7.140  18.581  0.00  0.00    +0.000 C 
ATOM      8  C   UNL     1       1.533   9.405  18.390  0.00  0.00    +0.000 C 
ATOM      9  O   UNL     1       2.249   9.819  17.490  0.00  0.00    +0.000 OA
ENDROOT
BRANCH   7  10
ATOM     10  C   UNL     1       2.626   5.821  19.211  0.00  0.00    +0.000 A 
ATOM     11  C   UNL     1       1.633   5.316  20.076  0.00  0.00    +0.000 A 
ATOM     12  C   UNL     1       1.815   4.097  20.745  0.00  0.00    +0.000 A 
ATOM     13  C   UNL     1       2.994   3.415  20.526  0.00  0.00    +0.000 A 
ATOM     14  C   UNL     1       3.951   3.900  19.661  0.00  0.00    +0.000 A 
ATOM     15  C   UNL     1       3.800   5.095  18.985  0.00  0.00    +0.000 A 
ATOM     16  O   UNL     1       5.030   3.071  19.580  0.00  0.00    +0.000 OA
ATOM     17  C   UNL     1       4.655   2.038  20.518  0.00  0.00    +0.000 C 
ATOM     18  O   UNL     1       3.346   2.240  21.093  0.00  0.00    +0.000 OA
ENDBRANCH   7  10
BRANCH   1  22
ATOM     19  C   UNL     1      -4.787  11.358  18.535  0.00  0.00    +0.000 A 
ATOM     20  C   UNL     1      -4.463  10.207  17.801  0.00  0.00    +0.000 A 
ATOM     21  C   UNL     1      -3.123   9.851  17.546  0.00  0.00    +0.000 A 
ATOM     22  C   UNL     1      -2.081  10.613  18.071  0.00  0.00    +0.000 A 
ATOM     23  C   UNL     1      -2.408  11.714  18.880  0.00  0.00    +0.000 A 
ATOM     24  C   UNL     1      -3.742  12.121  19.053  0.00  0.00    +0.000 A 
BRANCH  19  26
ATOM     25  C   UNL     1      -6.751  12.385  17.638  0.00  0.00    +0.000 C 
ATOM     26  O   UNL     1      -6.134  11.596  18.648  0.00  0.00    +0.000 OA
ENDBRANCH  19  26
BRANCH  24  27
ATOM     27  O   UNL     1      -3.951  13.294  19.719  0.00  0.00    +0.000 OA
ATOM     28  H   UNL     1      -4.810  13.241  20.172  0.00  0.00    +0.000 HD
ENDBRANCH  24  27
ENDBRANCH   1  22
TORSDOF 4
ENDMDL
MODEL 4
REMARK VINA RESULT:      -7.9      1.221      1.517
REMARK  Name = 
REMARK  5 active torsions:
REMARK  status: ('A' for Active; 'I' for Inactive)
REMARK    1  A    between atoms: C_1  and  O_2
REMARK    2  A    between atoms: O_2  and  C_3
REMARK    3  A    between atoms: C_6  and  C_7
REMARK    4  A    between atoms: C_13  and  C_14
REMARK    5  A    between atoms: C_26  and  O_27
REMARK                            x       y       z     vdW  Elec       q    Type
REMARK                         _______ _______ _______ _____ _____    ______ ____
ROOT
ATOM      1  C   UNL     1      -0.837  10.435  17.782  0.00  0.00    +0.000 C 
ATOM      2  C   UNL     1       0.060  10.219  18.765  0.00  0.00    +0.000 C 
ATOM      3  C   UNL     1      -0.115  10.283  20.244  0.00  0.00    +0.000 C 
ATOM      4  O   UNL     1      -0.015   8.955  20.751  0.00  0.00    +0.000 OA
ATOM      5  C   UNL     1       1.320   8.454  20.629  0.00  0.00    +0.000 C 
ATOM      6  C   UNL     1       1.795   8.474  19.204  0.00  0.00    +0.000 C 
ATOM      7  C   UNL     1       2.482   7.497  18.578  0.00  0.00    +0.000 C 
ATOM      8  C   UNL     1       1.407   9.681  18.401  0.00  0.00    +0.000 C 
ATOM      9  O   UNL     1       2.110  10.173  17.530  0.00  0.00    +0.000 OA
ENDROOT
BRANCH   7  10
ATOM     10  C   UNL     1       2.779   6.187  19.190  0.00  0.00    +0.000 A 
ATOM     11  C   UNL     1       3.985   5.535  18.861  0.00  0.00    +0.000 A 
ATOM     12  C   UNL     1       4.275   4.261  19.370  0.00  0.00    +0.000 A 
ATOM     13  C   UNL     1       3.343   3.675  20.201  0.00  0.00    +0.000 A 
ATOM     14  C   UNL     1       2.177   4.325  20.540  0.00  0.00    +0.000 A 
ATOM     15  C   UNL     1       1.864   5.581  20.058  0.00  0.00    +0.000 A 
ATOM     16  O   UNL     1       1.402   3.579  21.377  0.00  0.00    +0.000 OA
ATOM     17  C   UNL     1       2.197   2.378  21.489  0.00  0.00    +0.000 C 
ATOM     18  O   UNL     1       3.446   2.453  20.768  0.00  0.00    +0.000 OA
ENDBRANCH   7  10
BRANCH   1  22
ATOM     19  C   UNL     1      -5.064  11.080  18.364  0.00  0.00    +0.000 A 
ATOM     20  C   UNL     1      -4.611   9.909  17.739  0.00  0.00    +0.000 A 
ATOM     21  C   UNL     1      -3.237   9.672  17.529  0.00  0.00    +0.000 A 
ATOM     22  C   UNL     1      -2.288  10.581  17.993  0.00  0.00    +0.000 A 
ATOM     23  C   UNL     1      -2.741  11.710  18.697  0.00  0.00    +0.000 A 
ATOM     24  C   UNL     1      -4.112  11.990  18.821  0.00  0.00    +0.000 A 
BRANCH  19  26
ATOM     25  C   UNL     1      -7.047  10.856  19.683  0.00  0.00    +0.000 C 
ATOM     26  O   UNL     1      -6.430  11.186  18.443  0.00  0.00    +0.000 OA
ENDBRANCH  19  26
BRANCH  24  27
ATOM     27  O   UNL     1      -4.452  13.190  19.377  0.00  0.00    +0.000 OA
ATOM     28  H   UNL     1      -4.199  13.174  20.316  0.00  0.00    +0.000 HD
ENDBRANCH  24  27
ENDBRANCH   1  22
TORSDOF 4
ENDMDL
MODEL 5
REMARK VINA RESULT:      -7.6      0.856      1.399
REMARK  Name = 
REMARK  5 active torsions:
REMARK  status: ('A' for Active; 'I' for Inactive)
REMARK    1  A    between atoms: C_1  and  O_2
REMARK    2  A    between atoms: O_2  and  C_3
REMARK    3  A    between atoms: C_6  and  C_7
REMARK    4  A    between atoms: C_13  and  C_14
REMARK    5  A    between atoms: C_26  and  O_27
REMARK                            x       y       z     vdW  Elec       q    Type
REMARK                         _______ _______ _______ _____ _____    ______ ____
ROOT
ATOM      1  C   UNL     1      -0.247  11.117  18.009  0.00  0.00    +0.000 C 
ATOM      2  C   UNL     1       0.615  10.540  18.870  0.00  0.00    +0.000 C 
ATOM      3  C   UNL     1       0.469  10.278  20.330  0.00  0.00    +0.000 C 
ATOM      4  O   UNL     1       0.360   8.869  20.509  0.00  0.00    +0.000 OA
ATOM      5  C   UNL     1       1.596   8.213  20.210  0.00  0.00    +0.000 C 
ATOM      6  C   UNL     1       2.053   8.497  18.807  0.00  0.00    +0.000 C 
ATOM      7  C   UNL     1       2.569   7.603  17.939  0.00  0.00    +0.000 C 
ATOM      8  C   UNL     1       1.854   9.905  18.326  0.00  0.00    +0.000 C 
ATOM      9  O   UNL     1       2.618  10.476  17.561  0.00  0.00    +0.000 OA
ENDROOT
BRANCH   7  10
ATOM     10  C   UNL     1       2.659   6.156  18.215  0.00  0.00    +0.000 A 
ATOM     11  C   UNL     1       1.546   5.335  17.939  0.00  0.00    +0.000 A 
ATOM     12  C   UNL     1       1.567   3.968  18.247  0.00  0.00    +0.000 A 
ATOM     13  C   UNL     1       2.711   3.459  18.826  0.00  0.00    +0.000 A 
ATOM     14  C   UNL     1       3.805   4.258  19.073  0.00  0.00    +0.000 A 
ATOM     15  C   UNL     1       3.817   5.608  18.778  0.00  0.00    +0.000 A 
ATOM     16  O   UNL     1       4.830   3.559  19.637  0.00  0.00    +0.000 OA
ATOM     17  C   UNL     1       4.238   2.246  19.749  0.00  0.00    +0.000 C 
ATOM     18  O   UNL     1       2.904   2.175  19.202  0.00  0.00    +0.000 OA
ENDBRANCH   7  10
BRANCH   1  22
ATOM     19  C   UNL     1      -4.424  11.848  18.808  0.00  0.00    +0.000 A 
ATOM     20  C   UNL     1      -3.455  12.189  19.763  0.00  0.00    +0.000 A 
ATOM     21  C   UNL     1      -2.083  11.957  19.534  0.00  0.00    +0.000 A 
ATOM     22  C   UNL     1      -1.653  11.430  18.318  0.00  0.00    +0.000 A 
ATOM     23  C   UNL     1      -2.618  11.172  17.330  0.00  0.00    +0.000 A 
ATOM     24  C   UNL     1      -3.990  11.314  17.596  0.00  0.00    +0.000 A 
BRANCH  19  26
ATOM     25  C   UNL     1      -6.311  13.317  18.811  0.00  0.00    +0.000 C 
ATOM     26  O   UNL     1      -5.716  12.085  19.204  0.00  0.00    +0.000 OA
ENDBRANCH  19  26
BRANCH  24  27
ATOM     27  O   UNL     1      -4.856  10.885  16.632  0.00  0.00    +0.000 OA
ATOM     28  H   UNL     1      -4.439  10.151  16.150  0.00  0.00    +0.000 HD
ENDBRANCH  24  27
ENDBRANCH   1  22
TORSDOF 4
ENDMDL
MODEL 6
REMARK VINA RESULT:      -7.6      1.027      1.937
REMARK  Name = 
REMARK  5 active torsions:
REMARK  status: ('A' for Active; 'I' for Inactive)
REMARK    1  A    between atoms: C_1  and  O_2
REMARK    2  A    between atoms: O_2  and  C_3
REMARK    3  A    between atoms: C_6  and  C_7
REMARK    4  A    between atoms: C_13  and  C_14
REMARK    5  A    between atoms: C_26  and  O_27
REMARK                            x       y       z     vdW  Elec       q    Type
REMARK                         _______ _______ _______ _____ _____    ______ ____
ROOT
ATOM      1  C   UNL     1      -0.434  11.207  17.933  0.00  0.00    +0.000 C 
ATOM      2  C   UNL     1       0.434  10.700  18.832  0.00  0.00    +0.000 C 
ATOM      3  C   UNL     1       0.280  10.516  20.303  0.00  0.00    +0.000 C 
ATOM      4  O   UNL     1       0.205   9.116  20.560  0.00  0.00    +0.000 OA
ATOM      5  C   UNL     1       1.459   8.476  20.308  0.00  0.00    +0.000 C 
ATOM      6  C   UNL     1       1.923   8.694  18.895  0.00  0.00    +0.000 C 
ATOM      7  C   UNL     1       2.468   7.766  18.083  0.00  0.00    +0.000 C 
ATOM      8  C   UNL     1       1.693  10.067  18.335  0.00  0.00    +0.000 C 
ATOM      9  O   UNL     1       2.450  10.613  17.545  0.00  0.00    +0.000 OA
ENDROOT
BRANCH   7  10
ATOM     10  C   UNL     1       2.591   6.339  18.440  0.00  0.00    +0.000 A 
ATOM     11  C   UNL     1       3.729   5.907  19.153  0.00  0.00    +0.000 A 
ATOM     12  C   UNL     1       3.916   4.551  19.455  0.00  0.00    +0.000 A 
ATOM     13  C   UNL     1       2.950   3.661  19.032  0.00  0.00    +0.000 A 
ATOM     14  C   UNL     1       1.828   4.089  18.358  0.00  0.00    +0.000 A 
ATOM     15  C   UNL     1       1.614   5.418  18.048  0.00  0.00    +0.000 A 
ATOM     16  O   UNL     1       0.998   3.055  18.043  0.00  0.00    +0.000 OA
ATOM     17  C   UNL     1       1.747   1.934  18.562  0.00  0.00    +0.000 C 
ATOM     18  O   UNL     1       2.971   2.323  19.220  0.00  0.00    +0.000 OA
ENDBRANCH   7  10
BRANCH   1  22
ATOM     19  C   UNL     1      -4.637  11.887  18.635  0.00  0.00    +0.000 A 
ATOM     20  C   UNL     1      -3.698  12.189  19.634  0.00  0.00    +0.000 A 
ATOM     21  C   UNL     1      -2.319  11.973  19.437  0.00  0.00    +0.000 A 
ATOM     22  C   UNL     1      -1.850  11.500  18.212  0.00  0.00    +0.000 A 
ATOM     23  C   UNL     1      -2.783  11.282  17.185  0.00  0.00    +0.000 A 
ATOM     24  C   UNL     1      -4.164  11.408  17.415  0.00  0.00    +0.000 A 
BRANCH  19  26
ATOM     25  C   UNL     1      -6.742  10.961  19.291  0.00  0.00    +0.000 C 
ATOM     26  O   UNL     1      -5.941  12.102  19.002  0.00  0.00    +0.000 OA
ENDBRANCH  19  26
BRANCH  24  27
ATOM     27  O   UNL     1      -4.998  11.018  16.407  0.00  0.00    +0.000 OA
ATOM     28  H   UNL     1      -5.466  11.804  16.076  0.00  0.00    +0.000 HD
ENDBRANCH  24  27
ENDBRANCH   1  22
TORSDOF 4
ENDMDL
MODEL 7
REMARK VINA RESULT:      -7.5      1.335      1.753
REMARK  Name = 
REMARK  5 active torsions:
REMARK  status: ('A' for Active; 'I' for Inactive)
REMARK    1  A    between atoms: C_1  and  O_2
REMARK    2  A    between atoms: O_2  and  C_3
REMARK    3  A    between atoms: C_6  and  C_7
REMARK    4  A    between atoms: C_13  and  C_14
REMARK    5  A    between atoms: C_26  and  O_27
REMARK                            x       y       z     vdW  Elec       q    Type
REMARK                         _______ _______ _______ _____ _____    ______ ____
ROOT
ATOM      1  C   UNL     1      -0.555  11.149  18.148  0.00  0.00    +0.000 C 
ATOM      2  C   UNL     1       0.319  10.634  19.036  0.00  0.00    +0.000 C 
ATOM      3  C   UNL     1       0.224  10.543  20.521  0.00  0.00    +0.000 C 
ATOM      4  O   UNL     1       0.068   9.168  20.861  0.00  0.00    +0.000 OA
ATOM      5  C   UNL     1       1.264   8.430  20.592  0.00  0.00    +0.000 C 
ATOM      6  C   UNL     1       1.673   8.537  19.150  0.00  0.00    +0.000 C 
ATOM      7  C   UNL     1       2.116   7.531  18.370  0.00  0.00    +0.000 C 
ATOM      8  C   UNL     1       1.508   9.890  18.522  0.00  0.00    +0.000 C 
ATOM      9  O   UNL     1       2.261  10.338  17.669  0.00  0.00    +0.000 OA
ENDROOT
BRANCH   7  10
ATOM     10  C   UNL     1       2.162   6.121  18.804  0.00  0.00    +0.000 A 
ATOM     11  C   UNL     1       2.057   5.102  17.834  0.00  0.00    +0.000 A 
ATOM     12  C   UNL     1       2.030   3.752  18.211  0.00  0.00    +0.000 A 
ATOM     13  C   UNL     1       2.112   3.459  19.557  0.00  0.00    +0.000 A 
ATOM     14  C   UNL     1       2.238   4.456  20.499  0.00  0.00    +0.000 A 
ATOM     15  C   UNL     1       2.271   5.794  20.160  0.00  0.00    +0.000 A 
ATOM     16  O   UNL     1       2.314   3.954  21.764  0.00  0.00    +0.000 OA
ATOM     17  C   UNL     1       2.181   2.539  21.506  0.00  0.00    +0.000 C 
ATOM     18  O   UNL     1       2.086   2.223  20.101  0.00  0.00    +0.000 OA
ENDBRANCH   7  10
BRANCH   1  22
ATOM     19  C   UNL     1      -4.665  12.149  19.004  0.00  0.00    +0.000 A 
ATOM     20  C   UNL     1      -3.653  12.494  19.912  0.00  0.00    +0.000 A 
ATOM     21  C   UNL     1      -2.302  12.176  19.664  0.00  0.00    +0.000 A 
ATOM     22  C   UNL     1      -1.934  11.554  18.472  0.00  0.00    +0.000 A 
ATOM     23  C   UNL     1      -2.938  11.290  17.526  0.00  0.00    +0.000 A 
ATOM     24  C   UNL     1      -4.294  11.521  17.816  0.00  0.00    +0.000 A 
BRANCH  19  26
ATOM     25  C   UNL     1      -6.632  11.532  20.217  0.00  0.00    +0.000 C 
ATOM     26  O   UNL     1      -5.931  12.478  19.417  0.00  0.00    +0.000 OA
ENDBRANCH  19  26
BRANCH  24  27
ATOM     27  O   UNL     1      -5.207  11.082  16.902  0.00  0.00    +0.000 OA
ATOM     28  H   UNL     1      -6.069  10.999  17.345  0.00  0.00    +0.000 HD
ENDBRANCH  24  27
ENDBRANCH   1  22
TORSDOF 4
ENDMDL
MODEL 8
REMARK VINA RESULT:      -7.3      5.781      8.889
REMARK  Name = 
REMARK  5 active torsions:
REMARK  status: ('A' for Active; 'I' for Inactive)
REMARK    1  A    between atoms: C_1  and  O_2
REMARK    2  A    between atoms: O_2  and  C_3
REMARK    3  A    between atoms: C_6  and  C_7
REMARK    4  A    between atoms: C_13  and  C_14
REMARK    5  A    between atoms: C_26  and  O_27
REMARK                            x       y       z     vdW  Elec       q    Type
REMARK                         _______ _______ _______ _____ _____    ______ ____
ROOT
ATOM      1  C   UNL     1       7.721   8.909  17.431  0.00  0.00    +0.000 C 
ATOM      2  C   UNL     1       7.627   7.588  17.682  0.00  0.00    +0.000 C 
ATOM      3  C   UNL     1       8.396   6.744  18.640  0.00  0.00    +0.000 C 
ATOM      4  O   UNL     1       7.505   6.344  19.678  0.00  0.00    +0.000 OA
ATOM      5  C   UNL     1       6.525   5.424  19.190  0.00  0.00    +0.000 C 
ATOM      6  C   UNL     1       5.729   6.005  18.056  0.00  0.00    +0.000 C 
ATOM      7  C   UNL     1       4.395   5.907  17.884  0.00  0.00    +0.000 C 
ATOM      8  C   UNL     1       6.505   6.819  17.062  0.00  0.00    +0.000 C 
ATOM      9  O   UNL     1       6.245   6.861  15.868  0.00  0.00    +0.000 OA
ENDROOT
BRANCH   7  10
ATOM     10  C   UNL     1       3.488   5.288  18.871  0.00  0.00    +0.000 A 
ATOM     11  C   UNL     1       2.615   6.113  19.610  0.00  0.00    +0.000 A 
ATOM     12  C   UNL     1       1.785   5.573  20.602  0.00  0.00    +0.000 A 
ATOM     13  C   UNL     1       1.853   4.213  20.826  0.00  0.00    +0.000 A 
ATOM     14  C   UNL     1       2.689   3.407  20.085  0.00  0.00    +0.000 A 
ATOM     15  C   UNL     1       3.517   3.908  19.099  0.00  0.00    +0.000 A 
ATOM     16  O   UNL     1       2.596   2.099  20.456  0.00  0.00    +0.000 OA
ATOM     17  C   UNL     1       1.639   2.187  21.535  0.00  0.00    +0.000 C 
ATOM     18  O   UNL     1       1.142   3.526  21.746  0.00  0.00    +0.000 OA
ENDBRANCH   7  10
BRANCH   1  22
ATOM     19  C   UNL     1       9.873  11.857  19.734  0.00  0.00    +0.000 A 
ATOM     20  C   UNL     1       9.671  10.569  20.253  0.00  0.00    +0.000 A 
ATOM     21  C   UNL     1       8.966   9.586  19.527  0.00  0.00    +0.000 A 
ATOM     22  C   UNL     1       8.500   9.860  18.243  0.00  0.00    +0.000 A 
ATOM     23  C   UNL     1       8.782  11.121  17.691  0.00  0.00    +0.000 A 
ATOM     24  C   UNL     1       9.399  12.129  18.452  0.00  0.00    +0.000 A 
BRANCH  19  26
ATOM     25  C   UNL     1       9.760  13.341  21.606  0.00  0.00    +0.000 C 
ATOM     26  O   UNL     1      10.527  12.712  20.585  0.00  0.00    +0.000 OA
ENDBRANCH  19  26
BRANCH  24  27
ATOM     27  O   UNL     1       9.483  13.369  17.887  0.00  0.00    +0.000 OA
ATOM     28  H   UNL     1       9.196  13.303  16.961  0.00  0.00    +0.000 HD
ENDBRANCH  24  27
ENDBRANCH   1  22
TORSDOF 4
ENDMDL
MODEL 9
REMARK VINA RESULT:      -7.2      3.641      5.372
REMARK  Name = 
REMARK  5 active torsions:
REMARK  status: ('A' for Active; 'I' for Inactive)
REMARK    1  A    between atoms: C_1  and  O_2
REMARK    2  A    between atoms: O_2  and  C_3
REMARK    3  A    between atoms: C_6  and  C_7
REMARK    4  A    between atoms: C_13  and  C_14
REMARK    5  A    between atoms: C_26  and  O_27
REMARK                            x       y       z     vdW  Elec       q    Type
REMARK                         _______ _______ _______ _____ _____    ______ ____
ROOT
ATOM      1  C   UNL     1       1.391  13.000  20.826  0.00  0.00    +0.000 C 
ATOM      2  C   UNL     1       0.574  11.991  20.461  0.00  0.00    +0.000 C 
ATOM      3  C   UNL     1      -0.306  11.866  19.264  0.00  0.00    +0.000 C 
ATOM      4  O   UNL     1       0.247  10.857  18.423  0.00  0.00    +0.000 OA
ATOM      5  C   UNL     1       0.125   9.563  19.020  0.00  0.00    +0.000 C 
ATOM      6  C   UNL     1       0.794   9.503  20.365  0.00  0.00    +0.000 C 
ATOM      7  C   UNL     1       1.566   8.500  20.829  0.00  0.00    +0.000 C 
ATOM      8  C   UNL     1       0.622  10.713  21.235  0.00  0.00    +0.000 C 
ATOM      9  O   UNL     1       0.539  10.667  22.454  0.00  0.00    +0.000 OA
ENDROOT
BRANCH   7  10
ATOM     10  C   UNL     1       1.962   7.332  20.017  0.00  0.00    +0.000 A 
ATOM     11  C   UNL     1       2.571   7.545  18.763  0.00  0.00    +0.000 A 
ATOM     12  C   UNL     1       2.903   6.465  17.932  0.00  0.00    +0.000 A 
ATOM     13  C   UNL     1       2.613   5.195  18.386  0.00  0.00    +0.000 A 
ATOM     14  C   UNL     1       2.040   4.989  19.621  0.00  0.00    +0.000 A 
ATOM     15  C   UNL     1       1.704   6.031  20.463  0.00  0.00    +0.000 A 
ATOM     16  O   UNL     1       1.848   3.665  19.880  0.00  0.00    +0.000 OA
ATOM     17  C   UNL     1       2.330   3.073  18.653  0.00  0.00    +0.000 C 
ATOM     18  O   UNL     1       2.847   4.044  17.718  0.00  0.00    +0.000 OA
ENDBRANCH   7  10
BRANCH   1  22
ATOM     19  C   UNL     1       2.489  16.200  18.148  0.00  0.00    +0.000 A 
ATOM     20  C   UNL     1       1.389  16.347  19.007  0.00  0.00    +0.000 A 
ATOM     21  C   UNL     1       1.001  15.317  19.888  0.00  0.00    +0.000 A 
ATOM     22  C   UNL     1       1.745  14.141  19.966  0.00  0.00    +0.000 A 
ATOM     23  C   UNL     1       2.898  14.034  19.169  0.00  0.00    +0.000 A 
ATOM     24  C   UNL     1       3.227  15.020  18.224  0.00  0.00    +0.000 A 
BRANCH  19  26
ATOM     25  C   UNL     1       1.578  18.075  16.976  0.00  0.00    +0.000 C 
ATOM     26  O   UNL     1       2.701  17.269  17.314  0.00  0.00    +0.000 OA
ENDBRANCH  19  26
BRANCH  24  27
ATOM     27  O   UNL     1       4.269  14.752  17.385  0.00  0.00    +0.000 OA
ATOM     28  H   UNL     1       5.082  14.694  17.915  0.00  0.00    +0.000 HD
ENDBRANCH  24  27
ENDBRANCH   1  22
TORSDOF 4
ENDMDL
