MODEL 1
REMARK VINA RESULT:      -8.8      0.000      0.000
REMARK  Name = 
REMARK  7 active torsions:
REMARK  status: ('A' for Active; 'I' for Inactive)
REMARK    1  A    between atoms: C_1  and  O_2
REMARK    2  A    between atoms: O_2  and  C_3
REMARK    3  A    between atoms: C_7  and  N_8
REMARK    4  A    between atoms: C_11  and  C_12
REMARK    5  A    between atoms: C_17  and  N_18
REMARK    6  A    between atoms: C_19  and  C_21
REMARK    7  A    between atoms: C_24  and  N_25
REMARK                            x       y       z     vdW  Elec       q    Type
REMARK                         _______ _______ _______ _____ _____    ______ ____
ROOT
ATOM      1  C   UNL     1       2.464   4.873  20.118  0.00  0.00    +0.000 A 
ATOM      2  C   UNL     1       1.531   4.416  21.076  0.00  0.00    +0.000 A 
ATOM      3  C   UNL     1       1.608   3.136  21.622  0.00  0.00    +0.000 A 
ATOM      4  C   UNL     1       2.632   2.295  21.234  0.00  0.00    +0.000 A 
ATOM      5  C   UNL     1       3.556   2.722  20.278  0.00  0.00    +0.000 A 
ATOM      6  C   UNL     1       3.478   3.989  19.672  0.00  0.00    +0.000 A 
ENDROOT
BRANCH   1  10
ATOM      7  N   UNL     1       1.729   8.248  19.543  0.00  0.00    +0.000 N 
ATOM      8  N   UNL     1       2.149   7.924  18.302  0.00  0.00    +0.000 NA
ATOM      9  N   UNL     1       2.528   6.658  18.385  0.00  0.00    +0.000 NA
ATOM     10  C   UNL     1       2.347   6.265  19.693  0.00  0.00    +0.000 A 
ATOM     11  N   UNL     1       1.938   7.277  20.476  0.00  0.00    +0.000 NA
BRANCH   7  16
ATOM     12  C   UNL     1       0.020  10.851  21.535  0.00  0.00    +0.000 A 
ATOM     13  C   UNL     1      -0.523  11.643  20.523  0.00  0.00    +0.000 A 
ATOM     14  C   UNL     1      -0.289  11.343  19.177  0.00  0.00    +0.000 A 
ATOM     15  C   UNL     1       0.489  10.237  18.831  0.00  0.00    +0.000 A 
ATOM     16  C   UNL     1       1.017   9.429  19.844  0.00  0.00    +0.000 A 
ATOM     17  C   UNL     1       0.789   9.745  21.191  0.00  0.00    +0.000 A 
BRANCH  12  19
ATOM     18  C   UNL     1      -1.604  11.708  23.032  0.00  0.00    +0.000 C 
ATOM     19  O   UNL     1      -0.278  11.235  22.814  0.00  0.00    +0.000 OA
ENDBRANCH  12  19
ENDBRANCH   7  16
ENDBRANCH   1  10
BRANCH   6  20
ATOM     20  N   UNL     1       4.414   4.366  18.656  0.00  0.00    +0.000 N 
ATOM     21  C   UNL     1       4.308   4.005  17.318  0.00  0.00    +0.000 C 
ATOM     22  O   UNL     1       3.353   3.417  16.816  0.00  0.00    +0.000 OA
ATOM     23  H   UNL     1       5.149   4.999  18.958  0.00  0.00    +0.000 HD
BRANCH  21  24
ATOM     24  C   UNL     1       5.405   4.360  16.375  0.00  0.00    +0.000 A 
ATOM     25  C   UNL     1       5.226   3.968  15.035  0.00  0.00    +0.000 A 
ATOM     26  C   UNL     1       6.137   4.341  14.047  0.00  0.00    +0.000 A 
ATOM     27  C   UNL     1       7.217   5.160  14.362  0.00  0.00    +0.000 A 
ATOM     28  C   UNL     1       7.434   5.491  15.706  0.00  0.00    +0.000 A 
ATOM     29  C   UNL     1       6.530   5.109  16.712  0.00  0.00    +0.000 A 
BRANCH  27  30
ATOM     30  N   UNL     1       8.175   5.460  13.389  0.00  0.00    +0.000 N 
ATOM     31  H   UNL     1       9.086   5.689  13.777  0.00  0.00    +0.000 HD
ATOM     32  H   UNL     1       8.247   4.767  12.651  0.00  0.00    +0.000 HD
ENDBRANCH  27  30
ENDBRANCH  21  24
ENDBRANCH   6  20
TORSDOF 6
ENDMDL
MODEL 2
REMARK VINA RESULT:      -8.5      1.111      1.926
REMARK  Name = 
REMARK  7 active torsions:
REMARK  status: ('A' for Active; 'I' for Inactive)
REMARK    1  A    between atoms: C_1  and  O_2
REMARK    2  A    between atoms: O_2  and  C_3
REMARK    3  A    between atoms: C_7  and  N_8
REMARK    4  A    between atoms: C_11  and  C_12
REMARK    5  A    between atoms: C_17  and  N_18
REMARK    6  A    between atoms: C_19  and  C_21
REMARK    7  A    between atoms: C_24  and  N_25
REMARK                            x       y       z     vdW  Elec       q    Type
REMARK                         _______ _______ _______ _____ _____    ______ ____
ROOT
ATOM      1  C   UNL     1       2.516   5.088  20.057  0.00  0.00    +0.000 A 
ATOM      2  C   UNL     1       1.684   4.631  21.105  0.00  0.00    +0.000 A 
ATOM      3  C   UNL     1       1.825   3.355  21.648  0.00  0.00    +0.000 A 
ATOM      4  C   UNL     1       2.812   2.519  21.167  0.00  0.00    +0.000 A 
ATOM      5  C   UNL     1       3.635   2.945  20.122  0.00  0.00    +0.000 A 
ATOM      6  C   UNL     1       3.487   4.208  19.519  0.00  0.00    +0.000 A 
ENDROOT
BRANCH   1  10
ATOM      7  N   UNL     1       1.637   8.427  19.475  0.00  0.00    +0.000 N 
ATOM      8  N   UNL     1       2.124   8.135  18.251  0.00  0.00    +0.000 NA
ATOM      9  N   UNL     1       2.562   6.890  18.341  0.00  0.00    +0.000 NA
ATOM     10  C   UNL     1       2.347   6.477  19.638  0.00  0.00    +0.000 A 
ATOM     11  N   UNL     1       1.856   7.459  20.410  0.00  0.00    +0.000 NA
BRANCH   7  16
ATOM     12  C   UNL     1      -0.572  11.337  18.910  0.00  0.00    +0.000 A 
ATOM     13  C   UNL     1      -0.572  11.918  20.180  0.00  0.00    +0.000 A 
ATOM     14  C   UNL     1       0.124  11.324  21.237  0.00  0.00    +0.000 A 
ATOM     15  C   UNL     1       0.836  10.141  21.031  0.00  0.00    +0.000 A 
ATOM     16  C   UNL     1       0.855   9.569  19.754  0.00  0.00    +0.000 A 
ATOM     17  C   UNL     1       0.143  10.163  18.702  0.00  0.00    +0.000 A 
BRANCH  12  19
ATOM     18  C   UNL     1      -2.240  11.238  17.231  0.00  0.00    +0.000 C 
ATOM     19  O   UNL     1      -1.282  12.007  17.952  0.00  0.00    +0.000 OA
ENDBRANCH  12  19
ENDBRANCH   7  16
ENDBRANCH   1  10
BRANCH   6  20
ATOM     20  N   UNL     1       4.316   4.584  18.413  0.00  0.00    +0.000 N 
ATOM     21  C   UNL     1       4.146   4.127  17.113  0.00  0.00    +0.000 C 
ATOM     22  O   UNL     1       3.208   3.436  16.722  0.00  0.00    +0.000 OA
ATOM     23  H   UNL     1       5.017   5.291  18.619  0.00  0.00    +0.000 HD
BRANCH  21  24
ATOM     24  C   UNL     1       5.141   4.499  16.069  0.00  0.00    +0.000 A 
ATOM     25  C   UNL     1       6.087   5.476  16.429  0.00  0.00    +0.000 A 
ATOM     26  C   UNL     1       7.130   5.822  15.570  0.00  0.00    +0.000 A 
ATOM     27  C   UNL     1       7.284   5.163  14.353  0.00  0.00    +0.000 A 
ATOM     28  C   UNL     1       6.303   4.243  13.964  0.00  0.00    +0.000 A 
ATOM     29  C   UNL     1       5.240   3.895  14.817  0.00  0.00    +0.000 A 
BRANCH  27  30
ATOM     30  N   UNL     1       8.276   5.572  13.456  0.00  0.00    +0.000 N 
ATOM     31  H   UNL     1       8.673   6.480  13.682  0.00  0.00    +0.000 HD
ATOM     32  H   UNL     1       8.998   4.877  13.293  0.00  0.00    +0.000 HD
ENDBRANCH  27  30
ENDBRANCH  21  24
ENDBRANCH   6  20
TORSDOF 6
ENDMDL
MODEL 3
REMARK VINA RESULT:      -8.4      1.225      1.772
REMARK  Name = 
REMARK  7 active torsions:
REMARK  status: ('A' for Active; 'I' for Inactive)
REMARK    1  A    between atoms: C_1  and  O_2
REMARK    2  A    between atoms: O_2  and  C_3
REMARK    3  A    between atoms: C_7  and  N_8
REMARK    4  A    between atoms: C_11  and  C_12
REMARK    5  A    between atoms: C_17  and  N_18
REMARK    6  A    between atoms: C_19  and  C_21
REMARK    7  A    between atoms: C_24  and  N_25
REMARK                            x       y       z     vdW  Elec       q    Type
REMARK                         _______ _______ _______ _____ _____    ______ ____
ROOT
ATOM      1  C   UNL     1       2.488   5.088  19.998  0.00  0.00    +0.000 A 
ATOM      2  C   UNL     1       1.555   4.678  20.977  0.00  0.00    +0.000 A 
ATOM      3  C   UNL     1       1.624   3.421  21.574  0.00  0.00    +0.000 A 
ATOM      4  C   UNL     1       2.640   2.557  21.216  0.00  0.00    +0.000 A 
ATOM      5  C   UNL     1       3.563   2.937  20.240  0.00  0.00    +0.000 A 
ATOM      6  C   UNL     1       3.492   4.179  19.583  0.00  0.00    +0.000 A 
ENDROOT
BRANCH   1  10
ATOM      7  N   UNL     1       1.748   8.431  19.259  0.00  0.00    +0.000 N 
ATOM      8  N   UNL     1       2.247   8.069  18.058  0.00  0.00    +0.000 NA
ATOM      9  N   UNL     1       2.635   6.813  18.209  0.00  0.00    +0.000 NA
ATOM     10  C   UNL     1       2.380   6.464  19.517  0.00  0.00    +0.000 A 
ATOM     11  N   UNL     1       1.912   7.496  20.238  0.00  0.00    +0.000 NA
BRANCH   7  16
ATOM     12  C   UNL     1       0.726  11.975  19.014  0.00  0.00    +0.000 A 
ATOM     13  C   UNL     1      -0.294  12.021  19.966  0.00  0.00    +0.000 A 
ATOM     14  C   UNL     1      -0.676  10.869  20.660  0.00  0.00    +0.000 A 
ATOM     15  C   UNL     1      -0.032   9.656  20.413  0.00  0.00    +0.000 A 
ATOM     16  C   UNL     1       1.005   9.612  19.474  0.00  0.00    +0.000 A 
ATOM     17  C   UNL     1       1.373  10.768  18.772  0.00  0.00    +0.000 A 
BRANCH  12  19
ATOM     18  C   UNL     1       2.386  13.370  18.059  0.00  0.00    +0.000 C 
ATOM     19  O   UNL     1       1.019  13.162  18.400  0.00  0.00    +0.000 OA
ENDBRANCH  12  19
ENDBRANCH   7  16
ENDBRANCH   1  10
BRANCH   6  20
ATOM     20  N   UNL     1       4.426   4.507  18.548  0.00  0.00    +0.000 N 
ATOM     21  C   UNL     1       4.348   4.038  17.242  0.00  0.00    +0.000 C 
ATOM     22  O   UNL     1       3.418   3.380  16.780  0.00  0.00    +0.000 OA
ATOM     23  H   UNL     1       5.136   5.187  18.806  0.00  0.00    +0.000 HD
BRANCH  21  24
ATOM     24  C   UNL     1       5.442   4.356  16.283  0.00  0.00    +0.000 A 
ATOM     25  C   UNL     1       5.200   4.040  14.934  0.00  0.00    +0.000 A 
ATOM     26  C   UNL     1       6.109   4.391  13.936  0.00  0.00    +0.000 A 
ATOM     27  C   UNL     1       7.255   5.113  14.255  0.00  0.00    +0.000 A 
ATOM     28  C   UNL     1       7.532   5.365  15.605  0.00  0.00    +0.000 A 
ATOM     29  C   UNL     1       6.628   5.004  16.620  0.00  0.00    +0.000 A 
BRANCH  27  30
ATOM     30  N   UNL     1       8.207   5.387  13.268  0.00  0.00    +0.000 N 
ATOM     31  H   UNL     1       8.566   4.553  12.812  0.00  0.00    +0.000 HD
ATOM     32  H   UNL     1       7.913   6.086  12.592  0.00  0.00    +0.000 HD
ENDBRANCH  27  30
ENDBRANCH  21  24
ENDBRANCH   6  20
TORSDOF 6
ENDMDL
MODEL 4
REMARK VINA RESULT:      -8.4      0.742      1.165
REMARK  Name = 
REMARK  7 active torsions:
REMARK  status: ('A' for Active; 'I' for Inactive)
REMARK    1  A    between atoms: C_1  and  O_2
REMARK    2  A    between atoms: O_2  and  C_3
REMARK    3  A    between atoms: C_7  and  N_8
REMARK    4  A    between atoms: C_11  and  C_12
REMARK    5  A    between atoms: C_17  and  N_18
REMARK    6  A    between atoms: C_19  and  C_21
REMARK    7  A    between atoms: C_24  and  N_25
REMARK                            x       y       z     vdW  Elec       q    Type
REMARK                         _______ _______ _______ _____ _____    ______ ____
ROOT
ATOM      1  C   UNL     1       2.547   5.271  19.983  0.00  0.00    +0.000 A 
ATOM      2  C   UNL     1       1.722   4.845  21.049  0.00  0.00    +0.000 A 
ATOM      3  C   UNL     1       1.844   3.573  21.605  0.00  0.00    +0.000 A 
ATOM      4  C   UNL     1       2.805   2.710  21.119  0.00  0.00    +0.000 A 
ATOM      5  C   UNL     1       3.620   3.107  20.056  0.00  0.00    +0.000 A 
ATOM      6  C   UNL     1       3.490   4.365  19.440  0.00  0.00    +0.000 A 
ENDROOT
BRANCH   1  10
ATOM      7  N   UNL     1       1.666   8.590  19.292  0.00  0.00    +0.000 N 
ATOM      8  N   UNL     1       2.337   8.323  18.152  0.00  0.00    +0.000 NA
ATOM      9  N   UNL     1       2.793   7.089  18.301  0.00  0.00    +0.000 NA
ATOM     10  C   UNL     1       2.401   6.659  19.549  0.00  0.00    +0.000 A 
ATOM     11  N   UNL     1       1.772   7.620  20.245  0.00  0.00    +0.000 NA
BRANCH   7  16
ATOM     12  C   UNL     1       0.007  11.472  20.909  0.00  0.00    +0.000 A 
ATOM     13  C   UNL     1      -0.935  11.811  19.937  0.00  0.00    +0.000 A 
ATOM     14  C   UNL     1      -0.996  11.116  18.726  0.00  0.00    +0.000 A 
ATOM     15  C   UNL     1      -0.114  10.063  18.477  0.00  0.00    +0.000 A 
ATOM     16  C   UNL     1       0.818   9.706  19.458  0.00  0.00    +0.000 A 
ATOM     17  C   UNL     1       0.882  10.418  20.665  0.00  0.00    +0.000 A 
BRANCH  12  19
ATOM     18  C   UNL     1       0.187  13.616  21.900  0.00  0.00    +0.000 C 
ATOM     19  O   UNL     1      -0.028  12.216  22.056  0.00  0.00    +0.000 OA
ENDBRANCH  12  19
ENDBRANCH   7  16
ENDBRANCH   1  10
BRANCH   6  20
ATOM     20  N   UNL     1       4.309   4.710  18.317  0.00  0.00    +0.000 N 
ATOM     21  C   UNL     1       4.204   4.129  17.060  0.00  0.00    +0.000 C 
ATOM     22  O   UNL     1       3.333   3.333  16.718  0.00  0.00    +0.000 OA
ATOM     23  H   UNL     1       4.947   5.487  18.470  0.00  0.00    +0.000 HD
BRANCH  21  24
ATOM     24  C   UNL     1       5.188   4.489  16.001  0.00  0.00    +0.000 A 
ATOM     25  C   UNL     1       6.145   5.461  16.344  0.00  0.00    +0.000 A 
ATOM     26  C   UNL     1       7.178   5.797  15.469  0.00  0.00    +0.000 A 
ATOM     27  C   UNL     1       7.312   5.130  14.254  0.00  0.00    +0.000 A 
ATOM     28  C   UNL     1       6.320   4.215  13.883  0.00  0.00    +0.000 A 
ATOM     29  C   UNL     1       5.266   3.879  14.751  0.00  0.00    +0.000 A 
BRANCH  27  30
ATOM     30  N   UNL     1       8.295   5.528  13.342  0.00  0.00    +0.000 N 
ATOM     31  H   UNL     1       9.017   6.111  13.757  0.00  0.00    +0.000 HD
ATOM     32  H   UNL     1       8.694   4.765  12.805  0.00  0.00    +0.000 HD
ENDBRANCH  27  30
ENDBRANCH  21  24
ENDBRANCH   6  20
TORSDOF 6
ENDMDL
MODEL 5
REMARK VINA RESULT:      -8.3      1.466      2.130
REMARK  Name = 
REMARK  7 active torsions:
REMARK  status: ('A' for Active; 'I' for Inactive)
REMARK    1  A    between atoms: C_1  and  O_2
REMARK    2  A    between atoms: O_2  and  C_3
REMARK    3  A    between atoms: C_7  and  N_8
REMARK    4  A    between atoms: C_11  and  C_12
REMARK    5  A    between atoms: C_17  and  N_18
REMARK    6  A    between atoms: C_19  and  C_21
REMARK    7  A    between atoms: C_24  and  N_25
REMARK                            x       y       z     vdW  Elec       q    Type
REMARK                         _______ _______ _______ _____ _____    ______ ____
ROOT
ATOM      1  C   UNL     1       2.464   4.870  19.939  0.00  0.00    +0.000 A 
ATOM      2  C   UNL     1       1.789   4.600  21.151  0.00  0.00    +0.000 A 
ATOM      3  C   UNL     1       1.872   3.357  21.775  0.00  0.00    +0.000 A 
ATOM      4  C   UNL     1       2.648   2.365  21.208  0.00  0.00    +0.000 A 
ATOM      5  C   UNL     1       3.311   2.606  20.003  0.00  0.00    +0.000 A 
ATOM      6  C   UNL     1       3.208   3.833  19.322  0.00  0.00    +0.000 A 
ENDROOT
BRANCH   1  10
ATOM      7  N   UNL     1       1.839   8.228  19.167  0.00  0.00    +0.000 N 
ATOM      8  N   UNL     1       2.225   7.813  17.943  0.00  0.00    +0.000 NA
ATOM      9  N   UNL     1       2.560   6.543  18.098  0.00  0.00    +0.000 NA
ATOM     10  C   UNL     1       2.389   6.237  19.430  0.00  0.00    +0.000 A 
ATOM     11  N   UNL     1       2.031   7.309  20.156  0.00  0.00    +0.000 NA
BRANCH   7  16
ATOM     12  C   UNL     1       0.981  11.814  18.903  0.00  0.00    +0.000 A 
ATOM     13  C   UNL     1       0.043  11.936  19.929  0.00  0.00    +0.000 A 
ATOM     14  C   UNL     1      -0.341  10.823  20.682  0.00  0.00    +0.000 A 
ATOM     15  C   UNL     1       0.219   9.572  20.421  0.00  0.00    +0.000 A 
ATOM     16  C   UNL     1       1.176   9.451  19.406  0.00  0.00    +0.000 A 
ATOM     17  C   UNL     1       1.545  10.570  18.645  0.00  0.00    +0.000 A 
BRANCH  12  19
ATOM     18  C   UNL     1       2.648  13.378  18.279  0.00  0.00    +0.000 C 
ATOM     19  O   UNL     1       1.284  12.969  18.235  0.00  0.00    +0.000 OA
ENDBRANCH  12  19
ENDBRANCH   7  16
ENDBRANCH   1  10
BRANCH   6  20
ATOM     20  N   UNL     1       3.861   4.020  18.061  0.00  0.00    +0.000 N 
ATOM     21  C   UNL     1       5.226   4.222  17.906  0.00  0.00    +0.000 C 
ATOM     22  O   UNL     1       6.059   4.157  18.807  0.00  0.00    +0.000 OA
ATOM     23  H   UNL     1       3.263   3.918  17.246  0.00  0.00    +0.000 HD
BRANCH  21  24
ATOM     24  C   UNL     1       5.774   4.519  16.553  0.00  0.00    +0.000 A 
ATOM     25  C   UNL     1       7.005   5.198  16.514  0.00  0.00    +0.000 A 
ATOM     26  C   UNL     1       7.663   5.432  15.306  0.00  0.00    +0.000 A 
ATOM     27  C   UNL     1       7.133   4.945  14.114  0.00  0.00    +0.000 A 
ATOM     28  C   UNL     1       5.874   4.333  14.145  0.00  0.00    +0.000 A 
ATOM     29  C   UNL     1       5.197   4.103  15.355  0.00  0.00    +0.000 A 
BRANCH  27  30
ATOM     30  N   UNL     1       7.747   5.256  12.897  0.00  0.00    +0.000 N 
ATOM     31  H   UNL     1       8.332   6.087  12.941  0.00  0.00    +0.000 HD
ATOM     32  H   UNL     1       8.237   4.476  12.469  0.00  0.00    +0.000 HD
ENDBRANCH  27  30
ENDBRANCH  21  24
ENDBRANCH   6  20
TORSDOF 6
ENDMDL
MODEL 6
REMARK VINA RESULT:      -8.3      4.813      7.959
REMARK  Name = 
REMARK  7 active torsions:
REMARK  status: ('A' for Active; 'I' for Inactive)
REMARK    1  A    between atoms: C_1  and  O_2
REMARK    2  A    between atoms: O_2  and  C_3
REMARK    3  A    between atoms: C_7  and  N_8
REMARK    4  A    between atoms: C_11  and  C_12
REMARK    5  A    between atoms: C_17  and  N_18
REMARK    6  A    between atoms: C_19  and  C_21
REMARK    7  A    between atoms: C_24  and  N_25
REMARK                            x       y       z     vdW  Elec       q    Type
REMARK                         _______ _______ _______ _____ _____    ______ ____
ROOT
ATOM      1  C   UNL     1       6.619   6.110  16.498  0.00  0.00    +0.000 A 
ATOM      2  C   UNL     1       7.471   5.183  15.855  0.00  0.00    +0.000 A 
ATOM      3  C   UNL     1       7.000   4.315  14.872  0.00  0.00    +0.000 A 
ATOM      4  C   UNL     1       5.671   4.370  14.500  0.00  0.00    +0.000 A 
ATOM      5  C   UNL     1       4.809   5.268  15.133  0.00  0.00    +0.000 A 
ATOM      6  C   UNL     1       5.242   6.124  16.163  0.00  0.00    +0.000 A 
ENDROOT
BRANCH   1  10
ATOM      7  N   UNL     1       8.177   8.717  18.241  0.00  0.00    +0.000 N 
ATOM      8  N   UNL     1       8.592   7.690  19.011  0.00  0.00    +0.000 NA
ATOM      9  N   UNL     1       8.016   6.616  18.495  0.00  0.00    +0.000 NA
ATOM     10  C   UNL     1       7.242   7.040  17.437  0.00  0.00    +0.000 A 
ATOM     11  N   UNL     1       7.241   8.377  17.310  0.00  0.00    +0.000 NA
BRANCH   7  16
ATOM     12  C   UNL     1      10.356  11.509  19.302  0.00  0.00    +0.000 A 
ATOM     13  C   UNL     1       9.802  12.565  18.577  0.00  0.00    +0.000 A 
ATOM     14  C   UNL     1       8.733  12.348  17.702  0.00  0.00    +0.000 A 
ATOM     15  C   UNL     1       8.201  11.067  17.549  0.00  0.00    +0.000 A 
ATOM     16  C   UNL     1       8.741  10.010  18.290  0.00  0.00    +0.000 A 
ATOM     17  C   UNL     1       9.823  10.233  19.156  0.00  0.00    +0.000 A 
BRANCH  12  19
ATOM     18  C   UNL     1      12.320  12.796  19.625  0.00  0.00    +0.000 C 
ATOM     19  O   UNL     1      11.394  11.838  20.130  0.00  0.00    +0.000 OA
ENDBRANCH  12  19
ENDBRANCH   7  16
ENDBRANCH   1  10
BRANCH   6  20
ATOM     20  N   UNL     1       4.313   6.991  16.823  0.00  0.00    +0.000 N 
ATOM     21  C   UNL     1       3.588   6.647  17.957  0.00  0.00    +0.000 C 
ATOM     22  O   UNL     1       3.727   5.609  18.599  0.00  0.00    +0.000 OA
ATOM     23  H   UNL     1       4.265   7.936  16.452  0.00  0.00    +0.000 HD
BRANCH  21  24
ATOM     24  C   UNL     1       2.566   7.592  18.488  0.00  0.00    +0.000 A 
ATOM     25  C   UNL     1       2.184   7.408  19.829  0.00  0.00    +0.000 A 
ATOM     26  C   UNL     1       1.316   8.299  20.461  0.00  0.00    +0.000 A 
ATOM     27  C   UNL     1       0.854   9.425  19.785  0.00  0.00    +0.000 A 
ATOM     28  C   UNL     1       1.176   9.569  18.430  0.00  0.00    +0.000 A 
ATOM     29  C   UNL     1       2.039   8.670  17.780  0.00  0.00    +0.000 A 
BRANCH  27  30
ATOM     30  N   UNL     1      -0.084  10.268  20.391  0.00  0.00    +0.000 N 
ATOM     31  H   UNL     1       0.036  10.347  21.397  0.00  0.00    +0.000 HD
ATOM     32  H   UNL     1      -0.165  11.179  19.951  0.00  0.00    +0.000 HD
ENDBRANCH  27  30
ENDBRANCH  21  24
ENDBRANCH   6  20
TORSDOF 6
ENDMDL
MODEL 7
REMARK VINA RESULT:      -8.1      2.221      8.181
REMARK  Name = 
REMARK  7 active torsions:
REMARK  status: ('A' for Active; 'I' for Inactive)
REMARK    1  A    between atoms: C_1  and  O_2
REMARK    2  A    between atoms: O_2  and  C_3
REMARK    3  A    between atoms: C_7  and  N_8
REMARK    4  A    between atoms: C_11  and  C_12
REMARK    5  A    between atoms: C_17  and  N_18
REMARK    6  A    between atoms: C_19  and  C_21
REMARK    7  A    between atoms: C_24  and  N_25
REMARK                            x       y       z     vdW  Elec       q    Type
REMARK                         _______ _______ _______ _____ _____    ______ ____
ROOT
ATOM      1  C   UNL     1       3.545   3.787  18.842  0.00  0.00    +0.000 A 
ATOM      2  C   UNL     1       3.622   2.445  19.282  0.00  0.00    +0.000 A 
ATOM      3  C   UNL     1       2.600   1.859  20.027  0.00  0.00    +0.000 A 
ATOM      4  C   UNL     1       1.474   2.598  20.330  0.00  0.00    +0.000 A 
ATOM      5  C   UNL     1       1.385   3.930  19.918  0.00  0.00    +0.000 A 
ATOM      6  C   UNL     1       2.419   4.566  19.207  0.00  0.00    +0.000 A 
ENDROOT
BRANCH   1  10
ATOM      7  N   UNL     1       5.832   4.609  16.320  0.00  0.00    +0.000 N 
ATOM      8  N   UNL     1       6.675   4.652  17.372  0.00  0.00    +0.000 NA
ATOM      9  N   UNL     1       5.919   4.415  18.432  0.00  0.00    +0.000 NA
ATOM     10  C   UNL     1       4.625   4.263  17.982  0.00  0.00    +0.000 A 
ATOM     11  N   UNL     1       4.518   4.480  16.661  0.00  0.00    +0.000 NA
BRANCH   7  16
ATOM     12  C   UNL     1       6.002   3.605  12.766  0.00  0.00    +0.000 A 
ATOM     13  C   UNL     1       7.138   4.301  12.350  0.00  0.00    +0.000 A 
ATOM     14  C   UNL     1       7.825   5.139  13.233  0.00  0.00    +0.000 A 
ATOM     15  C   UNL     1       7.385   5.283  14.550  0.00  0.00    +0.000 A 
ATOM     16  C   UNL     1       6.259   4.570  14.975  0.00  0.00    +0.000 A 
ATOM     17  C   UNL     1       5.566   3.742  14.079  0.00  0.00    +0.000 A 
BRANCH  12  19
ATOM     18  C   UNL     1       4.112   3.207  11.394  0.00  0.00    +0.000 C 
ATOM     19  O   UNL     1       5.413   2.811  11.820  0.00  0.00    +0.000 OA
ENDBRANCH  12  19
ENDBRANCH   7  16
ENDBRANCH   1  10
BRANCH   6  20
ATOM     20  N   UNL     1       2.311   5.948  18.852  0.00  0.00    +0.000 N 
ATOM     21  C   UNL     1       1.951   6.960  19.733  0.00  0.00    +0.000 C 
ATOM     22  O   UNL     1       1.788   6.821  20.943  0.00  0.00    +0.000 OA
ATOM     23  H   UNL     1       2.595   6.175  17.902  0.00  0.00    +0.000 HD
BRANCH  21  24
ATOM     24  C   UNL     1       1.760   8.345  19.220  0.00  0.00    +0.000 A 
ATOM     25  C   UNL     1       1.022   9.218  20.041  0.00  0.00    +0.000 A 
ATOM     26  C   UNL     1       0.873  10.565  19.712  0.00  0.00    +0.000 A 
ATOM     27  C   UNL     1       1.503  11.085  18.585  0.00  0.00    +0.000 A 
ATOM     28  C   UNL     1       2.177  10.203  17.730  0.00  0.00    +0.000 A 
ATOM     29  C   UNL     1       2.322   8.841  18.046  0.00  0.00    +0.000 A 
BRANCH  27  30
ATOM     30  N   UNL     1       1.281  12.414  18.209  0.00  0.00    +0.000 N 
ATOM     31  H   UNL     1       1.406  13.074  18.971  0.00  0.00    +0.000 HD
ATOM     32  H   UNL     1       1.791  12.700  17.379  0.00  0.00    +0.000 HD
ENDBRANCH  27  30
ENDBRANCH  21  24
ENDBRANCH   6  20
TORSDOF 6
ENDMDL
MODEL 8
REMARK VINA RESULT:      -8.1      2.398      8.387
REMARK  Name = 
REMARK  7 active torsions:
REMARK  status: ('A' for Active; 'I' for Inactive)
REMARK    1  A    between atoms: C_1  and  O_2
REMARK    2  A    between atoms: O_2  and  C_3
REMARK    3  A    between atoms: C_7  and  N_8
REMARK    4  A    between atoms: C_11  and  C_12
REMARK    5  A    between atoms: C_17  and  N_18
REMARK    6  A    between atoms: C_19  and  C_21
REMARK    7  A    between atoms: C_24  and  N_25
REMARK                            x       y       z     vdW  Elec       q    Type
REMARK                         _______ _______ _______ _____ _____    ______ ____
ROOT
ATOM      1  C   UNL     1       3.514   3.530  18.348  0.00  0.00    +0.000 A 
ATOM      2  C   UNL     1       3.571   2.138  18.589  0.00  0.00    +0.000 A 
ATOM      3  C   UNL     1       2.572   1.476  19.300  0.00  0.00    +0.000 A 
ATOM      4  C   UNL     1       1.487   2.190  19.767  0.00  0.00    +0.000 A 
ATOM      5  C   UNL     1       1.418   3.569  19.552  0.00  0.00    +0.000 A 
ATOM      6  C   UNL     1       2.434   4.275  18.881  0.00  0.00    +0.000 A 
ENDROOT
BRANCH   1  10
ATOM      7  N   UNL     1       5.773   4.531  15.866  0.00  0.00    +0.000 N 
ATOM      8  N   UNL     1       6.577   4.688  16.938  0.00  0.00    +0.000 NA
ATOM      9  N   UNL     1       5.819   4.397  17.983  0.00  0.00    +0.000 NA
ATOM     10  C   UNL     1       4.563   4.098  17.504  0.00  0.00    +0.000 A 
ATOM     11  N   UNL     1       4.471   4.272  16.175  0.00  0.00    +0.000 NA
BRANCH   7  16
ATOM     12  C   UNL     1       6.107   3.509  12.329  0.00  0.00    +0.000 A 
ATOM     13  C   UNL     1       7.210   4.269  11.938  0.00  0.00    +0.000 A 
ATOM     14  C   UNL     1       7.820   5.155  12.832  0.00  0.00    +0.000 A 
ATOM     15  C   UNL     1       7.334   5.283  14.134  0.00  0.00    +0.000 A 
ATOM     16  C   UNL     1       6.241   4.507  14.534  0.00  0.00    +0.000 A 
ATOM     17  C   UNL     1       5.626   3.631  13.628  0.00  0.00    +0.000 A 
BRANCH  12  19
ATOM     18  C   UNL     1       6.146   1.360  11.331  0.00  0.00    +0.000 C 
ATOM     19  O   UNL     1       5.594   2.673  11.375  0.00  0.00    +0.000 OA
ENDBRANCH  12  19
ENDBRANCH   7  16
ENDBRANCH   1  10
BRANCH   6  20
ATOM     20  N   UNL     1       2.350   5.696  18.730  0.00  0.00    +0.000 N 
ATOM     21  C   UNL     1       2.014   6.576  19.752  0.00  0.00    +0.000 C 
ATOM     22  O   UNL     1       1.855   6.266  20.930  0.00  0.00    +0.000 OA
ATOM     23  H   UNL     1       2.634   6.053  17.822  0.00  0.00    +0.000 HD
BRANCH  21  24
ATOM     24  C   UNL     1       1.847   8.024  19.446  0.00  0.00    +0.000 A 
ATOM     25  C   UNL     1       2.283   8.449  18.178  0.00  0.00    +0.000 A 
ATOM     26  C   UNL     1       2.078   9.759  17.745  0.00  0.00    +0.000 A 
ATOM     27  C   UNL     1       1.384  10.661  18.547  0.00  0.00    +0.000 A 
ATOM     28  C   UNL     1       1.013  10.260  19.836  0.00  0.00    +0.000 A 
ATOM     29  C   UNL     1       1.227   8.945  20.288  0.00  0.00    +0.000 A 
BRANCH  27  30
ATOM     30  N   UNL     1       1.256  11.996  18.149  0.00  0.00    +0.000 N 
ATOM     31  H   UNL     1       0.455  12.162  17.546  0.00  0.00    +0.000 HD
ATOM     32  H   UNL     1       1.292  12.661  18.915  0.00  0.00    +0.000 HD
ENDBRANCH  27  30
ENDBRANCH  21  24
ENDBRANCH   6  20
TORSDOF 6
ENDMDL
MODEL 9
REMARK VINA RESULT:      -8.0      2.310      8.361
REMARK  Name = 
REMARK  7 active torsions:
REMARK  status: ('A' for Active; 'I' for Inactive)
REMARK    1  A    between atoms: C_1  and  O_2
REMARK    2  A    between atoms: O_2  and  C_3
REMARK    3  A    between atoms: C_7  and  N_8
REMARK    4  A    between atoms: C_11  and  C_12
REMARK    5  A    between atoms: C_17  and  N_18
REMARK    6  A    between atoms: C_19  and  C_21
REMARK    7  A    between atoms: C_24  and  N_25
REMARK                            x       y       z     vdW  Elec       q    Type
REMARK                         _______ _______ _______ _____ _____    ______ ____
ROOT
ATOM      1  C   UNL     1       4.117   4.403  18.792  0.00  0.00    +0.000 A 
ATOM      2  C   UNL     1       4.440   3.060  19.093  0.00  0.00    +0.000 A 
ATOM      3  C   UNL     1       3.819   2.372  20.133  0.00  0.00    +0.000 A 
ATOM      4  C   UNL     1       2.848   3.008  20.882  0.00  0.00    +0.000 A 
ATOM      5  C   UNL     1       2.524   4.339  20.610  0.00  0.00    +0.000 A 
ATOM      6  C   UNL     1       3.167   5.077  19.599  0.00  0.00    +0.000 A 
ENDROOT
BRANCH   1  10
ATOM      7  N   UNL     1       5.649   5.213  15.749  0.00  0.00    +0.000 N 
ATOM      8  N   UNL     1       6.182   6.195  16.506  0.00  0.00    +0.000 NA
ATOM      9  N   UNL     1       5.631   6.049  17.700  0.00  0.00    +0.000 NA
ATOM     10  C   UNL     1       4.755   4.989  17.616  0.00  0.00    +0.000 A 
ATOM     11  N   UNL     1       4.665   4.501  16.369  0.00  0.00    +0.000 NA
BRANCH   7  16
ATOM     12  C   UNL     1       5.877   3.499  12.482  0.00  0.00    +0.000 A 
ATOM     13  C   UNL     1       7.114   3.960  12.029  0.00  0.00    +0.000 A 
ATOM     14  C   UNL     1       7.856   4.874  12.784  0.00  0.00    +0.000 A 
ATOM     15  C   UNL     1       7.369   5.331  14.009  0.00  0.00    +0.000 A 
ATOM     16  C   UNL     1       6.139   4.854  14.475  0.00  0.00    +0.000 A 
ATOM     17  C   UNL     1       5.394   3.948  13.706  0.00  0.00    +0.000 A 
BRANCH  12  19
ATOM     18  C   UNL     1       3.995   3.029  11.122  0.00  0.00    +0.000 C 
ATOM     19  O   UNL     1       5.242   2.605  11.665  0.00  0.00    +0.000 OA
ENDBRANCH  12  19
ENDBRANCH   7  16
ENDBRANCH   1  10
BRANCH   6  20
ATOM     20  N   UNL     1       2.843   6.456  19.391  0.00  0.00    +0.000 N 
ATOM     21  C   UNL     1       1.906   7.164  20.134  0.00  0.00    +0.000 C 
ATOM     22  O   UNL     1       1.320   6.737  21.126  0.00  0.00    +0.000 OA
ATOM     23  H   UNL     1       3.410   6.933  18.695  0.00  0.00    +0.000 HD
BRANCH  21  24
ATOM     24  C   UNL     1       1.572   8.564  19.749  0.00  0.00    +0.000 A 
ATOM     25  C   UNL     1       1.919   8.951  18.443  0.00  0.00    +0.000 A 
ATOM     26  C   UNL     1       1.558  10.202  17.940  0.00  0.00    +0.000 A 
ATOM     27  C   UNL     1       0.794  11.072  18.713  0.00  0.00    +0.000 A 
ATOM     28  C   UNL     1       0.510  10.716  20.037  0.00  0.00    +0.000 A 
ATOM     29  C   UNL     1       0.881   9.464  20.557  0.00  0.00    +0.000 A 
BRANCH  27  30
ATOM     30  N   UNL     1       0.508  12.358  18.241  0.00  0.00    +0.000 N 
ATOM     31  H   UNL     1       1.334  12.940  18.132  0.00  0.00    +0.000 HD
ATOM     32  H   UNL     1      -0.074  12.373  17.409  0.00  0.00    +0.000 HD
ENDBRANCH  27  30
ENDBRANCH  21  24
ENDBRANCH   6  20
TORSDOF 6
ENDMDL
