MODEL 1
REMARK VINA RESULT:      -8.4      0.000      0.000
REMARK  Name = 
REMARK  6 active torsions:
REMARK  status: ('A' for Active; 'I' for Inactive)
REMARK    1  A    between atoms: C_2  and  C_4
REMARK    2  A    between atoms: C_4  and  O_7
REMARK    3  A    between atoms: O_7  and  C_8
REMARK    4  A    between atoms: C_11  and  C_12
REMARK    5  A    between atoms: C_12  and  N_13
REMARK    6  A    between atoms: C_16  and  C_17
REMARK                            x       y       z     vdW  Elec       q    Type
REMARK                         _______ _______ _______ _____ _____    ______ ____
ROOT
ATOM      1  N   UNL     1       1.844   7.962  20.015  0.00  0.00    +0.000 NA
ATOM      2  C   UNL     1       1.861   8.374  18.607  0.00  0.00    +0.000 C 
ATOM      3  C   UNL     1       1.875   9.890  18.430  0.00  0.00    +0.000 C 
ATOM      4  C   UNL     1       0.731  10.562  19.189  0.00  0.00    +0.000 C 
ATOM      5  C   UNL     1       0.753  10.123  20.650  0.00  0.00    +0.000 C 
ATOM      6  C   UNL     1       0.798   8.606  20.813  0.00  0.00    +0.000 C 
ENDROOT
BRANCH   4   7
ATOM      7  C   UNL     1      -0.591  10.401  18.506  0.00  0.00    +0.000 A 
ATOM      8  N   UNL     1      -0.823   9.536  17.449  0.00  0.00    +0.000 NA
ATOM      9  N   UNL     1      -2.105   9.630  17.079  0.00  0.00    +0.000 NA
ATOM     10  N   UNL     1      -2.676  10.541  17.884  0.00  0.00    +0.000 N 
ATOM     11  C   UNL     1      -4.019  10.939  17.847  0.00  0.00    +0.000 A 
ATOM     12  N   UNL     1      -4.504  11.839  18.681  0.00  0.00    +0.000 NA
ATOM     13  C   UNL     1      -3.590  12.338  19.566  0.00  0.00    +0.000 A 
ATOM     14  N   UNL     1      -3.868  13.277  20.522  0.00  0.00    +0.000 N 
ATOM     15  C   UNL     1      -2.724  13.556  21.244  0.00  0.00    +0.000 A 
ATOM     16  C   UNL     1      -1.688  12.790  20.745  0.00  0.00    +0.000 A 
ATOM     17  C   UNL     1      -2.246  12.036  19.709  0.00  0.00    +0.000 A 
ATOM     18  C   UNL     1      -1.768  11.038  18.773  0.00  0.00    +0.000 A 
ATOM     19  H   UNL     1      -4.778  13.688  20.667  0.00  0.00    +0.000 HD
ENDBRANCH   4   7
BRANCH   1  20
ATOM     20  C   UNL     1       1.827   6.491  20.172  0.00  0.00    +0.000 C 
BRANCH  20  24
ATOM     21  C   UNL     1       4.544   4.343  17.543  0.00  0.00    +0.000 A 
ATOM     22  C   UNL     1       4.985   4.875  18.754  0.00  0.00    +0.000 A 
ATOM     23  C   UNL     1       4.099   5.537  19.607  0.00  0.00    +0.000 A 
ATOM     24  C   UNL     1       2.750   5.696  19.264  0.00  0.00    +0.000 A 
ATOM     25  C   UNL     1       2.303   5.138  18.059  0.00  0.00    +0.000 A 
ATOM     26  C   UNL     1       3.195   4.471  17.206  0.00  0.00    +0.000 A 
BRANCH  21  27
ATOM     27  O   UNL     1       5.323   3.691  16.625  0.00  0.00    +0.000 OA
BRANCH  27  28
ATOM     28  C   UNL     1       6.226   4.484  15.848  0.00  0.00    +0.000 C 
ATOM     29  F   UNL     1       7.450   4.489  16.440  0.00  0.00    +0.000 F 
ATOM     30  F   UNL     1       5.771   5.769  15.825  0.00  0.00    +0.000 F 
BRANCH  28  32
ATOM     31  F   UNL     1       5.145   4.110  13.760  0.00  0.00    +0.000 F 
ATOM     32  C   UNL     1       6.334   3.973  14.412  0.00  0.00    +0.000 C 
ATOM     33  F   UNL     1       7.242   4.686  13.694  0.00  0.00    +0.000 F 
ENDBRANCH  28  32
ENDBRANCH  27  28
ENDBRANCH  21  27
ENDBRANCH  20  24
ENDBRANCH   1  20
TORSDOF 6
ENDMDL
MODEL 2
REMARK VINA RESULT:      -8.3      2.753      4.335
REMARK  Name = 
REMARK  6 active torsions:
REMARK  status: ('A' for Active; 'I' for Inactive)
REMARK    1  A    between atoms: C_2  and  C_4
REMARK    2  A    between atoms: C_4  and  O_7
REMARK    3  A    between atoms: O_7  and  C_8
REMARK    4  A    between atoms: C_11  and  C_12
REMARK    5  A    between atoms: C_12  and  N_13
REMARK    6  A    between atoms: C_16  and  C_17
REMARK                            x       y       z     vdW  Elec       q    Type
REMARK                         _______ _______ _______ _____ _____    ______ ____
ROOT
ATOM      1  N   UNL     1       0.390  10.369  19.628  0.00  0.00    +0.000 NA
ATOM      2  C   UNL     1      -1.000   9.924  19.472  0.00  0.00    +0.000 C 
ATOM      3  C   UNL     1      -1.805  10.809  18.525  0.00  0.00    +0.000 C 
ATOM      4  C   UNL     1      -1.736  12.283  18.924  0.00  0.00    +0.000 C 
ATOM      5  C   UNL     1      -0.278  12.713  19.061  0.00  0.00    +0.000 C 
ATOM      6  C   UNL     1       0.530  11.787  19.967  0.00  0.00    +0.000 C 
ENDROOT
BRANCH   4   7
ATOM      7  C   UNL     1      -2.598  12.604  20.104  0.00  0.00    +0.000 A 
ATOM      8  N   UNL     1      -2.116  13.034  21.330  0.00  0.00    +0.000 NA
ATOM      9  N   UNL     1      -3.145  13.237  22.159  0.00  0.00    +0.000 NA
ATOM     10  N   UNL     1      -4.261  12.940  21.474  0.00  0.00    +0.000 N 
ATOM     11  C   UNL     1      -5.571  13.025  21.965  0.00  0.00    +0.000 A 
ATOM     12  N   UNL     1      -6.616  12.718  21.222  0.00  0.00    +0.000 NA
ATOM     13  C   UNL     1      -6.308  12.315  19.953  0.00  0.00    +0.000 A 
ATOM     14  N   UNL     1      -7.230  11.953  19.008  0.00  0.00    +0.000 N 
ATOM     15  C   UNL     1      -6.582  11.603  17.840  0.00  0.00    +0.000 A 
ATOM     16  C   UNL     1      -5.220  11.737  18.031  0.00  0.00    +0.000 A 
ATOM     17  C   UNL     1      -5.070  12.186  19.346  0.00  0.00    +0.000 A 
ATOM     18  C   UNL     1      -3.958  12.541  20.205  0.00  0.00    +0.000 A 
ATOM     19  H   UNL     1      -8.228  11.951  19.158  0.00  0.00    +0.000 HD
ENDBRANCH   4   7
BRANCH   1  20
ATOM     20  C   UNL     1       1.158   9.506  20.552  0.00  0.00    +0.000 C 
BRANCH  20  24
ATOM     21  C   UNL     1       2.627   5.801  18.812  0.00  0.00    +0.000 A 
ATOM     22  C   UNL     1       2.659   6.996  18.094  0.00  0.00    +0.000 A 
ATOM     23  C   UNL     1       2.213   8.187  18.671  0.00  0.00    +0.000 A 
ATOM     24  C   UNL     1       1.711   8.212  19.978  0.00  0.00    +0.000 A 
ATOM     25  C   UNL     1       1.705   7.015  20.708  0.00  0.00    +0.000 A 
ATOM     26  C   UNL     1       2.156   5.822  20.127  0.00  0.00    +0.000 A 
BRANCH  21  27
ATOM     27  O   UNL     1       3.022   4.576  18.345  0.00  0.00    +0.000 OA
BRANCH  27  28
ATOM     28  C   UNL     1       2.009   3.723  17.800  0.00  0.00    +0.000 C 
ATOM     29  F   UNL     1       2.497   3.083  16.705  0.00  0.00    +0.000 F 
ATOM     30  F   UNL     1       0.960   4.494  17.397  0.00  0.00    +0.000 F 
BRANCH  28  32
ATOM     31  F   UNL     1       0.257   2.280  18.516  0.00  0.00    +0.000 F 
ATOM     32  C   UNL     1       1.512   2.710  18.829  0.00  0.00    +0.000 C 
ATOM     33  F   UNL     1       2.295   1.598  18.855  0.00  0.00    +0.000 F 
ENDBRANCH  28  32
ENDBRANCH  27  28
ENDBRANCH  21  27
ENDBRANCH  20  24
ENDBRANCH   1  20
TORSDOF 6
ENDMDL
MODEL 3
REMARK VINA RESULT:      -8.2      2.637      4.236
REMARK  Name = 
REMARK  6 active torsions:
REMARK  status: ('A' for Active; 'I' for Inactive)
REMARK    1  A    between atoms: C_2  and  C_4
REMARK    2  A    between atoms: C_4  and  O_7
REMARK    3  A    between atoms: O_7  and  C_8
REMARK    4  A    between atoms: C_11  and  C_12
REMARK    5  A    between atoms: C_12  and  N_13
REMARK    6  A    between atoms: C_16  and  C_17
REMARK                            x       y       z     vdW  Elec       q    Type
REMARK                         _______ _______ _______ _____ _____    ______ ____
ROOT
ATOM      1  N   UNL     1       0.374  10.420  19.198  0.00  0.00    +0.000 NA
ATOM      2  C   UNL     1      -0.991   9.886  19.257  0.00  0.00    +0.000 C 
ATOM      3  C   UNL     1      -1.962  10.633  18.347  0.00  0.00    +0.000 C 
ATOM      4  C   UNL     1      -1.945  12.139  18.609  0.00  0.00    +0.000 C 
ATOM      5  C   UNL     1      -0.514  12.661  18.525  0.00  0.00    +0.000 C 
ATOM      6  C   UNL     1       0.459  11.869  19.396  0.00  0.00    +0.000 C 
ENDROOT
BRANCH   4   7
ATOM      7  C   UNL     1      -2.678  12.518  19.857  0.00  0.00    +0.000 A 
ATOM      8  N   UNL     1      -2.066  12.963  21.017  0.00  0.00    +0.000 NA
ATOM      9  N   UNL     1      -3.003  13.222  21.936  0.00  0.00    +0.000 NA
ATOM     10  N   UNL     1      -4.189  12.943  21.371  0.00  0.00    +0.000 N 
ATOM     11  C   UNL     1      -5.441  13.083  21.984  0.00  0.00    +0.000 A 
ATOM     12  N   UNL     1      -6.563  12.792  21.354  0.00  0.00    +0.000 NA
ATOM     13  C   UNL     1      -6.391  12.346  20.073  0.00  0.00    +0.000 A 
ATOM     14  N   UNL     1      -7.412  11.990  19.233  0.00  0.00    +0.000 N 
ATOM     15  C   UNL     1      -6.891  11.589  18.018  0.00  0.00    +0.000 A 
ATOM     16  C   UNL     1      -5.514  11.683  18.073  0.00  0.00    +0.000 A 
ATOM     17  C   UNL     1      -5.223  12.162  19.354  0.00  0.00    +0.000 A 
ATOM     18  C   UNL     1      -4.022  12.502  20.090  0.00  0.00    +0.000 A 
ATOM     19  H   UNL     1      -8.390  12.025  19.479  0.00  0.00    +0.000 HD
ENDBRANCH   4   7
BRANCH   1  20
ATOM     20  C   UNL     1       1.305   9.690  20.088  0.00  0.00    +0.000 C 
BRANCH  20  24
ATOM     21  C   UNL     1       2.715   5.766  18.855  0.00  0.00    +0.000 A 
ATOM     22  C   UNL     1       2.136   5.962  20.108  0.00  0.00    +0.000 A 
ATOM     23  C   UNL     1       1.658   7.219  20.485  0.00  0.00    +0.000 A 
ATOM     24  C   UNL     1       1.759   8.317  19.622  0.00  0.00    +0.000 A 
ATOM     25  C   UNL     1       2.318   8.113  18.353  0.00  0.00    +0.000 A 
ATOM     26  C   UNL     1       2.794   6.849  17.976  0.00  0.00    +0.000 A 
BRANCH  21  27
ATOM     27  O   UNL     1       3.230   4.587  18.386  0.00  0.00    +0.000 OA
BRANCH  27  28
ATOM     28  C   UNL     1       2.310   3.646  17.823  0.00  0.00    +0.000 C 
ATOM     29  F   UNL     1       2.722   3.301  16.574  0.00  0.00    +0.000 F 
ATOM     30  F   UNL     1       1.090   4.244  17.707  0.00  0.00    +0.000 F 
BRANCH  28  32
ATOM     31  F   UNL     1       2.947   1.388  18.225  0.00  0.00    +0.000 F 
ATOM     32  C   UNL     1       2.169   2.402  18.698  0.00  0.00    +0.000 C 
ATOM     33  F   UNL     1       2.587   2.636  19.971  0.00  0.00    +0.000 F 
ENDBRANCH  28  32
ENDBRANCH  27  28
ENDBRANCH  21  27
ENDBRANCH  20  24
ENDBRANCH   1  20
TORSDOF 6
ENDMDL
MODEL 4
REMARK VINA RESULT:      -8.0      2.322      3.755
REMARK  Name = 
REMARK  6 active torsions:
REMARK  status: ('A' for Active; 'I' for Inactive)
REMARK    1  A    between atoms: C_2  and  C_4
REMARK    2  A    between atoms: C_4  and  O_7
REMARK    3  A    between atoms: O_7  and  C_8
REMARK    4  A    between atoms: C_11  and  C_12
REMARK    5  A    between atoms: C_12  and  N_13
REMARK    6  A    between atoms: C_16  and  C_17
REMARK                            x       y       z     vdW  Elec       q    Type
REMARK                         _______ _______ _______ _____ _____    ______ ____
ROOT
ATOM      1  N   UNL     1       0.738   9.869  20.440  0.00  0.00    +0.000 NA
ATOM      2  C   UNL     1      -0.153   9.810  19.276  0.00  0.00    +0.000 C 
ATOM      3  C   UNL     1      -0.202  11.123  18.498  0.00  0.00    +0.000 C 
ATOM      4  C   UNL     1      -0.547  12.307  19.400  0.00  0.00    +0.000 C 
ATOM      5  C   UNL     1       0.406  12.345  20.590  0.00  0.00    +0.000 C 
ATOM      6  C   UNL     1       0.490  11.009  21.326  0.00  0.00    +0.000 C 
ENDROOT
BRANCH   4   7
ATOM      7  C   UNL     1      -2.000  12.358  19.758  0.00  0.00    +0.000 A 
ATOM      8  N   UNL     1      -2.487  12.763  20.991  0.00  0.00    +0.000 NA
ATOM      9  N   UNL     1      -3.822  12.697  20.978  0.00  0.00    +0.000 NA
ATOM     10  N   UNL     1      -4.178  12.256  19.760  0.00  0.00    +0.000 N 
ATOM     11  C   UNL     1      -5.491  12.052  19.314  0.00  0.00    +0.000 A 
ATOM     12  N   UNL     1      -5.755  11.621  18.096  0.00  0.00    +0.000 NA
ATOM     13  C   UNL     1      -4.649  11.394  17.326  0.00  0.00    +0.000 A 
ATOM     14  N   UNL     1      -4.683  10.948  16.031  0.00  0.00    +0.000 N 
ATOM     15  C   UNL     1      -3.395  10.829  15.550  0.00  0.00    +0.000 A 
ATOM     16  C   UNL     1      -2.512  11.198  16.547  0.00  0.00    +0.000 A 
ATOM     17  C   UNL     1      -3.310  11.552  17.639  0.00  0.00    +0.000 A 
ATOM     18  C   UNL     1      -3.077  12.033  18.986  0.00  0.00    +0.000 A 
ATOM     19  H   UNL     1      -5.530  10.747  15.521  0.00  0.00    +0.000 HD
ENDBRANCH   4   7
BRANCH   1  20
ATOM     20  C   UNL     1       0.773   8.592  21.188  0.00  0.00    +0.000 C 
BRANCH  20  24
ATOM     21  C   UNL     1       2.880   5.326  19.240  0.00  0.00    +0.000 A 
ATOM     22  C   UNL     1       2.960   6.628  18.748  0.00  0.00    +0.000 A 
ATOM     23  C   UNL     1       2.305   7.676  19.398  0.00  0.00    +0.000 A 
ATOM     24  C   UNL     1       1.541   7.448  20.549  0.00  0.00    +0.000 A 
ATOM     25  C   UNL     1       1.484   6.142  21.056  0.00  0.00    +0.000 A 
ATOM     26  C   UNL     1       2.145   5.092  20.404  0.00  0.00    +0.000 A 
BRANCH  21  27
ATOM     27  O   UNL     1       3.466   4.221  18.680  0.00  0.00    +0.000 OA
BRANCH  27  28
ATOM     28  C   UNL     1       2.791   3.610  17.574  0.00  0.00    +0.000 C 
ATOM     29  F   UNL     1       3.575   3.687  16.466  0.00  0.00    +0.000 F 
ATOM     30  F   UNL     1       1.646   4.305  17.322  0.00  0.00    +0.000 F 
BRANCH  28  32
ATOM     31  F   UNL     1       3.522   1.349  17.728  0.00  0.00    +0.000 F 
ATOM     32  C   UNL     1       2.431   2.155  17.869  0.00  0.00    +0.000 C 
ATOM     33  F   UNL     1       2.008   1.994  19.151  0.00  0.00    +0.000 F 
ENDBRANCH  28  32
ENDBRANCH  27  28
ENDBRANCH  21  27
ENDBRANCH  20  24
ENDBRANCH   1  20
TORSDOF 6
ENDMDL
MODEL 5
REMARK VINA RESULT:      -8.0      0.607      1.103
REMARK  Name = 
REMARK  6 active torsions:
REMARK  status: ('A' for Active; 'I' for Inactive)
REMARK    1  A    between atoms: C_2  and  C_4
REMARK    2  A    between atoms: C_4  and  O_7
REMARK    3  A    between atoms: O_7  and  C_8
REMARK    4  A    between atoms: C_11  and  C_12
REMARK    5  A    between atoms: C_12  and  N_13
REMARK    6  A    between atoms: C_16  and  C_17
REMARK                            x       y       z     vdW  Elec       q    Type
REMARK                         _______ _______ _______ _____ _____    ______ ____
ROOT
ATOM      1  N   UNL     1       1.783   8.055  20.066  0.00  0.00    +0.000 NA
ATOM      2  C   UNL     1       1.797   8.397  18.639  0.00  0.00    +0.000 C 
ATOM      3  C   UNL     1       1.850   9.901  18.388  0.00  0.00    +0.000 C 
ATOM      4  C   UNL     1       0.734  10.642  19.125  0.00  0.00    +0.000 C 
ATOM      5  C   UNL     1       0.760  10.274  20.605  0.00  0.00    +0.000 C 
ATOM      6  C   UNL     1       0.764   8.766  20.841  0.00  0.00    +0.000 C 
ENDROOT
BRANCH   4   7
ATOM      7  C   UNL     1      -0.599  10.486  18.463  0.00  0.00    +0.000 A 
ATOM      8  N   UNL     1      -0.858   9.602  17.428  0.00  0.00    +0.000 NA
ATOM      9  N   UNL     1      -2.143   9.707  17.073  0.00  0.00    +0.000 NA
ATOM     10  N   UNL     1      -2.690  10.643  17.866  0.00  0.00    +0.000 N 
ATOM     11  C   UNL     1      -4.028  11.060  17.838  0.00  0.00    +0.000 A 
ATOM     12  N   UNL     1      -4.488  11.984  18.658  0.00  0.00    +0.000 NA
ATOM     13  C   UNL     1      -3.555  12.488  19.520  0.00  0.00    +0.000 A 
ATOM     14  N   UNL     1      -3.807  13.452  20.460  0.00  0.00    +0.000 N 
ATOM     15  C   UNL     1      -2.650  13.729  21.160  0.00  0.00    +0.000 A 
ATOM     16  C   UNL     1      -1.631  12.938  20.664  0.00  0.00    +0.000 A 
ATOM     17  C   UNL     1      -2.214  12.170  19.652  0.00  0.00    +0.000 A 
ATOM     18  C   UNL     1      -1.763  11.145  18.731  0.00  0.00    +0.000 A 
ATOM     19  H   UNL     1      -4.709  13.879  20.608  0.00  0.00    +0.000 HD
ENDBRANCH   4   7
BRANCH   1  20
ATOM     20  C   UNL     1       1.726   6.594  20.295  0.00  0.00    +0.000 C 
BRANCH  20  24
ATOM     21  C   UNL     1       4.298   4.240  17.697  0.00  0.00    +0.000 A 
ATOM     22  C   UNL     1       4.801   4.851  18.844  0.00  0.00    +0.000 A 
ATOM     23  C   UNL     1       3.962   5.580  19.690  0.00  0.00    +0.000 A 
ATOM     24  C   UNL     1       2.599   5.729  19.402  0.00  0.00    +0.000 A 
ATOM     25  C   UNL     1       2.090   5.091  18.262  0.00  0.00    +0.000 A 
ATOM     26  C   UNL     1       2.935   4.357  17.417  0.00  0.00    +0.000 A 
BRANCH  21  27
ATOM     27  O   UNL     1       5.027   3.517  16.790  0.00  0.00    +0.000 OA
BRANCH  27  28
ATOM     28  C   UNL     1       6.082   4.198  16.103  0.00  0.00    +0.000 C 
ATOM     29  F   UNL     1       6.228   3.669  14.859  0.00  0.00    +0.000 F 
ATOM     30  F   UNL     1       7.248   3.994  16.779  0.00  0.00    +0.000 F 
BRANCH  28  32
ATOM     31  F   UNL     1       6.982   6.402  16.129  0.00  0.00    +0.000 F 
ATOM     32  C   UNL     1       5.819   5.700  16.013  0.00  0.00    +0.000 C 
ATOM     33  F   UNL     1       5.290   6.044  14.809  0.00  0.00    +0.000 F 
ENDBRANCH  28  32
ENDBRANCH  27  28
ENDBRANCH  21  27
ENDBRANCH  20  24
ENDBRANCH   1  20
TORSDOF 6
ENDMDL
MODEL 6
REMARK VINA RESULT:      -7.9      3.058      4.218
REMARK  Name = 
REMARK  6 active torsions:
REMARK  status: ('A' for Active; 'I' for Inactive)
REMARK    1  A    between atoms: C_2  and  C_4
REMARK    2  A    between atoms: C_4  and  O_7
REMARK    3  A    between atoms: O_7  and  C_8
REMARK    4  A    between atoms: C_11  and  C_12
REMARK    5  A    between atoms: C_12  and  N_13
REMARK    6  A    between atoms: C_16  and  C_17
REMARK                            x       y       z     vdW  Elec       q    Type
REMARK                         _______ _______ _______ _____ _____    ______ ____
ROOT
ATOM      1  N   UNL     1       1.270   8.726  18.924  0.00  0.00    +0.000 NA
ATOM      2  C   UNL     1       1.372   8.838  20.383  0.00  0.00    +0.000 C 
ATOM      3  C   UNL     1       0.044   9.194  21.046  0.00  0.00    +0.000 C 
ATOM      4  C   UNL     1      -0.579  10.449  20.437  0.00  0.00    +0.000 C 
ATOM      5  C   UNL     1      -0.683  10.291  18.923  0.00  0.00    +0.000 C 
ATOM      6  C   UNL     1       0.639   9.879  18.278  0.00  0.00    +0.000 C 
ENDROOT
BRANCH   4   7
ATOM      7  C   UNL     1       0.091  11.708  20.891  0.00  0.00    +0.000 A 
ATOM      8  N   UNL     1       1.452  11.948  20.791  0.00  0.00    +0.000 NA
ATOM      9  N   UNL     1       1.720  13.164  21.279  0.00  0.00    +0.000 NA
ATOM     10  N   UNL     1       0.551  13.686  21.685  0.00  0.00    +0.000 N 
ATOM     11  C   UNL     1       0.375  14.955  22.253  0.00  0.00    +0.000 A 
ATOM     12  N   UNL     1      -0.813  15.396  22.621  0.00  0.00    +0.000 NA
ATOM     13  C   UNL     1      -1.834  14.515  22.402  0.00  0.00    +0.000 A 
ATOM     14  N   UNL     1      -3.148  14.759  22.702  0.00  0.00    +0.000 N 
ATOM     15  C   UNL     1      -3.913  13.664  22.352  0.00  0.00    +0.000 A 
ATOM     16  C   UNL     1      -3.084  12.694  21.822  0.00  0.00    +0.000 A 
ATOM     17  C   UNL     1      -1.799  13.243  21.855  0.00  0.00    +0.000 A 
ATOM     18  C   UNL     1      -0.472  12.811  21.464  0.00  0.00    +0.000 A 
ATOM     19  H   UNL     1      -3.487  15.617  23.111  0.00  0.00    +0.000 HD
ENDBRANCH   4   7
BRANCH   1  20
ATOM     20  C   UNL     1       2.565   8.385  18.293  0.00  0.00    +0.000 C 
BRANCH  20  24
ATOM     21  C   UNL     1       3.286   4.145  17.657  0.00  0.00    +0.000 A 
ATOM     22  C   UNL     1       2.015   4.618  17.977  0.00  0.00    +0.000 A 
ATOM     23  C   UNL     1       1.785   5.985  18.150  0.00  0.00    +0.000 A 
ATOM     24  C   UNL     1       2.825   6.914  18.020  0.00  0.00    +0.000 A 
ATOM     25  C   UNL     1       4.097   6.438  17.671  0.00  0.00    +0.000 A 
ATOM     26  C   UNL     1       4.324   5.066  17.495  0.00  0.00    +0.000 A 
BRANCH  21  27
ATOM     27  O   UNL     1       3.631   2.831  17.480  0.00  0.00    +0.000 OA
BRANCH  27  28
ATOM     28  C   UNL     1       3.429   1.944  18.586  0.00  0.00    +0.000 C 
ATOM     29  F   UNL     1       3.930   0.718  18.281  0.00  0.00    +0.000 F 
ATOM     30  F   UNL     1       2.090   1.805  18.796  0.00  0.00    +0.000 F 
BRANCH  28  32
ATOM     31  F   UNL     1       3.140   2.679  20.832  0.00  0.00    +0.000 F 
ATOM     32  C   UNL     1       4.077   2.479  19.862  0.00  0.00    +0.000 C 
ATOM     33  F   UNL     1       4.971   1.594  20.378  0.00  0.00    +0.000 F 
ENDBRANCH  28  32
ENDBRANCH  27  28
ENDBRANCH  21  27
ENDBRANCH  20  24
ENDBRANCH   1  20
TORSDOF 6
ENDMDL
MODEL 7
REMARK VINA RESULT:      -7.9      5.794     10.310
REMARK  Name = 
REMARK  6 active torsions:
REMARK  status: ('A' for Active; 'I' for Inactive)
REMARK    1  A    between atoms: C_2  and  C_4
REMARK    2  A    between atoms: C_4  and  O_7
REMARK    3  A    between atoms: O_7  and  C_8
REMARK    4  A    between atoms: C_11  and  C_12
REMARK    5  A    between atoms: C_12  and  N_13
REMARK    6  A    between atoms: C_16  and  C_17
REMARK                            x       y       z     vdW  Elec       q    Type
REMARK                         _______ _______ _______ _____ _____    ______ ____
ROOT
ATOM      1  N   UNL     1       1.502   6.939  20.259  0.00  0.00    +0.000 NA
ATOM      2  C   UNL     1       2.398   7.597  19.302  0.00  0.00    +0.000 C 
ATOM      3  C   UNL     1       2.509   6.845  17.978  0.00  0.00    +0.000 C 
ATOM      4  C   UNL     1       2.899   5.382  18.185  0.00  0.00    +0.000 C 
ATOM      5  C   UNL     1       1.939   4.727  19.174  0.00  0.00    +0.000 C 
ATOM      6  C   UNL     1       1.792   5.519  20.471  0.00  0.00    +0.000 C 
ENDROOT
BRANCH   4   7
ATOM      7  C   UNL     1       4.349   5.210  18.512  0.00  0.00    +0.000 A 
ATOM      8  N   UNL     1       4.881   5.322  19.786  0.00  0.00    +0.000 NA
ATOM      9  N   UNL     1       6.200   5.105  19.732  0.00  0.00    +0.000 NA
ATOM     10  N   UNL     1       6.501   4.861  18.446  0.00  0.00    +0.000 N 
ATOM     11  C   UNL     1       7.777   4.571  17.944  0.00  0.00    +0.000 A 
ATOM     12  N   UNL     1       7.986   4.337  16.663  0.00  0.00    +0.000 NA
ATOM     13  C   UNL     1       6.864   4.404  15.886  0.00  0.00    +0.000 A 
ATOM     14  N   UNL     1       6.843   4.194  14.533  0.00  0.00    +0.000 N 
ATOM     15  C   UNL     1       5.552   4.337  14.063  0.00  0.00    +0.000 A 
ATOM     16  C   UNL     1       4.725   4.648  15.126  0.00  0.00    +0.000 A 
ATOM     17  C   UNL     1       5.557   4.679  16.249  0.00  0.00    +0.000 A 
ATOM     18  C   UNL     1       5.382   4.922  17.667  0.00  0.00    +0.000 A 
ATOM     19  H   UNL     1       7.655   3.966  13.981  0.00  0.00    +0.000 HD
ENDBRANCH   4   7
BRANCH   1  20
ATOM     20  C   UNL     1       1.406   7.676  21.540  0.00  0.00    +0.000 C 
BRANCH  20  24
ATOM     21  C   UNL     1      -1.059  11.258  21.554  0.00  0.00    +0.000 A 
ATOM     22  C   UNL     1      -0.548  10.741  20.364  0.00  0.00    +0.000 A 
ATOM     23  C   UNL     1       0.218   9.573  20.365  0.00  0.00    +0.000 A 
ATOM     24  C   UNL     1       0.504   8.898  21.558  0.00  0.00    +0.000 A 
ATOM     25  C   UNL     1      -0.033   9.405  22.750  0.00  0.00    +0.000 A 
ATOM     26  C   UNL     1      -0.804  10.576  22.746  0.00  0.00    +0.000 A 
BRANCH  21  27
ATOM     27  O   UNL     1      -1.806  12.399  21.675  0.00  0.00    +0.000 OA
BRANCH  27  28
ATOM     28  C   UNL     1      -1.099  13.642  21.745  0.00  0.00    +0.000 C 
ATOM     29  F   UNL     1       0.234  13.401  21.857  0.00  0.00    +0.000 F 
ATOM     30  F   UNL     1      -1.496  14.308  22.867  0.00  0.00    +0.000 F 
BRANCH  28  32
ATOM     31  F   UNL     1      -0.697  15.697  20.611  0.00  0.00    +0.000 F 
ATOM     32  C   UNL     1      -1.378  14.519  20.526  0.00  0.00    +0.000 C 
ATOM     33  F   UNL     1      -0.960  13.925  19.376  0.00  0.00    +0.000 F 
ENDBRANCH  28  32
ENDBRANCH  27  28
ENDBRANCH  21  27
ENDBRANCH  20  24
ENDBRANCH   1  20
TORSDOF 6
ENDMDL
MODEL 8
REMARK VINA RESULT:      -7.9      5.887     10.558
REMARK  Name = 
REMARK  6 active torsions:
REMARK  status: ('A' for Active; 'I' for Inactive)
REMARK    1  A    between atoms: C_2  and  C_4
REMARK    2  A    between atoms: C_4  and  O_7
REMARK    3  A    between atoms: O_7  and  C_8
REMARK    4  A    between atoms: C_11  and  C_12
REMARK    5  A    between atoms: C_12  and  N_13
REMARK    6  A    between atoms: C_16  and  C_17
REMARK                            x       y       z     vdW  Elec       q    Type
REMARK                         _______ _______ _______ _____ _____    ______ ____
ROOT
ATOM      1  N   UNL     1       1.586   7.110  20.207  0.00  0.00    +0.000 NA
ATOM      2  C   UNL     1       2.476   7.716  19.212  0.00  0.00    +0.000 C 
ATOM      3  C   UNL     1       2.557   6.911  17.917  0.00  0.00    +0.000 C 
ATOM      4  C   UNL     1       2.928   5.451  18.176  0.00  0.00    +0.000 C 
ATOM      5  C   UNL     1       1.973   4.850  19.204  0.00  0.00    +0.000 C 
ATOM      6  C   UNL     1       1.858   5.695  20.471  0.00  0.00    +0.000 C 
ENDROOT
BRANCH   4   7
ATOM      7  C   UNL     1       4.381   5.269  18.489  0.00  0.00    +0.000 A 
ATOM      8  N   UNL     1       4.929   5.401  19.754  0.00  0.00    +0.000 NA
ATOM      9  N   UNL     1       6.245   5.168  19.688  0.00  0.00    +0.000 NA
ATOM     10  N   UNL     1       6.527   4.896  18.403  0.00  0.00    +0.000 N 
ATOM     11  C   UNL     1       7.794   4.583  17.892  0.00  0.00    +0.000 A 
ATOM     12  N   UNL     1       7.985   4.322  16.614  0.00  0.00    +0.000 NA
ATOM     13  C   UNL     1       6.854   4.387  15.849  0.00  0.00    +0.000 A 
ATOM     14  N   UNL     1       6.815   4.152  14.501  0.00  0.00    +0.000 N 
ATOM     15  C   UNL     1       5.520   4.300  14.044  0.00  0.00    +0.000 A 
ATOM     16  C   UNL     1       4.709   4.640  15.110  0.00  0.00    +0.000 A 
ATOM     17  C   UNL     1       5.555   4.683  16.222  0.00  0.00    +0.000 A 
ATOM     18  C   UNL     1       5.400   4.955  17.638  0.00  0.00    +0.000 A 
ATOM     19  H   UNL     1       7.618   3.904  13.943  0.00  0.00    +0.000 HD
ENDBRANCH   4   7
BRANCH   1  20
ATOM     20  C   UNL     1       1.520   7.897  21.459  0.00  0.00    +0.000 C 
BRANCH  20  24
ATOM     21  C   UNL     1      -1.160  11.322  21.472  0.00  0.00    +0.000 A 
ATOM     22  C   UNL     1      -0.695  10.777  20.276  0.00  0.00    +0.000 A 
ATOM     23  C   UNL     1       0.141   9.658  20.280  0.00  0.00    +0.000 A 
ATOM     24  C   UNL     1       0.545   9.063  21.481  0.00  0.00    +0.000 A 
ATOM     25  C   UNL     1       0.056   9.596  22.682  0.00  0.00    +0.000 A 
ATOM     26  C   UNL     1      -0.786  10.718  22.675  0.00  0.00    +0.000 A 
BRANCH  21  27
ATOM     27  O   UNL     1      -1.967  12.422  21.591  0.00  0.00    +0.000 OA
BRANCH  27  28
ATOM     28  C   UNL     1      -1.351  13.707  21.455  0.00  0.00    +0.000 C 
ATOM     29  F   UNL     1      -1.403  14.100  20.155  0.00  0.00    +0.000 F 
ATOM     30  F   UNL     1      -0.038  13.601  21.805  0.00  0.00    +0.000 F 
BRANCH  28  32
ATOM     31  F   UNL     1      -3.168  15.210  21.783  0.00  0.00    +0.000 F 
ATOM     32  C   UNL     1      -2.018  14.749  22.351  0.00  0.00    +0.000 C 
ATOM     33  F   UNL     1      -2.377  14.221  23.552  0.00  0.00    +0.000 F 
ENDBRANCH  28  32
ENDBRANCH  27  28
ENDBRANCH  21  27
ENDBRANCH  20  24
ENDBRANCH   1  20
TORSDOF 6
ENDMDL
MODEL 9
REMARK VINA RESULT:      -7.9      3.284      4.396
REMARK  Name = 
REMARK  6 active torsions:
REMARK  status: ('A' for Active; 'I' for Inactive)
REMARK    1  A    between atoms: C_2  and  C_4
REMARK    2  A    between atoms: C_4  and  O_7
REMARK    3  A    between atoms: O_7  and  C_8
REMARK    4  A    between atoms: C_11  and  C_12
REMARK    5  A    between atoms: C_12  and  N_13
REMARK    6  A    between atoms: C_16  and  C_17
REMARK                            x       y       z     vdW  Elec       q    Type
REMARK                         _______ _______ _______ _____ _____    ______ ____
ROOT
ATOM      1  N   UNL     1       1.330   8.754  18.764  0.00  0.00    +0.000 NA
ATOM      2  C   UNL     1       1.344   8.957  20.217  0.00  0.00    +0.000 C 
ATOM      3  C   UNL     1       0.000   9.428  20.765  0.00  0.00    +0.000 C 
ATOM      4  C   UNL     1      -0.508  10.673  20.037  0.00  0.00    +0.000 C 
ATOM      5  C   UNL     1      -0.523  10.420  18.532  0.00  0.00    +0.000 C 
ATOM      6  C   UNL     1       0.811   9.895  18.005  0.00  0.00    +0.000 C 
ENDROOT
BRANCH   4   7
ATOM      7  C   UNL     1       0.205  11.920  20.456  0.00  0.00    +0.000 A 
ATOM      8  N   UNL     1       1.382  12.377  19.884  0.00  0.00    +0.000 NA
ATOM      9  N   UNL     1       1.747  13.516  20.483  0.00  0.00    +0.000 NA
ATOM     10  N   UNL     1       0.821  13.777  21.419  0.00  0.00    +0.000 N 
ATOM     11  C   UNL     1       0.812  14.887  22.275  0.00  0.00    +0.000 A 
ATOM     12  N   UNL     1      -0.142  15.073  23.167  0.00  0.00    +0.000 NA
ATOM     13  C   UNL     1      -1.101  14.099  23.179  0.00  0.00    +0.000 A 
ATOM     14  N   UNL     1      -2.184  14.087  24.016  0.00  0.00    +0.000 N 
ATOM     15  C   UNL     1      -2.950  12.966  23.764  0.00  0.00    +0.000 A 
ATOM     16  C   UNL     1      -2.354  12.239  22.752  0.00  0.00    +0.000 A 
ATOM     17  C   UNL     1      -1.211  12.962  22.397  0.00  0.00    +0.000 A 
ATOM     18  C   UNL     1      -0.141  12.809  21.431  0.00  0.00    +0.000 A 
ATOM     19  H   UNL     1      -2.379  14.799  24.704  0.00  0.00    +0.000 HD
ENDBRANCH   4   7
BRANCH   1  20
ATOM     20  C   UNL     1       2.640   8.302  18.245  0.00  0.00    +0.000 C 
BRANCH  20  24
ATOM     21  C   UNL     1       3.050   4.009  17.686  0.00  0.00    +0.000 A 
ATOM     22  C   UNL     1       1.794   4.601  17.818  0.00  0.00    +0.000 A 
ATOM     23  C   UNL     1       1.670   5.984  17.967  0.00  0.00    +0.000 A 
ATOM     24  C   UNL     1       2.799   6.811  18.001  0.00  0.00    +0.000 A 
ATOM     25  C   UNL     1       4.060   6.217  17.841  0.00  0.00    +0.000 A 
ATOM     26  C   UNL     1       4.181   4.828  17.688  0.00  0.00    +0.000 A 
BRANCH  21  27
ATOM     27  O   UNL     1       3.293   2.668  17.550  0.00  0.00    +0.000 OA
BRANCH  27  28
ATOM     28  C   UNL     1       3.405   1.896  18.751  0.00  0.00    +0.000 C 
ATOM     29  F   UNL     1       4.237   2.527  19.620  0.00  0.00    +0.000 F 
ATOM     30  F   UNL     1       3.961   0.690  18.445  0.00  0.00    +0.000 F 
BRANCH  28  32
ATOM     31  F   UNL     1       1.787   2.606  20.348  0.00  0.00    +0.000 F 
ATOM     32  C   UNL     1       2.041   1.661  19.399  0.00  0.00    +0.000 C 
ATOM     33  F   UNL     1       1.033   1.758  18.492  0.00  0.00    +0.000 F 
ENDBRANCH  28  32
ENDBRANCH  27  28
ENDBRANCH  21  27
ENDBRANCH  20  24
ENDBRANCH   1  20
TORSDOF 6
ENDMDL
