MODEL 1
REMARK VINA RESULT:      -7.5      0.000      0.000
REMARK  Name = 
REMARK  6 active torsions:
REMARK  status: ('A' for Active; 'I' for Inactive)
REMARK    1  A    between atoms: C_1  and  C_2
REMARK    2  A    between atoms: C_6  and  N_7
REMARK    3  A    between atoms: C_10  and  N_11
REMARK    4  A    between atoms: N_11  and  C_12
REMARK    5  A    between atoms: C_19  and  C_20
REMARK    6  A    between atoms: C_26  and  C_27
REMARK                            x       y       z     vdW  Elec       q    Type
REMARK                         _______ _______ _______ _____ _____    ______ ____
ROOT
ATOM      1  N   UNL     1       2.958   6.937  17.967  0.00  0.00    +0.000 N 
ATOM      2  C   UNL     1       2.204   7.670  18.901  0.00  0.00    +0.000 A 
ATOM      3  C   UNL     1       1.794   8.972  18.591  0.00  0.00    +0.000 A 
ATOM      4  C   UNL     1       1.199   9.791  19.569  0.00  0.00    +0.000 A 
ATOM      5  C   UNL     1       0.942   9.207  20.826  0.00  0.00    +0.000 A 
ATOM      6  C   UNL     1       1.328   7.889  21.031  0.00  0.00    +0.000 A 
ATOM      7  N   UNL     1       1.954   7.128  20.111  0.00  0.00    +0.000 NA
ATOM      8  H   UNL     1       2.441   6.711  17.127  0.00  0.00    +0.000 HD
ENDROOT
BRANCH   1  14
ATOM      9  C   UNL     1       7.457   5.279  18.314  0.00  0.00    +0.000 C 
ATOM     10  C   UNL     1       5.985   5.085  18.502  0.00  0.00    +0.000 A 
ATOM     11  N   UNL     1       5.583   3.872  18.926  0.00  0.00    +0.000 NA
ATOM     12  C   UNL     1       4.259   3.694  19.032  0.00  0.00    +0.000 A 
ATOM     13  C   UNL     1       3.344   4.668  18.725  0.00  0.00    +0.000 A 
ATOM     14  C   UNL     1       3.840   5.882  18.283  0.00  0.00    +0.000 A 
ATOM     15  N   UNL     1       5.164   6.114  18.193  0.00  0.00    +0.000 NA
ENDBRANCH   1  14
BRANCH   5  16
ATOM     16  C   UNL     1       0.312   9.960  21.941  0.00  0.00    +0.000 C 
ATOM     17  N   UNL     1      -0.431   9.260  22.855  0.00  0.00    +0.000 N 
ATOM     18  O   UNL     1       0.420  11.179  22.039  0.00  0.00    +0.000 OA
ATOM     19  H   UNL     1      -0.757   8.314  22.711  0.00  0.00    +0.000 HD
ATOM     20  H   UNL     1      -0.909   9.808  23.561  0.00  0.00    +0.000 HD
ENDBRANCH   5  16
BRANCH   4  21
ATOM     21  N   UNL     1       0.903  11.136  19.324  0.00  0.00    +0.000 N 
ATOM     22  H   UNL     1       1.140  11.763  20.102  0.00  0.00    +0.000 HD
BRANCH  21  23
ATOM     23  C   UNL     1      -0.119  11.599  18.384  0.00  0.00    +0.000 C 
ATOM     24  C   UNL     1      -0.411  13.087  18.588  0.00  0.00    +0.000 C 
ATOM     25  C   UNL     1      -1.266  13.353  19.824  0.00  0.00    +0.000 C 
ATOM     26  N   UNL     1      -2.510  12.583  19.701  0.00  0.00    +0.000 N 
ATOM     27  C   UNL     1      -3.558  13.047  20.509  0.00  0.00    +0.000 A 
ATOM     28  C   UNL     1      -4.867  12.626  20.251  0.00  0.00    +0.000 A 
ATOM     29  C   UNL     1      -5.944  13.196  20.937  0.00  0.00    +0.000 A 
ATOM     30  C   UNL     1      -5.703  14.181  21.887  0.00  0.00    +0.000 A 
ATOM     31  C   UNL     1      -4.384  14.534  22.110  0.00  0.00    +0.000 A 
ATOM     32  N   UNL     1      -3.328  13.996  21.446  0.00  0.00    +0.000 NA
ATOM     33  C   UNL     1      -2.292  11.131  19.692  0.00  0.00    +0.000 C 
ATOM     34  C   UNL     1      -1.403  10.759  18.499  0.00  0.00    +0.000 C 
BRANCH  30  35
ATOM     35  C   UNL     1      -6.768  14.832  22.584  0.00  0.00    +0.000 C 
ATOM     36  N   UNL     1      -7.630  15.363  23.145  0.00  0.00    +0.000 NA
ENDBRANCH  30  35
ENDBRANCH  21  23
ENDBRANCH   4  21
TORSDOF 5
ENDMDL
MODEL 2
REMARK VINA RESULT:      -7.4      1.645      1.900
REMARK  Name = 
REMARK  6 active torsions:
REMARK  status: ('A' for Active; 'I' for Inactive)
REMARK    1  A    between atoms: C_1  and  C_2
REMARK    2  A    between atoms: C_6  and  N_7
REMARK    3  A    between atoms: C_10  and  N_11
REMARK    4  A    between atoms: N_11  and  C_12
REMARK    5  A    between atoms: C_19  and  C_20
REMARK    6  A    between atoms: C_26  and  C_27
REMARK                            x       y       z     vdW  Elec       q    Type
REMARK                         _______ _______ _______ _____ _____    ______ ____
ROOT
ATOM      1  N   UNL     1       4.172   7.170  16.757  0.00  0.00    +0.000 N 
ATOM      2  C   UNL     1       3.281   7.403  17.820  0.00  0.00    +0.000 A 
ATOM      3  C   UNL     1       2.578   8.611  17.882  0.00  0.00    +0.000 A 
ATOM      4  C   UNL     1       1.822   8.947  19.022  0.00  0.00    +0.000 A 
ATOM      5  C   UNL     1       1.722   7.973  20.035  0.00  0.00    +0.000 A 
ATOM      6  C   UNL     1       2.405   6.776  19.867  0.00  0.00    +0.000 A 
ATOM      7  N   UNL     1       3.178   6.483  18.802  0.00  0.00    +0.000 NA
ATOM      8  H   UNL     1       3.711   7.095  15.859  0.00  0.00    +0.000 HD
ENDROOT
BRANCH   1  14
ATOM      9  C   UNL     1       8.054   5.530  19.072  0.00  0.00    +0.000 C 
ATOM     10  C   UNL     1       7.110   5.462  17.913  0.00  0.00    +0.000 A 
ATOM     11  N   UNL     1       7.408   4.581  16.940  0.00  0.00    +0.000 NA
ATOM     12  C   UNL     1       6.587   4.574  15.880  0.00  0.00    +0.000 A 
ATOM     13  C   UNL     1       5.506   5.409  15.762  0.00  0.00    +0.000 A 
ATOM     14  C   UNL     1       5.277   6.294  16.801  0.00  0.00    +0.000 A 
ATOM     15  N   UNL     1       6.058   6.312  17.898  0.00  0.00    +0.000 NA
ENDBRANCH   1  14
BRANCH   5  16
ATOM     16  C   UNL     1       0.949   8.199  21.284  0.00  0.00    +0.000 C 
ATOM     17  N   UNL     1       1.561   8.873  22.308  0.00  0.00    +0.000 N 
ATOM     18  O   UNL     1      -0.194   7.776  21.421  0.00  0.00    +0.000 OA
ATOM     19  H   UNL     1       2.556   9.038  22.360  0.00  0.00    +0.000 HD
ATOM     20  H   UNL     1       1.036   8.949  23.173  0.00  0.00    +0.000 HD
ENDBRANCH   5  16
BRANCH   4  21
ATOM     21  N   UNL     1       1.221  10.202  19.164  0.00  0.00    +0.000 N 
ATOM     22  H   UNL     1       0.965  10.433  20.132  0.00  0.00    +0.000 HD
BRANCH  21  23
ATOM     23  C   UNL     1       0.494  10.896  18.100  0.00  0.00    +0.000 C 
ATOM     24  C   UNL     1       0.194  12.342  18.499  0.00  0.00    +0.000 C 
ATOM     25  C   UNL     1      -0.951  12.446  19.504  0.00  0.00    +0.000 C 
ATOM     26  N   UNL     1      -2.136  11.802  18.924  0.00  0.00    +0.000 N 
ATOM     27  C   UNL     1      -3.349  12.191  19.510  0.00  0.00    +0.000 A 
ATOM     28  C   UNL     1      -4.552  11.917  18.852  0.00  0.00    +0.000 A 
ATOM     29  C   UNL     1      -5.759  12.433  19.335  0.00  0.00    +0.000 A 
ATOM     30  C   UNL     1      -5.755  13.215  20.484  0.00  0.00    +0.000 A 
ATOM     31  C   UNL     1      -4.533  13.427  21.099  0.00  0.00    +0.000 A 
ATOM     32  N   UNL     1      -3.352  12.940  20.637  0.00  0.00    +0.000 NA
ATOM     33  C   UNL     1      -1.957  10.362  18.697  0.00  0.00    +0.000 C 
ATOM     34  C   UNL     1      -0.794  10.144  17.722  0.00  0.00    +0.000 C 
BRANCH  30  35
ATOM     35  C   UNL     1      -6.951  13.808  20.996  0.00  0.00    +0.000 C 
ATOM     36  N   UNL     1      -7.917  14.288  21.416  0.00  0.00    +0.000 NA
ENDBRANCH  30  35
ENDBRANCH  21  23
ENDBRANCH   4  21
TORSDOF 5
ENDMDL
MODEL 3
REMARK VINA RESULT:      -7.4      0.853      1.333
REMARK  Name = 
REMARK  6 active torsions:
REMARK  status: ('A' for Active; 'I' for Inactive)
REMARK    1  A    between atoms: C_1  and  C_2
REMARK    2  A    between atoms: C_6  and  N_7
REMARK    3  A    between atoms: C_10  and  N_11
REMARK    4  A    between atoms: N_11  and  C_12
REMARK    5  A    between atoms: C_19  and  C_20
REMARK    6  A    between atoms: C_26  and  C_27
REMARK                            x       y       z     vdW  Elec       q    Type
REMARK                         _______ _______ _______ _____ _____    ______ ____
ROOT
ATOM      1  N   UNL     1       3.095   7.611  17.296  0.00  0.00    +0.000 N 
ATOM      2  C   UNL     1       2.339   8.184  18.334  0.00  0.00    +0.000 A 
ATOM      3  C   UNL     1       1.896   9.507  18.221  0.00  0.00    +0.000 A 
ATOM      4  C   UNL     1       1.298  10.163  19.313  0.00  0.00    +0.000 A 
ATOM      5  C   UNL     1       1.071   9.397  20.475  0.00  0.00    +0.000 A 
ATOM      6  C   UNL     1       1.488   8.073  20.482  0.00  0.00    +0.000 A 
ATOM      7  N   UNL     1       2.117   7.467  19.456  0.00  0.00    +0.000 NA
ATOM      8  H   UNL     1       2.570   7.497  16.437  0.00  0.00    +0.000 HD
ENDROOT
BRANCH   1  14
ATOM      9  C   UNL     1       3.872   2.892  17.781  0.00  0.00    +0.000 C 
ATOM     10  C   UNL     1       4.399   4.285  17.630  0.00  0.00    +0.000 A 
ATOM     11  N   UNL     1       5.735   4.437  17.697  0.00  0.00    +0.000 NA
ATOM     12  C   UNL     1       6.188   5.696  17.622  0.00  0.00    +0.000 A 
ATOM     13  C   UNL     1       5.364   6.785  17.494  0.00  0.00    +0.000 A 
ATOM     14  C   UNL     1       4.002   6.542  17.446  0.00  0.00    +0.000 A 
ATOM     15  N   UNL     1       3.506   5.290  17.486  0.00  0.00    +0.000 NA
ENDBRANCH   1  14
BRANCH   5  16
ATOM     16  C   UNL     1       0.441   9.967  21.694  0.00  0.00    +0.000 C 
ATOM     17  N   UNL     1      -0.390   9.161  22.428  0.00  0.00    +0.000 N 
ATOM     18  O   UNL     1       0.625  11.132  22.032  0.00  0.00    +0.000 OA
ATOM     19  H   UNL     1      -0.772   8.288  22.091  0.00  0.00    +0.000 HD
ATOM     20  H   UNL     1      -0.863   9.598  23.211  0.00  0.00    +0.000 HD
ENDBRANCH   5  16
BRANCH   4  21
ATOM     21  N   UNL     1       0.970  11.522  19.268  0.00  0.00    +0.000 N 
ATOM     22  H   UNL     1       1.218  12.038  20.121  0.00  0.00    +0.000 HD
BRANCH  21  23
ATOM     23  C   UNL     1      -0.088  12.089  18.431  0.00  0.00    +0.000 C 
ATOM     24  C   UNL     1      -0.422  13.516  18.870  0.00  0.00    +0.000 C 
ATOM     25  C   UNL     1      -1.256  13.555  20.148  0.00  0.00    +0.000 C 
ATOM     26  N   UNL     1      -2.478  12.771  19.928  0.00  0.00    +0.000 N 
ATOM     27  C   UNL     1      -3.522  13.066  20.817  0.00  0.00    +0.000 A 
ATOM     28  C   UNL     1      -4.822  12.644  20.519  0.00  0.00    +0.000 A 
ATOM     29  C   UNL     1      -5.900  13.061  21.305  0.00  0.00    +0.000 A 
ATOM     30  C   UNL     1      -5.670  13.894  22.393  0.00  0.00    +0.000 A 
ATOM     31  C   UNL     1      -4.357  14.254  22.645  0.00  0.00    +0.000 A 
ATOM     32  N   UNL     1      -3.300  13.864  21.887  0.00  0.00    +0.000 NA
ATOM     33  C   UNL     1      -2.214  11.347  19.687  0.00  0.00    +0.000 C 
ATOM     34  C   UNL     1      -1.341  11.197  18.435  0.00  0.00    +0.000 C 
BRANCH  30  35
ATOM     35  C   UNL     1      -6.739  14.390  23.202  0.00  0.00    +0.000 C 
ATOM     36  N   UNL     1      -7.607  14.786  23.857  0.00  0.00    +0.000 NA
ENDBRANCH  30  35
ENDBRANCH  21  23
ENDBRANCH   4  21
TORSDOF 5
ENDMDL
MODEL 4
REMARK VINA RESULT:      -7.4      1.874      2.941
REMARK  Name = 
REMARK  6 active torsions:
REMARK  status: ('A' for Active; 'I' for Inactive)
REMARK    1  A    between atoms: C_1  and  C_2
REMARK    2  A    between atoms: C_6  and  N_7
REMARK    3  A    between atoms: C_10  and  N_11
REMARK    4  A    between atoms: N_11  and  C_12
REMARK    5  A    between atoms: C_19  and  C_20
REMARK    6  A    between atoms: C_26  and  C_27
REMARK                            x       y       z     vdW  Elec       q    Type
REMARK                         _______ _______ _______ _____ _____    ______ ____
ROOT
ATOM      1  N   UNL     1       2.735   6.620  19.818  0.00  0.00    +0.000 N 
ATOM      2  C   UNL     1       2.035   7.795  19.493  0.00  0.00    +0.000 A 
ATOM      3  C   UNL     1       1.253   8.428  20.467  0.00  0.00    +0.000 A 
ATOM      4  C   UNL     1       0.401   9.496  20.124  0.00  0.00    +0.000 A 
ATOM      5  C   UNL     1       0.457   9.959  18.795  0.00  0.00    +0.000 A 
ATOM      6  C   UNL     1       1.305   9.312  17.906  0.00  0.00    +0.000 A 
ATOM      7  N   UNL     1       2.072   8.251  18.223  0.00  0.00    +0.000 NA
ATOM      8  H   UNL     1       3.473   6.770  20.496  0.00  0.00    +0.000 HD
ENDROOT
BRANCH   1  14
ATOM      9  C   UNL     1       6.183   4.612  17.137  0.00  0.00    +0.000 C 
ATOM     10  C   UNL     1       4.774   4.623  17.643  0.00  0.00    +0.000 A 
ATOM     11  N   UNL     1       3.942   3.692  17.140  0.00  0.00    +0.000 NA
ATOM     12  C   UNL     1       2.670   3.752  17.557  0.00  0.00    +0.000 A 
ATOM     13  C   UNL     1       2.213   4.699  18.437  0.00  0.00    +0.000 A 
ATOM     14  C   UNL     1       3.129   5.628  18.897  0.00  0.00    +0.000 A 
ATOM     15  N   UNL     1       4.425   5.584  18.528  0.00  0.00    +0.000 NA
ENDBRANCH   1  14
BRANCH   5  16
ATOM     16  C   UNL     1      -0.384  11.084  18.308  0.00  0.00    +0.000 C 
ATOM     17  N   UNL     1       0.231  12.275  18.027  0.00  0.00    +0.000 N 
ATOM     18  O   UNL     1      -1.600  10.974  18.183  0.00  0.00    +0.000 OA
ATOM     19  H   UNL     1       1.167  12.511  18.325  0.00  0.00    +0.000 HD
ATOM     20  H   UNL     1      -0.376  13.044  17.767  0.00  0.00    +0.000 HD
ENDBRANCH   5  16
BRANCH   4  21
ATOM     21  N   UNL     1      -0.488  10.055  21.048  0.00  0.00    +0.000 N 
ATOM     22  H   UNL     1      -1.449  10.146  20.699  0.00  0.00    +0.000 HD
BRANCH  21  23
ATOM     23  C   UNL     1      -0.091  10.942  22.144  0.00  0.00    +0.000 C 
ATOM     24  C   UNL     1      -1.155  10.957  23.243  0.00  0.00    +0.000 C 
ATOM     25  C   UNL     1      -2.378  11.788  22.862  0.00  0.00    +0.000 C 
ATOM     26  N   UNL     1      -1.931  13.149  22.540  0.00  0.00    +0.000 N 
ATOM     27  C   UNL     1      -2.944  14.118  22.604  0.00  0.00    +0.000 A 
ATOM     28  C   UNL     1      -2.599  15.473  22.647  0.00  0.00    +0.000 A 
ATOM     29  C   UNL     1      -3.577  16.447  22.870  0.00  0.00    +0.000 A 
ATOM     30  C   UNL     1      -4.900  16.058  23.041  0.00  0.00    +0.000 A 
ATOM     31  C   UNL     1      -5.176  14.704  22.962  0.00  0.00    +0.000 A 
ATOM     32  N   UNL     1      -4.236  13.746  22.755  0.00  0.00    +0.000 NA
ATOM     33  C   UNL     1      -1.051  13.206  21.367  0.00  0.00    +0.000 C 
ATOM     34  C   UNL     1       0.202  12.363  21.632  0.00  0.00    +0.000 C 
BRANCH  30  35
ATOM     35  C   UNL     1      -5.934  17.005  23.319  0.00  0.00    +0.000 C 
ATOM     36  N   UNL     1      -6.774  17.772  23.539  0.00  0.00    +0.000 NA
ENDBRANCH  30  35
ENDBRANCH  21  23
ENDBRANCH   4  21
TORSDOF 5
ENDMDL
MODEL 5
REMARK VINA RESULT:      -7.3      1.952      3.188
REMARK  Name = 
REMARK  6 active torsions:
REMARK  status: ('A' for Active; 'I' for Inactive)
REMARK    1  A    between atoms: C_1  and  C_2
REMARK    2  A    between atoms: C_6  and  N_7
REMARK    3  A    between atoms: C_10  and  N_11
REMARK    4  A    between atoms: N_11  and  C_12
REMARK    5  A    between atoms: C_19  and  C_20
REMARK    6  A    between atoms: C_26  and  C_27
REMARK                            x       y       z     vdW  Elec       q    Type
REMARK                         _______ _______ _______ _____ _____    ______ ____
ROOT
ATOM      1  N   UNL     1       2.887   6.593  20.146  0.00  0.00    +0.000 N 
ATOM      2  C   UNL     1       2.167   7.712  19.691  0.00  0.00    +0.000 A 
ATOM      3  C   UNL     1       1.355   8.422  20.582  0.00  0.00    +0.000 A 
ATOM      4  C   UNL     1       0.486   9.428  20.119  0.00  0.00    +0.000 A 
ATOM      5  C   UNL     1       0.553   9.754  18.749  0.00  0.00    +0.000 A 
ATOM      6  C   UNL     1       1.430   9.039  17.945  0.00  0.00    +0.000 A 
ATOM      7  N   UNL     1       2.215   8.034  18.381  0.00  0.00    +0.000 NA
ATOM      8  H   UNL     1       3.610   6.830  20.815  0.00  0.00    +0.000 HD
ENDROOT
BRANCH   1  14
ATOM      9  C   UNL     1       1.957   2.368  18.050  0.00  0.00    +0.000 C 
ATOM     10  C   UNL     1       2.879   3.523  18.287  0.00  0.00    +0.000 A 
ATOM     11  N   UNL     1       4.106   3.442  17.740  0.00  0.00    +0.000 NA
ATOM     12  C   UNL     1       4.940   4.455  18.011  0.00  0.00    +0.000 A 
ATOM     13  C   UNL     1       4.595   5.520  18.803  0.00  0.00    +0.000 A 
ATOM     14  C   UNL     1       3.319   5.521  19.338  0.00  0.00    +0.000 A 
ATOM     15  N   UNL     1       2.438   4.538  19.065  0.00  0.00    +0.000 NA
ENDBRANCH   1  14
BRANCH   5  16
ATOM     16  C   UNL     1      -0.305  10.801  18.137  0.00  0.00    +0.000 C 
ATOM     17  N   UNL     1      -1.255  10.409  17.231  0.00  0.00    +0.000 N 
ATOM     18  O   UNL     1      -0.160  11.991  18.402  0.00  0.00    +0.000 OA
ATOM     19  H   UNL     1      -1.275   9.499  16.792  0.00  0.00    +0.000 HD
ATOM     20  H   UNL     1      -1.775  11.150  16.776  0.00  0.00    +0.000 HD
ENDBRANCH   5  16
BRANCH   4  21
ATOM     21  N   UNL     1      -0.431  10.059  20.968  0.00  0.00    +0.000 N 
ATOM     22  H   UNL     1      -1.341  10.249  20.530  0.00  0.00    +0.000 HD
BRANCH  21  23
ATOM     23  C   UNL     1      -0.059  10.888  22.116  0.00  0.00    +0.000 C 
ATOM     24  C   UNL     1      -1.148  10.849  23.189  0.00  0.00    +0.000 C 
ATOM     25  C   UNL     1      -2.361  11.701  22.824  0.00  0.00    +0.000 C 
ATOM     26  N   UNL     1      -1.906  13.076  22.583  0.00  0.00    +0.000 N 
ATOM     27  C   UNL     1      -2.918  14.043  22.672  0.00  0.00    +0.000 A 
ATOM     28  C   UNL     1      -2.573  15.393  22.793  0.00  0.00    +0.000 A 
ATOM     29  C   UNL     1      -3.555  16.356  23.043  0.00  0.00    +0.000 A 
ATOM     30  C   UNL     1      -4.882  15.962  23.163  0.00  0.00    +0.000 A 
ATOM     31  C   UNL     1      -5.157  14.614  23.009  0.00  0.00    +0.000 A 
ATOM     32  N   UNL     1      -4.213  13.666  22.774  0.00  0.00    +0.000 NA
ATOM     33  C   UNL     1      -0.999  13.191  21.434  0.00  0.00    +0.000 C 
ATOM     34  C   UNL     1       0.247  12.332  21.685  0.00  0.00    +0.000 C 
BRANCH  30  35
ATOM     35  C   UNL     1      -5.921  16.896  23.466  0.00  0.00    +0.000 C 
ATOM     36  N   UNL     1      -6.765  17.652  23.705  0.00  0.00    +0.000 NA
ENDBRANCH  30  35
ENDBRANCH  21  23
ENDBRANCH   4  21
TORSDOF 5
ENDMDL
MODEL 6
REMARK VINA RESULT:      -7.3      2.040      2.998
REMARK  Name = 
REMARK  6 active torsions:
REMARK  status: ('A' for Active; 'I' for Inactive)
REMARK    1  A    between atoms: C_1  and  C_2
REMARK    2  A    between atoms: C_6  and  N_7
REMARK    3  A    between atoms: C_10  and  N_11
REMARK    4  A    between atoms: N_11  and  C_12
REMARK    5  A    between atoms: C_19  and  C_20
REMARK    6  A    between atoms: C_26  and  C_27
REMARK                            x       y       z     vdW  Elec       q    Type
REMARK                         _______ _______ _______ _____ _____    ______ ____
ROOT
ATOM      1  N   UNL     1       3.097   5.344  20.018  0.00  0.00    +0.000 N 
ATOM      2  C   UNL     1       2.605   6.609  19.649  0.00  0.00    +0.000 A 
ATOM      3  C   UNL     1       1.824   7.339  20.553  0.00  0.00    +0.000 A 
ATOM      4  C   UNL     1       1.170   8.519  20.150  0.00  0.00    +0.000 A 
ATOM      5  C   UNL     1       1.424   8.979  18.842  0.00  0.00    +0.000 A 
ATOM      6  C   UNL     1       2.259   8.224  18.029  0.00  0.00    +0.000 A 
ATOM      7  N   UNL     1       2.834   7.062  18.399  0.00  0.00    +0.000 NA
ATOM      8  H   UNL     1       3.775   5.384  20.769  0.00  0.00    +0.000 HD
ENDROOT
BRANCH   1  14
ATOM      9  C   UNL     1       5.525   3.889  16.133  0.00  0.00    +0.000 C 
ATOM     10  C   UNL     1       4.630   3.583  17.293  0.00  0.00    +0.000 A 
ATOM     11  N   UNL     1       4.161   2.325  17.380  0.00  0.00    +0.000 NA
ATOM     12  C   UNL     1       3.313   2.082  18.389  0.00  0.00    +0.000 A 
ATOM     13  C   UNL     1       2.921   3.040  19.288  0.00  0.00    +0.000 A 
ATOM     14  C   UNL     1       3.439   4.312  19.120  0.00  0.00    +0.000 A 
ATOM     15  N   UNL     1       4.320   4.592  18.139  0.00  0.00    +0.000 NA
ENDBRANCH   1  14
BRANCH   5  16
ATOM     16  C   UNL     1       0.802  10.213  18.297  0.00  0.00    +0.000 C 
ATOM     17  N   UNL     1       1.628  11.244  17.931  0.00  0.00    +0.000 N 
ATOM     18  O   UNL     1      -0.415  10.334  18.197  0.00  0.00    +0.000 OA
ATOM     19  H   UNL     1       2.600  11.311  18.200  0.00  0.00    +0.000 HD
ATOM     20  H   UNL     1       1.174  12.099  17.632  0.00  0.00    +0.000 HD
ENDBRANCH   5  16
BRANCH   4  21
ATOM     21  N   UNL     1       0.279   9.192  20.992  0.00  0.00    +0.000 N 
ATOM     22  H   UNL     1      -0.670   9.280  20.610  0.00  0.00    +0.000 HD
BRANCH  21  23
ATOM     23  C   UNL     1       0.680  10.168  22.007  0.00  0.00    +0.000 C 
ATOM     24  C   UNL     1      -0.232  10.082  23.233  0.00  0.00    +0.000 C 
ATOM     25  C   UNL     1      -1.597  10.724  22.993  0.00  0.00    +0.000 C 
ATOM     26  N   UNL     1      -1.388  12.119  22.586  0.00  0.00    +0.000 N 
ATOM     27  C   UNL     1      -2.510  12.944  22.756  0.00  0.00    +0.000 A 
ATOM     28  C   UNL     1      -2.355  14.333  22.725  0.00  0.00    +0.000 A 
ATOM     29  C   UNL     1      -3.425  15.174  23.049  0.00  0.00    +0.000 A 
ATOM     30  C   UNL     1      -4.649  14.616  23.395  0.00  0.00    +0.000 A 
ATOM     31  C   UNL     1      -4.740  13.235  23.383  0.00  0.00    +0.000 A 
ATOM     32  N   UNL     1      -3.708  12.406  23.079  0.00  0.00    +0.000 NA
ATOM     33  C   UNL     1      -0.676  12.248  21.309  0.00  0.00    +0.000 C 
ATOM     34  C   UNL     1       0.706  11.594  21.431  0.00  0.00    +0.000 C 
BRANCH  30  35
ATOM     35  C   UNL     1      -5.763  15.425  23.782  0.00  0.00    +0.000 C 
ATOM     36  N   UNL     1      -6.667  16.075  24.098  0.00  0.00    +0.000 NA
ENDBRANCH  30  35
ENDBRANCH  21  23
ENDBRANCH   4  21
TORSDOF 5
ENDMDL
MODEL 7
REMARK VINA RESULT:      -7.3      2.028      3.137
REMARK  Name = 
REMARK  6 active torsions:
REMARK  status: ('A' for Active; 'I' for Inactive)
REMARK    1  A    between atoms: C_1  and  C_2
REMARK    2  A    between atoms: C_6  and  N_7
REMARK    3  A    between atoms: C_10  and  N_11
REMARK    4  A    between atoms: N_11  and  C_12
REMARK    5  A    between atoms: C_19  and  C_20
REMARK    6  A    between atoms: C_26  and  C_27
REMARK                            x       y       z     vdW  Elec       q    Type
REMARK                         _______ _______ _______ _____ _____    ______ ____
ROOT
ATOM      1  N   UNL     1       1.667   6.131  21.177  0.00  0.00    +0.000 N 
ATOM      2  C   UNL     1       1.503   7.403  20.602  0.00  0.00    +0.000 A 
ATOM      3  C   UNL     1       0.673   8.343  21.223  0.00  0.00    +0.000 A 
ATOM      4  C   UNL     1       0.347   9.553  20.581  0.00  0.00    +0.000 A 
ATOM      5  C   UNL     1       0.977   9.814  19.347  0.00  0.00    +0.000 A 
ATOM      6  C   UNL     1       1.833   8.852  18.829  0.00  0.00    +0.000 A 
ATOM      7  N   UNL     1       2.094   7.668  19.417  0.00  0.00    +0.000 NA
ATOM      8  H   UNL     1       2.147   6.155  22.068  0.00  0.00    +0.000 HD
ENDROOT
BRANCH   1  14
ATOM      9  C   UNL     1       4.951   3.645  18.699  0.00  0.00    +0.000 C 
ATOM     10  C   UNL     1       3.596   3.735  19.328  0.00  0.00    +0.000 A 
ATOM     11  N   UNL     1       2.769   2.690  19.140  0.00  0.00    +0.000 NA
ATOM     12  C   UNL     1       1.539   2.812  19.658  0.00  0.00    +0.000 A 
ATOM     13  C   UNL     1       1.117   3.926  20.336  0.00  0.00    +0.000 A 
ATOM     14  C   UNL     1       2.024   4.961  20.475  0.00  0.00    +0.000 A 
ATOM     15  N   UNL     1       3.281   4.868  19.998  0.00  0.00    +0.000 NA
ENDBRANCH   1  14
BRANCH   5  16
ATOM     16  C   UNL     1       0.726  11.056  18.572  0.00  0.00    +0.000 C 
ATOM     17  N   UNL     1       1.803  11.709  18.031  0.00  0.00    +0.000 N 
ATOM     18  O   UNL     1      -0.405  11.514  18.433  0.00  0.00    +0.000 OA
ATOM     19  H   UNL     1       2.761  11.531  18.297  0.00  0.00    +0.000 HD
ATOM     20  H   UNL     1       1.609  12.591  17.571  0.00  0.00    +0.000 HD
ENDBRANCH   5  16
BRANCH   4  21
ATOM     21  N   UNL     1      -0.584  10.447  21.120  0.00  0.00    +0.000 N 
ATOM     22  H   UNL     1      -1.321  10.727  20.462  0.00  0.00    +0.000 HD
BRANCH  21  23
ATOM     23  C   UNL     1      -0.309  11.353  22.236  0.00  0.00    +0.000 C 
ATOM     24  C   UNL     1      -1.437  11.303  23.267  0.00  0.00    +0.000 C 
ATOM     25  C   UNL     1      -2.682  12.061  22.811  0.00  0.00    +0.000 C 
ATOM     26  N   UNL     1      -2.298  13.446  22.516  0.00  0.00    +0.000 N 
ATOM     27  C   UNL     1      -3.368  14.354  22.515  0.00  0.00    +0.000 A 
ATOM     28  C   UNL     1      -3.107  15.727  22.578  0.00  0.00    +0.000 A 
ATOM     29  C   UNL     1      -4.153  16.641  22.739  0.00  0.00    +0.000 A 
ATOM     30  C   UNL     1      -5.459  16.174  22.828  0.00  0.00    +0.000 A 
ATOM     31  C   UNL     1      -5.648  14.806  22.734  0.00  0.00    +0.000 A 
ATOM     32  N   UNL     1      -4.642  13.905  22.587  0.00  0.00    +0.000 NA
ATOM     33  C   UNL     1      -1.352  13.558  21.398  0.00  0.00    +0.000 C 
ATOM     34  C   UNL     1      -0.070  12.790  21.742  0.00  0.00    +0.000 C 
BRANCH  30  35
ATOM     35  C   UNL     1      -6.562  17.058  23.041  0.00  0.00    +0.000 C 
ATOM     36  N   UNL     1      -7.452  17.778  23.213  0.00  0.00    +0.000 NA
ENDBRANCH  30  35
ENDBRANCH  21  23
ENDBRANCH   4  21
TORSDOF 5
ENDMDL
MODEL 8
REMARK VINA RESULT:      -7.2      2.060      3.076
REMARK  Name = 
REMARK  6 active torsions:
REMARK  status: ('A' for Active; 'I' for Inactive)
REMARK    1  A    between atoms: C_1  and  C_2
REMARK    2  A    between atoms: C_6  and  N_7
REMARK    3  A    between atoms: C_10  and  N_11
REMARK    4  A    between atoms: N_11  and  C_12
REMARK    5  A    between atoms: C_19  and  C_20
REMARK    6  A    between atoms: C_26  and  C_27
REMARK                            x       y       z     vdW  Elec       q    Type
REMARK                         _______ _______ _______ _____ _____    ______ ____
ROOT
ATOM      1  N   UNL     1       3.245   6.260  19.624  0.00  0.00    +0.000 N 
ATOM      2  C   UNL     1       2.488   7.404  19.316  0.00  0.00    +0.000 A 
ATOM      3  C   UNL     1       1.732   8.025  20.317  0.00  0.00    +0.000 A 
ATOM      4  C   UNL     1       0.827   9.056  20.002  0.00  0.00    +0.000 A 
ATOM      5  C   UNL     1       0.801   9.500  18.664  0.00  0.00    +0.000 A 
ATOM      6  C   UNL     1       1.627   8.868  17.744  0.00  0.00    +0.000 A 
ATOM      7  N   UNL     1       2.446   7.839  18.039  0.00  0.00    +0.000 NA
ATOM      8  H   UNL     1       4.009   6.447  20.262  0.00  0.00    +0.000 HD
ENDROOT
BRANCH   1  14
ATOM      9  C   UNL     1       6.588   4.398  16.714  0.00  0.00    +0.000 C 
ATOM     10  C   UNL     1       5.229   4.332  17.338  0.00  0.00    +0.000 A 
ATOM     11  N   UNL     1       4.424   3.333  16.932  0.00  0.00    +0.000 NA
ATOM     12  C   UNL     1       3.190   3.322  17.454  0.00  0.00    +0.000 A 
ATOM     13  C   UNL     1       2.742   4.265  18.343  0.00  0.00    +0.000 A 
ATOM     14  C   UNL     1       3.628   5.267  18.699  0.00  0.00    +0.000 A 
ATOM     15  N   UNL     1       4.889   5.297  18.223  0.00  0.00    +0.000 NA
ENDBRANCH   1  14
BRANCH   5  16
ATOM     16  C   UNL     1      -0.103  10.585  18.202  0.00  0.00    +0.000 C 
ATOM     17  N   UNL     1      -1.146  10.250  17.379  0.00  0.00    +0.000 N 
ATOM     18  O   UNL     1       0.082  11.757  18.517  0.00  0.00    +0.000 OA
ATOM     19  H   UNL     1      -1.221   9.367  16.894  0.00  0.00    +0.000 HD
ATOM     20  H   UNL     1      -1.701  11.020  17.021  0.00  0.00    +0.000 HD
ENDBRANCH   5  16
BRANCH   4  21
ATOM     21  N   UNL     1      -0.035   9.600  20.960  0.00  0.00    +0.000 N 
ATOM     22  H   UNL     1      -0.960   9.851  20.593  0.00  0.00    +0.000 HD
BRANCH  21  23
ATOM     23  C   UNL     1       0.408  10.288  22.174  0.00  0.00    +0.000 C 
ATOM     24  C   UNL     1      -0.661  10.207  23.265  0.00  0.00    +0.000 C 
ATOM     25  C   UNL     1      -1.827  11.160  23.014  0.00  0.00    +0.000 C 
ATOM     26  N   UNL     1      -1.293  12.523  22.897  0.00  0.00    +0.000 N 
ATOM     27  C   UNL     1      -2.243  13.535  23.106  0.00  0.00    +0.000 A 
ATOM     28  C   UNL     1      -1.814  14.844  23.350  0.00  0.00    +0.000 A 
ATOM     29  C   UNL     1      -2.731  15.834  23.716  0.00  0.00    +0.000 A 
ATOM     30  C   UNL     1      -4.077  15.508  23.829  0.00  0.00    +0.000 A 
ATOM     31  C   UNL     1      -4.436  14.201  23.551  0.00  0.00    +0.000 A 
ATOM     32  N   UNL     1      -3.557  13.226  23.202  0.00  0.00    +0.000 NA
ATOM     33  C   UNL     1      -0.402  12.698  21.744  0.00  0.00    +0.000 C 
ATOM     34  C   UNL     1       0.794  11.747  21.879  0.00  0.00    +0.000 C 
BRANCH  30  35
ATOM     35  C   UNL     1      -5.052  16.467  24.247  0.00  0.00    +0.000 C 
ATOM     36  N   UNL     1      -5.843  17.240  24.589  0.00  0.00    +0.000 NA
ENDBRANCH  30  35
ENDBRANCH  21  23
ENDBRANCH   4  21
TORSDOF 5
ENDMDL
MODEL 9
REMARK VINA RESULT:      -7.1      1.284      1.347
REMARK  Name = 
REMARK  6 active torsions:
REMARK  status: ('A' for Active; 'I' for Inactive)
REMARK    1  A    between atoms: C_1  and  C_2
REMARK    2  A    between atoms: C_6  and  N_7
REMARK    3  A    between atoms: C_10  and  N_11
REMARK    4  A    between atoms: N_11  and  C_12
REMARK    5  A    between atoms: C_19  and  C_20
REMARK    6  A    between atoms: C_26  and  C_27
REMARK                            x       y       z     vdW  Elec       q    Type
REMARK                         _______ _______ _______ _____ _____    ______ ____
ROOT
ATOM      1  N   UNL     1       3.689   7.288  17.036  0.00  0.00    +0.000 N 
ATOM      2  C   UNL     1       2.847   7.696  18.085  0.00  0.00    +0.000 A 
ATOM      3  C   UNL     1       2.269   8.970  18.055  0.00  0.00    +0.000 A 
ATOM      4  C   UNL     1       1.573   9.472  19.171  0.00  0.00    +0.000 A 
ATOM      5  C   UNL     1       1.396   8.599  20.263  0.00  0.00    +0.000 A 
ATOM      6  C   UNL     1       1.952   7.329  20.187  0.00  0.00    +0.000 A 
ATOM      7  N   UNL     1       2.671   6.874  19.142  0.00  0.00    +0.000 NA
ATOM      8  H   UNL     1       3.205   7.187  16.152  0.00  0.00    +0.000 HD
ENDROOT
BRANCH   1  14
ATOM      9  C   UNL     1       7.884   5.871  18.908  0.00  0.00    +0.000 C 
ATOM     10  C   UNL     1       6.682   5.593  18.060  0.00  0.00    +0.000 A 
ATOM     11  N   UNL     1       6.666   4.422  17.398  0.00  0.00    +0.000 NA
ATOM     12  C   UNL     1       5.612   4.214  16.596  0.00  0.00    +0.000 A 
ATOM     13  C   UNL     1       4.601   5.126  16.432  0.00  0.00    +0.000 A 
ATOM     14  C   UNL     1       4.701   6.311  17.139  0.00  0.00    +0.000 A 
ATOM     15  N   UNL     1       5.727   6.547  17.981  0.00  0.00    +0.000 NA
ENDBRANCH   1  14
BRANCH   5  16
ATOM     16  C   UNL     1       0.674   9.003  21.497  0.00  0.00    +0.000 C 
ATOM     17  N   UNL     1      -0.543   8.426  21.751  0.00  0.00    +0.000 N 
ATOM     18  O   UNL     1       1.127   9.849  22.263  0.00  0.00    +0.000 OA
ATOM     19  H   UNL     1      -1.078   7.913  21.065  0.00  0.00    +0.000 HD
ATOM     20  H   UNL     1      -1.045   8.774  22.560  0.00  0.00    +0.000 HD
ENDBRANCH   5  16
BRANCH   4  21
ATOM     21  N   UNL     1       1.103  10.789  19.216  0.00  0.00    +0.000 N 
ATOM     22  H   UNL     1       1.290  11.268  20.105  0.00  0.00    +0.000 HD
BRANCH  21  23
ATOM     23  C   UNL     1      -0.004  11.299  18.406  0.00  0.00    +0.000 C 
ATOM     24  C   UNL     1      -0.051  12.827  18.449  0.00  0.00    +0.000 C 
ATOM     25  C   UNL     1      -0.618  13.359  19.763  0.00  0.00    +0.000 C 
ATOM     26  N   UNL     1      -1.955  12.784  19.957  0.00  0.00    +0.000 N 
ATOM     27  C   UNL     1      -2.763  13.494  20.857  0.00  0.00    +0.000 A 
ATOM     28  C   UNL     1      -4.141  13.257  20.882  0.00  0.00    +0.000 A 
ATOM     29  C   UNL     1      -4.986  14.060  21.654  0.00  0.00    +0.000 A 
ATOM     30  C   UNL     1      -4.443  15.095  22.406  0.00  0.00    +0.000 A 
ATOM     31  C   UNL     1      -3.070  15.260  22.355  0.00  0.00    +0.000 A 
ATOM     32  N   UNL     1      -2.237  14.493  21.603  0.00  0.00    +0.000 NA
ATOM     33  C   UNL     1      -1.940  11.325  20.110  0.00  0.00    +0.000 C 
ATOM     34  C   UNL     1      -1.345  10.689  18.848  0.00  0.00    +0.000 C 
BRANCH  30  35
ATOM     35  C   UNL     1      -5.263  15.978  23.176  0.00  0.00    +0.000 C 
ATOM     36  N   UNL     1      -5.931  16.692  23.795  0.00  0.00    +0.000 NA
ENDBRANCH  30  35
ENDBRANCH  21  23
ENDBRANCH   4  21
TORSDOF 5
ENDMDL
