MODEL 1
REMARK VINA RESULT:      -8.3      0.000      0.000
REMARK  Name = 
REMARK  4 active torsions:
REMARK  status: ('A' for Active; 'I' for Inactive)
REMARK    1  A    between atoms: C_10  and  C_11
REMARK    2  A    between atoms: C_12  and  C_13
REMARK    3  A    between atoms: N_19  and  C_20
REMARK    4  A    between atoms: C_20  and  C_21
REMARK                            x       y       z     vdW  Elec       q    Type
REMARK                         _______ _______ _______ _____ _____    ______ ____
ROOT
ATOM      1  O   UNL     1       1.076   7.371  21.603  0.00  0.00    +0.000 OA
ATOM      2  C   UNL     1       1.498   7.703  20.497  0.00  0.00    +0.000 A 
ATOM      3  C   UNL     1       1.187   9.043  19.997  0.00  0.00    +0.000 A 
ATOM      4  C   UNL     1       0.544   9.984  20.817  0.00  0.00    +0.000 A 
ATOM      5  C   UNL     1       0.340  11.280  20.343  0.00  0.00    +0.000 A 
ATOM      6  C   UNL     1       0.754  11.613  19.055  0.00  0.00    +0.000 A 
ATOM      7  C   UNL     1       1.380  10.659  18.246  0.00  0.00    +0.000 A 
ATOM      8  C   UNL     1       1.614   9.364  18.711  0.00  0.00    +0.000 A 
ATOM      9  N   UNL     1       2.275   8.439  17.895  0.00  0.00    +0.000 NA
ATOM     10  C   UNL     1       2.607   7.279  18.381  0.00  0.00    +0.000 A 
ATOM     11  N   UNL     1       2.294   6.895  19.677  0.00  0.00    +0.000 N 
ENDROOT
BRANCH  10  12
ATOM     12  C   UNL     1       3.287   6.282  17.481  0.00  0.00    +0.000 C 
ATOM     13  C   UNL     1       4.629   6.312  17.339  0.00  0.00    +0.000 C 
BRANCH  13  14
ATOM     14  C   UNL     1       5.463   5.592  16.349  0.00  0.00    +0.000 A 
ATOM     15  C   UNL     1       4.993   4.585  15.498  0.00  0.00    +0.000 A 
ATOM     16  C   UNL     1       5.826   4.064  14.500  0.00  0.00    +0.000 A 
ATOM     17  C   UNL     1       7.115   4.554  14.377  0.00  0.00    +0.000 A 
ATOM     18  N   UNL     1       7.624   5.494  15.195  0.00  0.00    +0.000 NA
ATOM     19  C   UNL     1       6.790   5.985  16.151  0.00  0.00    +0.000 A 
ENDBRANCH  13  14
ENDBRANCH  10  12
BRANCH  11  20
ATOM     20  C   UNL     1       2.856   5.724  20.350  0.00  0.00    +0.000 C 
BRANCH  20  21
ATOM     21  C   UNL     1       2.395   4.369  19.853  0.00  0.00    +0.000 A 
ATOM     22  C   UNL     1       1.048   4.004  19.733  0.00  0.00    +0.000 A 
ATOM     23  C   UNL     1       0.697   2.725  19.292  0.00  0.00    +0.000 A 
ATOM     24  C   UNL     1       1.683   1.798  18.957  0.00  0.00    +0.000 A 
ATOM     25  C   UNL     1       3.025   2.149  19.058  0.00  0.00    +0.000 A 
ATOM     26  C   UNL     1       3.378   3.426  19.499  0.00  0.00    +0.000 A 
ENDBRANCH  20  21
ENDBRANCH  11  20
TORSDOF 4
ENDMDL
MODEL 2
REMARK VINA RESULT:      -8.3      1.967      6.280
REMARK  Name = 
REMARK  4 active torsions:
REMARK  status: ('A' for Active; 'I' for Inactive)
REMARK    1  A    between atoms: C_10  and  C_11
REMARK    2  A    between atoms: C_12  and  C_13
REMARK    3  A    between atoms: N_19  and  C_20
REMARK    4  A    between atoms: C_20  and  C_21
REMARK                            x       y       z     vdW  Elec       q    Type
REMARK                         _______ _______ _______ _____ _____    ______ ____
ROOT
ATOM      1  O   UNL     1       5.586   4.876  19.835  0.00  0.00    +0.000 OA
ATOM      2  C   UNL     1       5.057   5.430  18.875  0.00  0.00    +0.000 A 
ATOM      3  C   UNL     1       5.696   5.333  17.562  0.00  0.00    +0.000 A 
ATOM      4  C   UNL     1       6.814   4.506  17.368  0.00  0.00    +0.000 A 
ATOM      5  C   UNL     1       7.348   4.365  16.088  0.00  0.00    +0.000 A 
ATOM      6  C   UNL     1       6.780   5.067  15.026  0.00  0.00    +0.000 A 
ATOM      7  C   UNL     1       5.676   5.898  15.239  0.00  0.00    +0.000 A 
ATOM      8  C   UNL     1       5.113   6.033  16.510  0.00  0.00    +0.000 A 
ATOM      9  N   UNL     1       3.985   6.843  16.690  0.00  0.00    +0.000 NA
ATOM     10  C   UNL     1       3.388   6.860  17.846  0.00  0.00    +0.000 A 
ATOM     11  N   UNL     1       3.848   6.135  18.935  0.00  0.00    +0.000 N 
ENDROOT
BRANCH  10  12
ATOM     12  C   UNL     1       2.197   7.761  18.034  0.00  0.00    +0.000 C 
ATOM     13  C   UNL     1       2.327   9.092  17.851  0.00  0.00    +0.000 C 
BRANCH  13  14
ATOM     14  C   UNL     1       1.366  10.165  18.200  0.00  0.00    +0.000 A 
ATOM     15  C   UNL     1      -0.015   9.979  18.339  0.00  0.00    +0.000 A 
ATOM     16  C   UNL     1      -0.820  11.024  18.809  0.00  0.00    +0.000 A 
ATOM     17  C   UNL     1      -0.230  12.236  19.125  0.00  0.00    +0.000 A 
ATOM     18  N   UNL     1       1.085  12.474  18.973  0.00  0.00    +0.000 NA
ATOM     19  C   UNL     1       1.842  11.439  18.519  0.00  0.00    +0.000 A 
ENDBRANCH  13  14
ENDBRANCH  10  12
BRANCH  11  20
ATOM     20  C   UNL     1       3.085   5.917  20.165  0.00  0.00    +0.000 C 
BRANCH  20  21
ATOM     21  C   UNL     1       2.308   4.620  20.259  0.00  0.00    +0.000 A 
ATOM     22  C   UNL     1       2.214   3.855  21.429  0.00  0.00    +0.000 A 
ATOM     23  C   UNL     1       1.501   2.652  21.434  0.00  0.00    +0.000 A 
ATOM     24  C   UNL     1       0.866   2.204  20.277  0.00  0.00    +0.000 A 
ATOM     25  C   UNL     1       0.939   2.958  19.111  0.00  0.00    +0.000 A 
ATOM     26  C   UNL     1       1.651   4.158  19.103  0.00  0.00    +0.000 A 
ENDBRANCH  20  21
ENDBRANCH  11  20
TORSDOF 4
ENDMDL
MODEL 3
REMARK VINA RESULT:      -8.2      2.317      6.908
REMARK  Name = 
REMARK  4 active torsions:
REMARK  status: ('A' for Active; 'I' for Inactive)
REMARK    1  A    between atoms: C_10  and  C_11
REMARK    2  A    between atoms: C_12  and  C_13
REMARK    3  A    between atoms: N_19  and  C_20
REMARK    4  A    between atoms: C_20  and  C_21
REMARK                            x       y       z     vdW  Elec       q    Type
REMARK                         _______ _______ _______ _____ _____    ______ ____
ROOT
ATOM      1  O   UNL     1       3.990   3.789  16.653  0.00  0.00    +0.000 OA
ATOM      2  C   UNL     1       3.401   4.499  17.464  0.00  0.00    +0.000 A 
ATOM      3  C   UNL     1       2.556   3.865  18.477  0.00  0.00    +0.000 A 
ATOM      4  C   UNL     1       2.527   2.468  18.614  0.00  0.00    +0.000 A 
ATOM      5  C   UNL     1       1.782   1.896  19.644  0.00  0.00    +0.000 A 
ATOM      6  C   UNL     1       1.057   2.718  20.505  0.00  0.00    +0.000 A 
ATOM      7  C   UNL     1       1.085   4.106  20.345  0.00  0.00    +0.000 A 
ATOM      8  C   UNL     1       1.845   4.699  19.335  0.00  0.00    +0.000 A 
ATOM      9  N   UNL     1       1.885   6.093  19.219  0.00  0.00    +0.000 NA
ATOM     10  C   UNL     1       2.696   6.641  18.362  0.00  0.00    +0.000 A 
ATOM     11  N   UNL     1       3.504   5.895  17.516  0.00  0.00    +0.000 N 
ENDROOT
BRANCH  10  12
ATOM     12  C   UNL     1       2.704   8.140  18.225  0.00  0.00    +0.000 C 
ATOM     13  C   UNL     1       1.689   8.866  18.739  0.00  0.00    +0.000 C 
BRANCH  13  14
ATOM     14  C   UNL     1       1.384  10.299  18.522  0.00  0.00    +0.000 A 
ATOM     15  C   UNL     1       0.152  10.901  18.806  0.00  0.00    +0.000 A 
ATOM     16  C   UNL     1       0.007  12.290  18.700  0.00  0.00    +0.000 A 
ATOM     17  C   UNL     1       1.095  13.050  18.305  0.00  0.00    +0.000 A 
ATOM     18  N   UNL     1       2.288  12.514  17.987  0.00  0.00    +0.000 NA
ATOM     19  C   UNL     1       2.399  11.164  18.104  0.00  0.00    +0.000 A 
ENDBRANCH  13  14
ENDBRANCH  10  12
BRANCH  11  20
ATOM     20  C   UNL     1       4.605   6.447  16.725  0.00  0.00    +0.000 C 
BRANCH  20  21
ATOM     21  C   UNL     1       5.930   6.622  17.438  0.00  0.00    +0.000 A 
ATOM     22  C   UNL     1       6.455   5.689  18.342  0.00  0.00    +0.000 A 
ATOM     23  C   UNL     1       7.672   5.931  18.984  0.00  0.00    +0.000 A 
ATOM     24  C   UNL     1       8.386   7.101  18.726  0.00  0.00    +0.000 A 
ATOM     25  C   UNL     1       7.886   8.031  17.822  0.00  0.00    +0.000 A 
ATOM     26  C   UNL     1       6.669   7.792  17.180  0.00  0.00    +0.000 A 
ENDBRANCH  20  21
ENDBRANCH  11  20
TORSDOF 4
ENDMDL
MODEL 4
REMARK VINA RESULT:      -8.1      3.517      7.182
REMARK  Name = 
REMARK  4 active torsions:
REMARK  status: ('A' for Active; 'I' for Inactive)
REMARK    1  A    between atoms: C_10  and  C_11
REMARK    2  A    between atoms: C_12  and  C_13
REMARK    3  A    between atoms: N_19  and  C_20
REMARK    4  A    between atoms: C_20  and  C_21
REMARK                            x       y       z     vdW  Elec       q    Type
REMARK                         _______ _______ _______ _____ _____    ______ ____
ROOT
ATOM      1  O   UNL     1       5.020   3.255  16.836  0.00  0.00    +0.000 OA
ATOM      2  C   UNL     1       5.758   4.164  16.464  0.00  0.00    +0.000 A 
ATOM      3  C   UNL     1       6.231   4.168  15.079  0.00  0.00    +0.000 A 
ATOM      4  C   UNL     1       5.740   3.236  14.151  0.00  0.00    +0.000 A 
ATOM      5  C   UNL     1       6.142   3.319  12.818  0.00  0.00    +0.000 A 
ATOM      6  C   UNL     1       7.042   4.310  12.434  0.00  0.00    +0.000 A 
ATOM      7  C   UNL     1       7.533   5.221  13.373  0.00  0.00    +0.000 A 
ATOM      8  C   UNL     1       7.124   5.169  14.707  0.00  0.00    +0.000 A 
ATOM      9  N   UNL     1       7.601   6.116  15.621  0.00  0.00    +0.000 NA
ATOM     10  C   UNL     1       7.116   6.142  16.827  0.00  0.00    +0.000 A 
ATOM     11  N   UNL     1       6.165   5.235  17.270  0.00  0.00    +0.000 N 
ENDROOT
BRANCH  10  12
ATOM     12  C   UNL     1       7.664   7.144  17.808  0.00  0.00    +0.000 C 
ATOM     13  C   UNL     1       7.657   8.458  17.500  0.00  0.00    +0.000 C 
BRANCH  13  14
ATOM     14  C   UNL     1       8.341   9.569  18.202  0.00  0.00    +0.000 A 
ATOM     15  C   UNL     1       9.131   9.418  19.347  0.00  0.00    +0.000 A 
ATOM     16  C   UNL     1       9.850  10.508  19.854  0.00  0.00    +0.000 A 
ATOM     17  C   UNL     1       9.759  11.730  19.210  0.00  0.00    +0.000 A 
ATOM     18  N   UNL     1       8.984  11.934  18.128  0.00  0.00    +0.000 NA
ATOM     19  C   UNL     1       8.302  10.856  17.657  0.00  0.00    +0.000 A 
ENDBRANCH  13  14
ENDBRANCH  10  12
BRANCH  11  20
ATOM     20  C   UNL     1       5.406   5.373  18.514  0.00  0.00    +0.000 C 
BRANCH  20  21
ATOM     21  C   UNL     1       4.210   6.302  18.479  0.00  0.00    +0.000 A 
ATOM     22  C   UNL     1       3.995   7.253  17.474  0.00  0.00    +0.000 A 
ATOM     23  C   UNL     1       2.881   8.096  17.521  0.00  0.00    +0.000 A 
ATOM     24  C   UNL     1       1.963   7.994  18.566  0.00  0.00    +0.000 A 
ATOM     25  C   UNL     1       2.155   7.046  19.565  0.00  0.00    +0.000 A 
ATOM     26  C   UNL     1       3.267   6.204  19.519  0.00  0.00    +0.000 A 
ENDBRANCH  20  21
ENDBRANCH  11  20
TORSDOF 4
ENDMDL
MODEL 5
REMARK VINA RESULT:      -8.1      2.330      6.978
REMARK  Name = 
REMARK  4 active torsions:
REMARK  status: ('A' for Active; 'I' for Inactive)
REMARK    1  A    between atoms: C_10  and  C_11
REMARK    2  A    between atoms: C_12  and  C_13
REMARK    3  A    between atoms: N_19  and  C_20
REMARK    4  A    between atoms: C_20  and  C_21
REMARK                            x       y       z     vdW  Elec       q    Type
REMARK                         _______ _______ _______ _____ _____    ______ ____
ROOT
ATOM      1  O   UNL     1       4.453   3.836  16.332  0.00  0.00    +0.000 OA
ATOM      2  C   UNL     1       3.736   4.474  17.099  0.00  0.00    +0.000 A 
ATOM      3  C   UNL     1       2.816   3.746  17.975  0.00  0.00    +0.000 A 
ATOM      4  C   UNL     1       2.849   2.345  18.045  0.00  0.00    +0.000 A 
ATOM      5  C   UNL     1       2.022   1.683  18.952  0.00  0.00    +0.000 A 
ATOM      6  C   UNL     1       1.159   2.422  19.758  0.00  0.00    +0.000 A 
ATOM      7  C   UNL     1       1.128   3.817  19.666  0.00  0.00    +0.000 A 
ATOM      8  C   UNL     1       1.965   4.498  18.780  0.00  0.00    +0.000 A 
ATOM      9  N   UNL     1       1.941   5.897  18.733  0.00  0.00    +0.000 NA
ATOM     10  C   UNL     1       2.814   6.528  18.004  0.00  0.00    +0.000 A 
ATOM     11  N   UNL     1       3.754   5.868  17.226  0.00  0.00    +0.000 N 
ENDROOT
BRANCH  10  12
ATOM     12  C   UNL     1       2.754   8.031  17.938  0.00  0.00    +0.000 C 
ATOM     13  C   UNL     1       1.795   8.695  18.616  0.00  0.00    +0.000 C 
BRANCH  13  14
ATOM     14  C   UNL     1       1.417  10.123  18.510  0.00  0.00    +0.000 A 
ATOM     15  C   UNL     1       0.180  10.648  18.902  0.00  0.00    +0.000 A 
ATOM     16  C   UNL     1      -0.030  12.033  18.893  0.00  0.00    +0.000 A 
ATOM     17  C   UNL     1       0.999  12.865  18.485  0.00  0.00    +0.000 A 
ATOM     18  N   UNL     1       2.192  12.406  18.065  0.00  0.00    +0.000 NA
ATOM     19  C   UNL     1       2.367  11.058  18.089  0.00  0.00    +0.000 A 
ENDBRANCH  13  14
ENDBRANCH  10  12
BRANCH  11  20
ATOM     20  C   UNL     1       4.907   6.514  16.597  0.00  0.00    +0.000 C 
BRANCH  20  21
ATOM     21  C   UNL     1       6.145   6.677  17.456  0.00  0.00    +0.000 A 
ATOM     22  C   UNL     1       6.997   7.786  17.386  0.00  0.00    +0.000 A 
ATOM     23  C   UNL     1       8.138   7.855  18.191  0.00  0.00    +0.000 A 
ATOM     24  C   UNL     1       8.438   6.824  19.080  0.00  0.00    +0.000 A 
ATOM     25  C   UNL     1       7.595   5.722  19.171  0.00  0.00    +0.000 A 
ATOM     26  C   UNL     1       6.455   5.651  18.367  0.00  0.00    +0.000 A 
ENDBRANCH  20  21
ENDBRANCH  11  20
TORSDOF 4
ENDMDL
MODEL 6
REMARK VINA RESULT:      -8.0      2.090      6.326
REMARK  Name = 
REMARK  4 active torsions:
REMARK  status: ('A' for Active; 'I' for Inactive)
REMARK    1  A    between atoms: C_10  and  C_11
REMARK    2  A    between atoms: C_12  and  C_13
REMARK    3  A    between atoms: N_19  and  C_20
REMARK    4  A    between atoms: C_20  and  C_21
REMARK                            x       y       z     vdW  Elec       q    Type
REMARK                         _______ _______ _______ _____ _____    ______ ____
ROOT
ATOM      1  O   UNL     1       5.546   4.066  19.009  0.00  0.00    +0.000 OA
ATOM      2  C   UNL     1       5.116   4.943  18.264  0.00  0.00    +0.000 A 
ATOM      3  C   UNL     1       5.565   4.970  16.871  0.00  0.00    +0.000 A 
ATOM      4  C   UNL     1       6.359   3.934  16.353  0.00  0.00    +0.000 A 
ATOM      5  C   UNL     1       6.698   3.941  15.001  0.00  0.00    +0.000 A 
ATOM      6  C   UNL     1       6.266   4.989  14.191  0.00  0.00    +0.000 A 
ATOM      7  C   UNL     1       5.488   6.021  14.725  0.00  0.00    +0.000 A 
ATOM      8  C   UNL     1       5.118   6.019  16.072  0.00  0.00    +0.000 A 
ATOM      9  N   UNL     1       4.309   7.043  16.575  0.00  0.00    +0.000 NA
ATOM     10  C   UNL     1       3.860   6.965  17.793  0.00  0.00    +0.000 A 
ATOM     11  N   UNL     1       4.187   5.919  18.644  0.00  0.00    +0.000 N 
ENDROOT
BRANCH  10  12
ATOM     12  C   UNL     1       3.019   8.092  18.330  0.00  0.00    +0.000 C 
ATOM     13  C   UNL     1       1.825   8.367  17.764  0.00  0.00    +0.000 C 
BRANCH  13  14
ATOM     14  C   UNL     1       0.958   9.549  17.978  0.00  0.00    +0.000 A 
ATOM     15  C   UNL     1      -0.423   9.572  17.753  0.00  0.00    +0.000 A 
ATOM     16  C   UNL     1      -1.176  10.695  18.120  0.00  0.00    +0.000 A 
ATOM     17  C   UNL     1      -0.532  11.775  18.698  0.00  0.00    +0.000 A 
ATOM     18  N   UNL     1       0.797  11.815  18.901  0.00  0.00    +0.000 NA
ATOM     19  C   UNL     1       1.501  10.709  18.539  0.00  0.00    +0.000 A 
ENDBRANCH  13  14
ENDBRANCH  10  12
BRANCH  11  20
ATOM     20  C   UNL     1       3.517   5.649  19.917  0.00  0.00    +0.000 C 
BRANCH  20  21
ATOM     21  C   UNL     1       2.501   4.526  19.924  0.00  0.00    +0.000 A 
ATOM     22  C   UNL     1       1.830   4.079  18.778  0.00  0.00    +0.000 A 
ATOM     23  C   UNL     1       0.883   3.054  18.866  0.00  0.00    +0.000 A 
ATOM     24  C   UNL     1       0.603   2.456  20.093  0.00  0.00    +0.000 A 
ATOM     25  C   UNL     1       1.270   2.878  21.237  0.00  0.00    +0.000 A 
ATOM     26  C   UNL     1       2.215   3.902  21.153  0.00  0.00    +0.000 A 
ENDBRANCH  20  21
ENDBRANCH  11  20
TORSDOF 4
ENDMDL
MODEL 7
REMARK VINA RESULT:      -7.9      1.091      1.307
REMARK  Name = 
REMARK  4 active torsions:
REMARK  status: ('A' for Active; 'I' for Inactive)
REMARK    1  A    between atoms: C_10  and  C_11
REMARK    2  A    between atoms: C_12  and  C_13
REMARK    3  A    between atoms: N_19  and  C_20
REMARK    4  A    between atoms: C_20  and  C_21
REMARK                            x       y       z     vdW  Elec       q    Type
REMARK                         _______ _______ _______ _____ _____    ______ ____
ROOT
ATOM      1  O   UNL     1       0.870   7.658  21.455  0.00  0.00    +0.000 OA
ATOM      2  C   UNL     1       1.294   8.159  20.416  0.00  0.00    +0.000 A 
ATOM      3  C   UNL     1       0.891   9.524  20.075  0.00  0.00    +0.000 A 
ATOM      4  C   UNL     1       0.152  10.302  20.980  0.00  0.00    +0.000 A 
ATOM      5  C   UNL     1      -0.143  11.627  20.664  0.00  0.00    +0.000 A 
ATOM      6  C   UNL     1       0.279  12.152  19.444  0.00  0.00    +0.000 A 
ATOM      7  C   UNL     1       1.002  11.359  18.547  0.00  0.00    +0.000 A 
ATOM      8  C   UNL     1       1.327  10.037  18.856  0.00  0.00    +0.000 A 
ATOM      9  N   UNL     1       2.082   9.276  17.957  0.00  0.00    +0.000 NA
ATOM     10  C   UNL     1       2.493   8.093  18.307  0.00  0.00    +0.000 A 
ATOM     11  N   UNL     1       2.175   7.524  19.532  0.00  0.00    +0.000 N 
ENDROOT
BRANCH  10  12
ATOM     12  C   UNL     1       3.276   7.273  17.317  0.00  0.00    +0.000 C 
ATOM     13  C   UNL     1       4.441   6.702  17.689  0.00  0.00    +0.000 C 
BRANCH  13  14
ATOM     14  C   UNL     1       5.465   6.062  16.832  0.00  0.00    +0.000 A 
ATOM     15  C   UNL     1       6.516   5.269  17.307  0.00  0.00    +0.000 A 
ATOM     16  C   UNL     1       7.349   4.593  16.407  0.00  0.00    +0.000 A 
ATOM     17  C   UNL     1       7.119   4.728  15.048  0.00  0.00    +0.000 A 
ATOM     18  N   UNL     1       6.145   5.507  14.543  0.00  0.00    +0.000 NA
ATOM     19  C   UNL     1       5.350   6.147  15.441  0.00  0.00    +0.000 A 
ENDBRANCH  13  14
ENDBRANCH  10  12
BRANCH  11  20
ATOM     20  C   UNL     1       2.811   6.324  20.076  0.00  0.00    +0.000 C 
BRANCH  20  21
ATOM     21  C   UNL     1       2.109   5.007  19.814  0.00  0.00    +0.000 A 
ATOM     22  C   UNL     1       1.823   4.521  18.532  0.00  0.00    +0.000 A 
ATOM     23  C   UNL     1       1.147   3.309  18.367  0.00  0.00    +0.000 A 
ATOM     24  C   UNL     1       0.756   2.562  19.478  0.00  0.00    +0.000 A 
ATOM     25  C   UNL     1       1.044   3.024  20.757  0.00  0.00    +0.000 A 
ATOM     26  C   UNL     1       1.718   4.235  20.924  0.00  0.00    +0.000 A 
ENDBRANCH  20  21
ENDBRANCH  11  20
TORSDOF 4
ENDMDL
MODEL 8
REMARK VINA RESULT:      -7.9      2.309      6.981
REMARK  Name = 
REMARK  4 active torsions:
REMARK  status: ('A' for Active; 'I' for Inactive)
REMARK    1  A    between atoms: C_10  and  C_11
REMARK    2  A    between atoms: C_12  and  C_13
REMARK    3  A    between atoms: N_19  and  C_20
REMARK    4  A    between atoms: C_20  and  C_21
REMARK                            x       y       z     vdW  Elec       q    Type
REMARK                         _______ _______ _______ _____ _____    ______ ____
ROOT
ATOM      1  O   UNL     1       3.942   3.781  16.612  0.00  0.00    +0.000 OA
ATOM      2  C   UNL     1       3.361   4.470  17.448  0.00  0.00    +0.000 A 
ATOM      3  C   UNL     1       2.528   3.808  18.454  0.00  0.00    +0.000 A 
ATOM      4  C   UNL     1       2.504   2.408  18.556  0.00  0.00    +0.000 A 
ATOM      5  C   UNL     1       1.770   1.808  19.579  0.00  0.00    +0.000 A 
ATOM      6  C   UNL     1       1.054   2.606  20.468  0.00  0.00    +0.000 A 
ATOM      7  C   UNL     1       1.078   3.999  20.344  0.00  0.00    +0.000 A 
ATOM      8  C   UNL     1       1.825   4.618  19.340  0.00  0.00    +0.000 A 
ATOM      9  N   UNL     1       1.862   6.015  19.259  0.00  0.00    +0.000 NA
ATOM     10  C   UNL     1       2.662   6.586  18.408  0.00  0.00    +0.000 A 
ATOM     11  N   UNL     1       3.462   5.864  17.534  0.00  0.00    +0.000 N 
ENDROOT
BRANCH  10  12
ATOM     12  C   UNL     1       2.665   8.088  18.309  0.00  0.00    +0.000 C 
ATOM     13  C   UNL     1       1.731   8.806  18.967  0.00  0.00    +0.000 C 
BRANCH  13  14
ATOM     14  C   UNL     1       1.414  10.246  18.828  0.00  0.00    +0.000 A 
ATOM     15  C   UNL     1       2.264  11.193  18.244  0.00  0.00    +0.000 A 
ATOM     16  C   UNL     1       1.816  12.503  18.031  0.00  0.00    +0.000 A 
ATOM     17  C   UNL     1       0.528  12.842  18.413  0.00  0.00    +0.000 A 
ATOM     18  N   UNL     1      -0.312  11.978  19.010  0.00  0.00    +0.000 NA
ATOM     19  C   UNL     1       0.150  10.712  19.199  0.00  0.00    +0.000 A 
ENDBRANCH  13  14
ENDBRANCH  10  12
BRANCH  11  20
ATOM     20  C   UNL     1       4.553   6.438  16.746  0.00  0.00    +0.000 C 
BRANCH  20  21
ATOM     21  C   UNL     1       5.873   6.640  17.462  0.00  0.00    +0.000 A 
ATOM     22  C   UNL     1       6.703   7.750  17.259  0.00  0.00    +0.000 A 
ATOM     23  C   UNL     1       7.922   7.856  17.935  0.00  0.00    +0.000 A 
ATOM     24  C   UNL     1       8.322   6.864  18.829  0.00  0.00    +0.000 A 
ATOM     25  C   UNL     1       7.503   5.762  19.051  0.00  0.00    +0.000 A 
ATOM     26  C   UNL     1       6.286   5.653  18.376  0.00  0.00    +0.000 A 
ENDBRANCH  20  21
ENDBRANCH  11  20
TORSDOF 4
ENDMDL
MODEL 9
REMARK VINA RESULT:      -7.9      2.391      7.173
REMARK  Name = 
REMARK  4 active torsions:
REMARK  status: ('A' for Active; 'I' for Inactive)
REMARK    1  A    between atoms: C_10  and  C_11
REMARK    2  A    between atoms: C_12  and  C_13
REMARK    3  A    between atoms: N_19  and  C_20
REMARK    4  A    between atoms: C_20  and  C_21
REMARK                            x       y       z     vdW  Elec       q    Type
REMARK                         _______ _______ _______ _____ _____    ______ ____
ROOT
ATOM      1  O   UNL     1       4.684   3.976  16.222  0.00  0.00    +0.000 OA
ATOM      2  C   UNL     1       3.936   4.557  17.005  0.00  0.00    +0.000 A 
ATOM      3  C   UNL     1       3.074   3.760  17.880  0.00  0.00    +0.000 A 
ATOM      4  C   UNL     1       3.198   2.363  17.930  0.00  0.00    +0.000 A 
ATOM      5  C   UNL     1       2.425   1.638  18.837  0.00  0.00    +0.000 A 
ATOM      6  C   UNL     1       1.524   2.310  19.660  0.00  0.00    +0.000 A 
ATOM      7  C   UNL     1       1.402   3.701  19.587  0.00  0.00    +0.000 A 
ATOM      8  C   UNL     1       2.184   4.445  18.703  0.00  0.00    +0.000 A 
ATOM      9  N   UNL     1       2.070   5.840  18.675  0.00  0.00    +0.000 NA
ATOM     10  C   UNL     1       2.893   6.535  17.945  0.00  0.00    +0.000 A 
ATOM     11  N   UNL     1       3.865   5.947  17.150  0.00  0.00    +0.000 N 
ENDROOT
BRANCH  10  12
ATOM     12  C   UNL     1       2.735   8.032  17.900  0.00  0.00    +0.000 C 
ATOM     13  C   UNL     1       1.873   8.642  18.740  0.00  0.00    +0.000 C 
BRANCH  13  14
ATOM     14  C   UNL     1       1.401  10.046  18.709  0.00  0.00    +0.000 A 
ATOM     15  C   UNL     1       2.202  11.146  18.382  0.00  0.00    +0.000 A 
ATOM     16  C   UNL     1       1.628  12.416  18.244  0.00  0.00    +0.000 A 
ATOM     17  C   UNL     1       0.266  12.563  18.442  0.00  0.00    +0.000 A 
ATOM     18  N   UNL     1      -0.539  11.543  18.793  0.00  0.00    +0.000 NA
ATOM     19  C   UNL     1       0.046  10.321  18.915  0.00  0.00    +0.000 A 
ENDBRANCH  13  14
ENDBRANCH  10  12
BRANCH  11  20
ATOM     20  C   UNL     1       4.967   6.674  16.519  0.00  0.00    +0.000 C 
BRANCH  20  21
ATOM     21  C   UNL     1       6.217   6.870  17.353  0.00  0.00    +0.000 A 
ATOM     22  C   UNL     1       6.692   5.926  18.272  0.00  0.00    +0.000 A 
ATOM     23  C   UNL     1       7.838   6.187  19.028  0.00  0.00    +0.000 A 
ATOM     24  C   UNL     1       8.529   7.388  18.870  0.00  0.00    +0.000 A 
ATOM     25  C   UNL     1       8.077   8.331  17.953  0.00  0.00    +0.000 A 
ATOM     26  C   UNL     1       6.932   8.072  17.198  0.00  0.00    +0.000 A 
ENDBRANCH  20  21
ENDBRANCH  11  20
TORSDOF 4
ENDMDL
