MODEL 1
REMARK VINA RESULT:      -7.3      0.000      0.000
REMARK  Name = 
REMARK  6 active torsions:
REMARK  status: ('A' for Active; 'I' for Inactive)
REMARK    1  A    between atoms: C_1  and  C_2
REMARK    2  A    between atoms: C_7  and  C_8
REMARK    3  A    between atoms: C_8  and  N_9
REMARK    4  A    between atoms: N_13  and  C_14
REMARK    5  A    between atoms: C_14  and  C_15
REMARK    6  A    between atoms: C_15  and  C_16
REMARK                            x       y       z     vdW  Elec       q    Type
REMARK                         _______ _______ _______ _____ _____    ______ ____
ROOT
ATOM      1  N   UNL     1       4.140   4.146  16.989  0.00  0.00    +0.000 NA
ATOM      2  C   UNL     1       5.079   3.924  15.900  0.00  0.00    +0.000 C 
ATOM      3  C   UNL     1       5.325   4.962  14.801  0.00  0.00    +0.000 C 
ATOM      4  C   UNL     1       5.381   6.450  15.112  0.00  0.00    +0.000 C 
ATOM      5  N   UNL     1       5.834   6.910  16.416  0.00  0.00    +0.000 NA
ATOM      6  C   UNL     1       4.809   6.687  17.435  0.00  0.00    +0.000 C 
ATOM      7  C   UNL     1       4.386   5.272  17.897  0.00  0.00    +0.000 C 
ENDROOT
BRANCH   1   8
ATOM      8  C   UNL     1       3.926   2.881  17.774  0.00  0.00    +0.000 C 
BRANCH   8  15
ATOM      9  C   UNL     1       4.803   1.980  20.629  0.00  0.00    +0.000 C 
ATOM     10  C   UNL     1       3.434   2.515  20.309  0.00  0.00    +0.000 A 
ATOM     11  C   UNL     1       2.544   2.638  21.401  0.00  0.00    +0.000 A 
ATOM     12  C   UNL     1       1.246   3.118  21.231  0.00  0.00    +0.000 A 
ATOM     13  C   UNL     1       0.825   3.484  19.957  0.00  0.00    +0.000 A 
ATOM     14  C   UNL     1       1.697   3.389  18.873  0.00  0.00    +0.000 A 
ATOM     15  C   UNL     1       3.023   2.932  19.021  0.00  0.00    +0.000 A 
ENDBRANCH   8  15
ENDBRANCH   1   8
BRANCH   5  16
ATOM     16  C   UNL     1       7.205   6.564  16.807  0.00  0.00    +0.000 C 
BRANCH  16  17
ATOM     17  C   UNL     1       7.470   6.637  18.321  0.00  0.00    +0.000 C 
BRANCH  17  18
ATOM     18  C   UNL     1       7.917   5.367  19.036  0.00  0.00    +0.000 C 
ATOM     19  N   UNL     1       8.268   5.456  20.342  0.00  0.00    +0.000 N 
ATOM     20  O   UNL     1       7.985   4.287  18.454  0.00  0.00    +0.000 OA
ATOM     21  H   UNL     1       8.537   6.369  20.718  0.00  0.00    +0.000 HD
ATOM     22  H   UNL     1       8.690   4.638  20.764  0.00  0.00    +0.000 HD
ENDBRANCH  17  18
ENDBRANCH  16  17
ENDBRANCH   5  16
TORSDOF 5
ENDMDL
MODEL 2
REMARK VINA RESULT:      -7.2      2.165      3.666
REMARK  Name = 
REMARK  6 active torsions:
REMARK  status: ('A' for Active; 'I' for Inactive)
REMARK    1  A    between atoms: C_1  and  C_2
REMARK    2  A    between atoms: C_7  and  C_8
REMARK    3  A    between atoms: C_8  and  N_9
REMARK    4  A    between atoms: N_13  and  C_14
REMARK    5  A    between atoms: C_14  and  C_15
REMARK    6  A    between atoms: C_15  and  C_16
REMARK                            x       y       z     vdW  Elec       q    Type
REMARK                         _______ _______ _______ _____ _____    ______ ____
ROOT
ATOM      1  N   UNL     1       4.156   6.281  18.894  0.00  0.00    +0.000 NA
ATOM      2  C   UNL     1       4.021   6.719  17.513  0.00  0.00    +0.000 C 
ATOM      3  C   UNL     1       5.229   7.073  16.640  0.00  0.00    +0.000 C 
ATOM      4  C   UNL     1       6.520   6.271  16.707  0.00  0.00    +0.000 C 
ATOM      5  N   UNL     1       6.489   4.859  17.057  0.00  0.00    +0.000 NA
ATOM      6  C   UNL     1       6.248   4.680  18.488  0.00  0.00    +0.000 C 
ATOM      7  C   UNL     1       4.903   5.046  19.160  0.00  0.00    +0.000 C 
ENDROOT
BRANCH   1   8
ATOM      8  C   UNL     1       2.815   6.235  19.571  0.00  0.00    +0.000 C 
BRANCH   8  15
ATOM      9  C   UNL     1       1.391   4.316  17.565  0.00  0.00    +0.000 C 
ATOM     10  C   UNL     1       1.578   4.005  19.026  0.00  0.00    +0.000 A 
ATOM     11  C   UNL     1       1.104   2.745  19.458  0.00  0.00    +0.000 A 
ATOM     12  C   UNL     1       1.216   2.342  20.788  0.00  0.00    +0.000 A 
ATOM     13  C   UNL     1       1.809   3.204  21.704  0.00  0.00    +0.000 A 
ATOM     14  C   UNL     1       2.301   4.442  21.290  0.00  0.00    +0.000 A 
ATOM     15  C   UNL     1       2.224   4.863  19.946  0.00  0.00    +0.000 A 
ENDBRANCH   8  15
ENDBRANCH   1   8
BRANCH   5  16
ATOM     16  C   UNL     1       5.735   3.967  16.169  0.00  0.00    +0.000 C 
BRANCH  16  17
ATOM     17  C   UNL     1       5.470   4.544  14.768  0.00  0.00    +0.000 C 
BRANCH  17  18
ATOM     18  C   UNL     1       6.533   4.346  13.694  0.00  0.00    +0.000 C 
ATOM     19  N   UNL     1       6.443   3.255  12.895  0.00  0.00    +0.000 N 
ATOM     20  O   UNL     1       7.468   5.132  13.557  0.00  0.00    +0.000 OA
ATOM     21  H   UNL     1       5.895   2.452  13.217  0.00  0.00    +0.000 HD
ATOM     22  H   UNL     1       7.226   3.065  12.282  0.00  0.00    +0.000 HD
ENDBRANCH  17  18
ENDBRANCH  16  17
ENDBRANCH   5  16
TORSDOF 5
ENDMDL
MODEL 3
REMARK VINA RESULT:      -7.2      2.192      3.427
REMARK  Name = 
REMARK  6 active torsions:
REMARK  status: ('A' for Active; 'I' for Inactive)
REMARK    1  A    between atoms: C_1  and  C_2
REMARK    2  A    between atoms: C_7  and  C_8
REMARK    3  A    between atoms: C_8  and  N_9
REMARK    4  A    between atoms: N_13  and  C_14
REMARK    5  A    between atoms: C_14  and  C_15
REMARK    6  A    between atoms: C_15  and  C_16
REMARK                            x       y       z     vdW  Elec       q    Type
REMARK                         _______ _______ _______ _____ _____    ______ ____
ROOT
ATOM      1  N   UNL     1       5.274   4.997  18.865  0.00  0.00    +0.000 NA
ATOM      2  C   UNL     1       4.161   5.601  18.148  0.00  0.00    +0.000 C 
ATOM      3  C   UNL     1       4.325   6.846  17.270  0.00  0.00    +0.000 C 
ATOM      4  C   UNL     1       5.552   7.041  16.392  0.00  0.00    +0.000 C 
ATOM      5  N   UNL     1       6.260   5.890  15.854  0.00  0.00    +0.000 NA
ATOM      6  C   UNL     1       7.050   5.229  16.892  0.00  0.00    +0.000 C 
ATOM      7  C   UNL     1       6.404   4.483  18.084  0.00  0.00    +0.000 C 
ENDROOT
BRANCH   1   8
ATOM      8  C   UNL     1       4.783   3.948  19.824  0.00  0.00    +0.000 C 
BRANCH   8  15
ATOM      9  C   UNL     1       3.604   1.750  17.951  0.00  0.00    +0.000 C 
ATOM     10  C   UNL     1       2.777   2.549  18.921  0.00  0.00    +0.000 A 
ATOM     11  C   UNL     1       1.402   2.222  18.981  0.00  0.00    +0.000 A 
ATOM     12  C   UNL     1       0.531   2.893  19.838  0.00  0.00    +0.000 A 
ATOM     13  C   UNL     1       1.032   3.906  20.648  0.00  0.00    +0.000 A 
ATOM     14  C   UNL     1       2.390   4.227  20.616  0.00  0.00    +0.000 A 
ATOM     15  C   UNL     1       3.297   3.545  19.779  0.00  0.00    +0.000 A 
ENDBRANCH   8  15
ENDBRANCH   1   8
BRANCH   5  16
ATOM     16  C   UNL     1       5.508   4.999  14.964  0.00  0.00    +0.000 C 
BRANCH  16  17
ATOM     17  C   UNL     1       6.385   4.057  14.121  0.00  0.00    +0.000 C 
BRANCH  17  18
ATOM     18  C   UNL     1       7.306   4.675  13.075  0.00  0.00    +0.000 C 
ATOM     19  N   UNL     1       8.165   5.646  13.470  0.00  0.00    +0.000 N 
ATOM     20  O   UNL     1       7.269   4.331  11.896  0.00  0.00    +0.000 OA
ATOM     21  H   UNL     1       7.964   6.159  14.334  0.00  0.00    +0.000 HD
ATOM     22  H   UNL     1       8.670   6.139  12.745  0.00  0.00    +0.000 HD
ENDBRANCH  17  18
ENDBRANCH  16  17
ENDBRANCH   5  16
TORSDOF 5
ENDMDL
MODEL 4
REMARK VINA RESULT:      -7.1      2.410      3.810
REMARK  Name = 
REMARK  6 active torsions:
REMARK  status: ('A' for Active; 'I' for Inactive)
REMARK    1  A    between atoms: C_1  and  C_2
REMARK    2  A    between atoms: C_7  and  C_8
REMARK    3  A    between atoms: C_8  and  N_9
REMARK    4  A    between atoms: N_13  and  C_14
REMARK    5  A    between atoms: C_14  and  C_15
REMARK    6  A    between atoms: C_15  and  C_16
REMARK                            x       y       z     vdW  Elec       q    Type
REMARK                         _______ _______ _______ _____ _____    ______ ____
ROOT
ATOM      1  N   UNL     1       4.443   5.384  17.746  0.00  0.00    +0.000 NA
ATOM      2  C   UNL     1       4.721   6.649  17.082  0.00  0.00    +0.000 C 
ATOM      3  C   UNL     1       6.127   7.255  17.022  0.00  0.00    +0.000 C 
ATOM      4  C   UNL     1       7.358   6.386  16.814  0.00  0.00    +0.000 C 
ATOM      5  N   UNL     1       7.260   5.144  16.062  0.00  0.00    +0.000 NA
ATOM      6  C   UNL     1       6.602   4.104  16.850  0.00  0.00    +0.000 C 
ATOM      7  C   UNL     1       5.107   4.176  17.244  0.00  0.00    +0.000 C 
ENDROOT
BRANCH   1   8
ATOM      8  C   UNL     1       2.960   5.156  17.857  0.00  0.00    +0.000 C 
BRANCH   8  15
ATOM      9  C   UNL     1       2.226   2.131  17.650  0.00  0.00    +0.000 C 
ATOM     10  C   UNL     1       2.099   2.934  18.916  0.00  0.00    +0.000 A 
ATOM     11  C   UNL     1       1.658   2.227  20.058  0.00  0.00    +0.000 A 
ATOM     12  C   UNL     1       1.496   2.861  21.289  0.00  0.00    +0.000 A 
ATOM     13  C   UNL     1       1.777   4.220  21.388  0.00  0.00    +0.000 A 
ATOM     14  C   UNL     1       2.234   4.927  20.276  0.00  0.00    +0.000 A 
ATOM     15  C   UNL     1       2.431   4.305  19.026  0.00  0.00    +0.000 A 
ENDBRANCH   8  15
ENDBRANCH   1   8
BRANCH   5  16
ATOM     16  C   UNL     1       6.837   5.244  14.661  0.00  0.00    +0.000 C 
BRANCH  16  17
ATOM     17  C   UNL     1       6.278   3.936  14.073  0.00  0.00    +0.000 C 
BRANCH  17  18
ATOM     18  C   UNL     1       6.546   3.634  12.604  0.00  0.00    +0.000 C 
ATOM     19  N   UNL     1       6.003   2.513  12.069  0.00  0.00    +0.000 N 
ATOM     20  O   UNL     1       7.253   4.364  11.912  0.00  0.00    +0.000 OA
ATOM     21  H   UNL     1       5.721   1.756  12.697  0.00  0.00    +0.000 HD
ATOM     22  H   UNL     1       6.300   2.256  11.136  0.00  0.00    +0.000 HD
ENDBRANCH  17  18
ENDBRANCH  16  17
ENDBRANCH   5  16
TORSDOF 5
ENDMDL
MODEL 5
REMARK VINA RESULT:      -7.1      0.712      1.706
REMARK  Name = 
REMARK  6 active torsions:
REMARK  status: ('A' for Active; 'I' for Inactive)
REMARK    1  A    between atoms: C_1  and  C_2
REMARK    2  A    between atoms: C_7  and  C_8
REMARK    3  A    between atoms: C_8  and  N_9
REMARK    4  A    between atoms: N_13  and  C_14
REMARK    5  A    between atoms: C_14  and  C_15
REMARK    6  A    between atoms: C_15  and  C_16
REMARK                            x       y       z     vdW  Elec       q    Type
REMARK                         _______ _______ _______ _____ _____    ______ ____
ROOT
ATOM      1  N   UNL     1       4.181   3.870  16.922  0.00  0.00    +0.000 NA
ATOM      2  C   UNL     1       5.240   3.521  15.987  0.00  0.00    +0.000 C 
ATOM      3  C   UNL     1       5.671   4.450  14.847  0.00  0.00    +0.000 C 
ATOM      4  C   UNL     1       5.753   5.957  15.039  0.00  0.00    +0.000 C 
ATOM      5  N   UNL     1       6.057   6.513  16.348  0.00  0.00    +0.000 NA
ATOM      6  C   UNL     1       4.902   6.416  17.240  0.00  0.00    +0.000 C 
ATOM      7  C   UNL     1       4.360   5.062  17.758  0.00  0.00    +0.000 C 
ENDROOT
BRANCH   1   8
ATOM      8  C   UNL     1       3.812   2.687  17.773  0.00  0.00    +0.000 C 
BRANCH   8  15
ATOM      9  C   UNL     1       0.967   3.963  17.693  0.00  0.00    +0.000 C 
ATOM     10  C   UNL     1       1.637   3.502  18.959  0.00  0.00    +0.000 A 
ATOM     11  C   UNL     1       0.881   3.636  20.146  0.00  0.00    +0.000 A 
ATOM     12  C   UNL     1       1.393   3.247  21.383  0.00  0.00    +0.000 A 
ATOM     13  C   UNL     1       2.678   2.716  21.442  0.00  0.00    +0.000 A 
ATOM     14  C   UNL     1       3.429   2.558  20.277  0.00  0.00    +0.000 A 
ATOM     15  C   UNL     1       2.924   2.918  19.010  0.00  0.00    +0.000 A 
ENDBRANCH   8  15
ENDBRANCH   1   8
BRANCH   5  16
ATOM     16  C   UNL     1       7.350   6.157  16.942  0.00  0.00    +0.000 C 
BRANCH  16  17
ATOM     17  C   UNL     1       7.552   6.674  18.377  0.00  0.00    +0.000 C 
BRANCH  17  18
ATOM     18  C   UNL     1       7.557   5.659  19.515  0.00  0.00    +0.000 C 
ATOM     19  N   UNL     1       8.750   5.296  20.046  0.00  0.00    +0.000 N 
ATOM     20  O   UNL     1       6.518   5.156  19.937  0.00  0.00    +0.000 OA
ATOM     21  H   UNL     1       9.599   5.438  19.492  0.00  0.00    +0.000 HD
ATOM     22  H   UNL     1       8.748   4.526  20.703  0.00  0.00    +0.000 HD
ENDBRANCH  17  18
ENDBRANCH  16  17
ENDBRANCH   5  16
TORSDOF 5
ENDMDL
MODEL 6
REMARK VINA RESULT:      -7.1      2.486      3.936
REMARK  Name = 
REMARK  6 active torsions:
REMARK  status: ('A' for Active; 'I' for Inactive)
REMARK    1  A    between atoms: C_1  and  C_2
REMARK    2  A    between atoms: C_7  and  C_8
REMARK    3  A    between atoms: C_8  and  N_9
REMARK    4  A    between atoms: N_13  and  C_14
REMARK    5  A    between atoms: C_14  and  C_15
REMARK    6  A    between atoms: C_15  and  C_16
REMARK                            x       y       z     vdW  Elec       q    Type
REMARK                         _______ _______ _______ _____ _____    ______ ____
ROOT
ATOM      1  N   UNL     1       4.268   5.643  17.724  0.00  0.00    +0.000 NA
ATOM      2  C   UNL     1       4.774   6.844  17.077  0.00  0.00    +0.000 C 
ATOM      3  C   UNL     1       6.256   7.234  17.111  0.00  0.00    +0.000 C 
ATOM      4  C   UNL     1       7.355   6.189  16.988  0.00  0.00    +0.000 C 
ATOM      5  N   UNL     1       7.124   4.967  16.234  0.00  0.00    +0.000 NA
ATOM      6  C   UNL     1       6.267   4.046  16.979  0.00  0.00    +0.000 C 
ATOM      7  C   UNL     1       4.776   4.344  17.271  0.00  0.00    +0.000 C 
ENDROOT
BRANCH   1   8
ATOM      8  C   UNL     1       2.764   5.639  17.735  0.00  0.00    +0.000 C 
BRANCH   8  15
ATOM      9  C   UNL     1       1.947   5.985  20.726  0.00  0.00    +0.000 C 
ATOM     10  C   UNL     1       1.676   4.739  19.928  0.00  0.00    +0.000 A 
ATOM     11  C   UNL     1       0.973   3.712  20.600  0.00  0.00    +0.000 A 
ATOM     12  C   UNL     1       0.665   2.508  19.968  0.00  0.00    +0.000 A 
ATOM     13  C   UNL     1       1.061   2.320  18.648  0.00  0.00    +0.000 A 
ATOM     14  C   UNL     1       1.736   3.331  17.965  0.00  0.00    +0.000 A 
ATOM     15  C   UNL     1       2.036   4.569  18.571  0.00  0.00    +0.000 A 
ENDBRANCH   8  15
ENDBRANCH   1   8
BRANCH   5  16
ATOM     16  C   UNL     1       6.813   5.111  14.808  0.00  0.00    +0.000 C 
BRANCH  16  17
ATOM     17  C   UNL     1       6.279   3.830  14.143  0.00  0.00    +0.000 C 
BRANCH  17  18
ATOM     18  C   UNL     1       6.280   3.753  12.621  0.00  0.00    +0.000 C 
ATOM     19  N   UNL     1       5.200   3.217  12.004  0.00  0.00    +0.000 N 
ATOM     20  O   UNL     1       7.237   4.142  11.955  0.00  0.00    +0.000 OA
ATOM     21  H   UNL     1       4.583   2.600  12.540  0.00  0.00    +0.000 HD
ATOM     22  H   UNL     1       5.272   3.048  11.009  0.00  0.00    +0.000 HD
ENDBRANCH  17  18
ENDBRANCH  16  17
ENDBRANCH   5  16
TORSDOF 5
ENDMDL
MODEL 7
REMARK VINA RESULT:      -7.0      2.521      3.290
REMARK  Name = 
REMARK  6 active torsions:
REMARK  status: ('A' for Active; 'I' for Inactive)
REMARK    1  A    between atoms: C_1  and  C_2
REMARK    2  A    between atoms: C_7  and  C_8
REMARK    3  A    between atoms: C_8  and  N_9
REMARK    4  A    between atoms: N_13  and  C_14
REMARK    5  A    between atoms: C_14  and  C_15
REMARK    6  A    between atoms: C_15  and  C_16
REMARK                            x       y       z     vdW  Elec       q    Type
REMARK                         _______ _______ _______ _____ _____    ______ ____
ROOT
ATOM      1  N   UNL     1       4.407   5.740  18.331  0.00  0.00    +0.000 NA
ATOM      2  C   UNL     1       5.533   5.202  19.079  0.00  0.00    +0.000 C 
ATOM      3  C   UNL     1       6.782   4.637  18.395  0.00  0.00    +0.000 C 
ATOM      4  C   UNL     1       7.370   5.290  17.152  0.00  0.00    +0.000 C 
ATOM      5  N   UNL     1       7.222   6.721  16.936  0.00  0.00    +0.000 NA
ATOM      6  C   UNL     1       5.859   7.050  16.521  0.00  0.00    +0.000 C 
ATOM      7  C   UNL     1       4.641   6.899  17.464  0.00  0.00    +0.000 C 
ENDROOT
BRANCH   1   8
ATOM      8  C   UNL     1       3.237   5.997  19.241  0.00  0.00    +0.000 C 
BRANCH   8  15
ATOM      9  C   UNL     1       1.333   4.200  17.544  0.00  0.00    +0.000 C 
ATOM     10  C   UNL     1       1.590   3.988  19.011  0.00  0.00    +0.000 A 
ATOM     11  C   UNL     1       0.945   2.876  19.600  0.00  0.00    +0.000 A 
ATOM     12  C   UNL     1       1.101   2.576  20.953  0.00  0.00    +0.000 A 
ATOM     13  C   UNL     1       1.912   3.393  21.733  0.00  0.00    +0.000 A 
ATOM     14  C   UNL     1       2.573   4.481  21.163  0.00  0.00    +0.000 A 
ATOM     15  C   UNL     1       2.453   4.791  19.792  0.00  0.00    +0.000 A 
ENDBRANCH   8  15
ENDBRANCH   1   8
BRANCH   5  16
ATOM     16  C   UNL     1       7.814   7.613  17.940  0.00  0.00    +0.000 C 
BRANCH  16  17
ATOM     17  C   UNL     1       7.902   9.086  17.505  0.00  0.00    +0.000 C 
BRANCH  17  18
ATOM     18  C   UNL     1       8.734  10.039  18.355  0.00  0.00    +0.000 C 
ATOM     19  N   UNL     1       9.233   9.583  19.529  0.00  0.00    +0.000 N 
ATOM     20  O   UNL     1       8.938  11.202  18.011  0.00  0.00    +0.000 OA
ATOM     21  H   UNL     1       8.794   8.768  19.967  0.00  0.00    +0.000 HD
ATOM     22  H   UNL     1       9.664  10.262  20.143  0.00  0.00    +0.000 HD
ENDBRANCH  17  18
ENDBRANCH  16  17
ENDBRANCH   5  16
TORSDOF 5
ENDMDL
MODEL 8
REMARK VINA RESULT:      -7.0      2.232      3.551
REMARK  Name = 
REMARK  6 active torsions:
REMARK  status: ('A' for Active; 'I' for Inactive)
REMARK    1  A    between atoms: C_1  and  C_2
REMARK    2  A    between atoms: C_7  and  C_8
REMARK    3  A    between atoms: C_8  and  N_9
REMARK    4  A    between atoms: N_13  and  C_14
REMARK    5  A    between atoms: C_14  and  C_15
REMARK    6  A    between atoms: C_15  and  C_16
REMARK                            x       y       z     vdW  Elec       q    Type
REMARK                         _______ _______ _______ _____ _____    ______ ____
ROOT
ATOM      1  N   UNL     1       5.282   4.916  18.889  0.00  0.00    +0.000 NA
ATOM      2  C   UNL     1       4.229   5.649  18.204  0.00  0.00    +0.000 C 
ATOM      3  C   UNL     1       4.505   6.917  17.388  0.00  0.00    +0.000 C 
ATOM      4  C   UNL     1       5.748   7.046  16.520  0.00  0.00    +0.000 C 
ATOM      5  N   UNL     1       6.354   5.865  15.925  0.00  0.00    +0.000 NA
ATOM      6  C   UNL     1       7.079   5.087  16.928  0.00  0.00    +0.000 C 
ATOM      7  C   UNL     1       6.365   4.343  18.083  0.00  0.00    +0.000 C 
ENDROOT
BRANCH   1   8
ATOM      8  C   UNL     1       4.697   3.868  19.796  0.00  0.00    +0.000 C 
BRANCH   8  15
ATOM      9  C   UNL     1       2.084   4.875  21.170  0.00  0.00    +0.000 C 
ATOM     10  C   UNL     1       2.111   3.795  20.123  0.00  0.00    +0.000 A 
ATOM     11  C   UNL     1       0.856   3.266  19.742  0.00  0.00    +0.000 A 
ATOM     12  C   UNL     1       0.750   2.259  18.784  0.00  0.00    +0.000 A 
ATOM     13  C   UNL     1       1.909   1.769  18.193  0.00  0.00    +0.000 A 
ATOM     14  C   UNL     1       3.154   2.294  18.542  0.00  0.00    +0.000 A 
ATOM     15  C   UNL     1       3.287   3.331  19.488  0.00  0.00    +0.000 A 
ENDBRANCH   8  15
ENDBRANCH   1   8
BRANCH   5  16
ATOM     16  C   UNL     1       5.528   5.089  14.993  0.00  0.00    +0.000 C 
BRANCH  16  17
ATOM     17  C   UNL     1       6.320   4.103  14.116  0.00  0.00    +0.000 C 
BRANCH  17  18
ATOM     18  C   UNL     1       7.287   4.673  13.085  0.00  0.00    +0.000 C 
ATOM     19  N   UNL     1       8.146   5.645  13.479  0.00  0.00    +0.000 N 
ATOM     20  O   UNL     1       7.287   4.291  11.917  0.00  0.00    +0.000 OA
ATOM     21  H   UNL     1       7.922   6.189  14.318  0.00  0.00    +0.000 HD
ATOM     22  H   UNL     1       8.684   6.107  12.757  0.00  0.00    +0.000 HD
ENDBRANCH  17  18
ENDBRANCH  16  17
ENDBRANCH   5  16
TORSDOF 5
ENDMDL
MODEL 9
REMARK VINA RESULT:      -7.0      2.491      3.981
REMARK  Name = 
REMARK  6 active torsions:
REMARK  status: ('A' for Active; 'I' for Inactive)
REMARK    1  A    between atoms: C_1  and  C_2
REMARK    2  A    between atoms: C_7  and  C_8
REMARK    3  A    between atoms: C_8  and  N_9
REMARK    4  A    between atoms: N_13  and  C_14
REMARK    5  A    between atoms: C_14  and  C_15
REMARK    6  A    between atoms: C_15  and  C_16
REMARK                            x       y       z     vdW  Elec       q    Type
REMARK                         _______ _______ _______ _____ _____    ______ ____
ROOT
ATOM      1  N   UNL     1       4.375   6.017  18.426  0.00  0.00    +0.000 NA
ATOM      2  C   UNL     1       4.479   6.713  17.152  0.00  0.00    +0.000 C 
ATOM      3  C   UNL     1       5.823   6.979  16.467  0.00  0.00    +0.000 C 
ATOM      4  C   UNL     1       6.938   5.943  16.478  0.00  0.00    +0.000 C 
ATOM      5  N   UNL     1       6.620   4.525  16.537  0.00  0.00    +0.000 NA
ATOM      6  C   UNL     1       6.188   4.141  17.880  0.00  0.00    +0.000 C 
ATOM      7  C   UNL     1       4.858   4.634  18.501  0.00  0.00    +0.000 C 
ENDROOT
BRANCH   1   8
ATOM      8  C   UNL     1       2.976   6.110  18.971  0.00  0.00    +0.000 C 
BRANCH   8  15
ATOM      9  C   UNL     1       1.310   3.993  17.398  0.00  0.00    +0.000 C 
ATOM     10  C   UNL     1       1.588   3.905  18.874  0.00  0.00    +0.000 A 
ATOM     11  C   UNL     1       1.082   2.761  19.534  0.00  0.00    +0.000 A 
ATOM     12  C   UNL     1       1.272   2.566  20.901  0.00  0.00    +0.000 A 
ATOM     13  C   UNL     1       1.975   3.522  21.626  0.00  0.00    +0.000 A 
ATOM     14  C   UNL     1       2.499   4.646  20.986  0.00  0.00    +0.000 A 
ATOM     15  C   UNL     1       2.345   4.854  19.599  0.00  0.00    +0.000 A 
ENDBRANCH   8  15
ENDBRANCH   1   8
BRANCH   5  16
ATOM     16  C   UNL     1       5.831   3.970  15.433  0.00  0.00    +0.000 C 
BRANCH  16  17
ATOM     17  C   UNL     1       6.385   4.291  14.034  0.00  0.00    +0.000 C 
BRANCH  17  18
ATOM     18  C   UNL     1       5.824   3.522  12.843  0.00  0.00    +0.000 C 
ATOM     19  N   UNL     1       6.646   2.667  12.186  0.00  0.00    +0.000 N 
ATOM     20  O   UNL     1       4.667   3.676  12.460  0.00  0.00    +0.000 OA
ATOM     21  H   UNL     1       7.658   2.791  12.276  0.00  0.00    +0.000 HD
ATOM     22  H   UNL     1       6.303   2.270  11.321  0.00  0.00    +0.000 HD
ENDBRANCH  17  18
ENDBRANCH  16  17
ENDBRANCH   5  16
TORSDOF 5
ENDMDL
