MODEL 1
REMARK VINA RESULT:      -6.5      0.000      0.000
REMARK  Name = 
REMARK  11 active torsions:
REMARK  status: ('A' for Active; 'I' for Inactive)
REMARK    1  A    between atoms: C_1  and  O_2
REMARK    2  A    between atoms: O_2  and  C_3
REMARK    3  A    between atoms: C_5  and  O_6
REMARK    4  A    between atoms: O_6  and  C_7
REMARK    5  A    between atoms: C_7  and  C_8
REMARK    6  A    between atoms: C_7  and  C_9
REMARK    7  A    between atoms: C_12  and  C_13
REMARK    8  A    between atoms: C_13  and  O_14
REMARK    9  A    between atoms: N_19  and  C_20
REMARK   10  A    between atoms: C_20  and  C_21
REMARK   11  A    between atoms: C_20  and  C_22
REMARK                            x       y       z     vdW  Elec       q    Type
REMARK                         _______ _______ _______ _____ _____    ______ ____
ROOT
ATOM      1  C   UNL     1       2.151   7.029  19.708  0.00  0.00    +0.000 C 
ATOM      2  C   UNL     1       1.546   8.216  19.552  0.00  0.00    +0.000 C 
ATOM      3  C   UNL     1       1.481   9.082  18.357  0.00  0.00    +0.000 C 
ATOM      4  O   UNL     1       1.415   8.721  17.195  0.00  0.00    +0.000 OA
ATOM      5  C   UNL     1       1.533  10.512  18.829  0.00  0.00    +0.000 C 
ATOM      6  N   UNL     1       1.057  10.368  20.206  0.00  0.00    +0.000 N 
ATOM      7  C   UNL     1       1.001   9.048  20.669  0.00  0.00    +0.000 C 
ATOM      8  O   UNL     1       0.562   8.649  21.740  0.00  0.00    +0.000 OA
ENDROOT
BRANCH   1  14
ATOM      9  C   UNL     1       2.587   4.959  18.242  0.00  0.00    +0.000 A 
ATOM     10  C   UNL     1       3.421   4.295  17.328  0.00  0.00    +0.000 A 
ATOM     11  C   UNL     1       4.503   4.935  16.733  0.00  0.00    +0.000 A 
ATOM     12  C   UNL     1       4.743   6.267  17.024  0.00  0.00    +0.000 A 
ATOM     13  C   UNL     1       3.982   6.908  18.011  0.00  0.00    +0.000 A 
ATOM     14  C   UNL     1       2.919   6.260  18.680  0.00  0.00    +0.000 A 
BRANCH   9  16
ATOM     15  C   UNL     1       1.581   3.094  19.310  0.00  0.00    +0.000 C 
ATOM     16  O   UNL     1       1.432   4.382  18.717  0.00  0.00    +0.000 OA
ENDBRANCH   9  16
BRANCH  11  17
ATOM     17  O   UNL     1       5.215   4.150  15.876  0.00  0.00    +0.000 OA
BRANCH  17  18
ATOM     18  C   UNL     1       5.824   4.750  14.729  0.00  0.00    +0.000 C 
ATOM     19  C   UNL     1       7.330   4.946  14.905  0.00  0.00    +0.000 C 
ATOM     20  C   UNL     1       5.585   3.771  13.578  0.00  0.00    +0.000 C 
ENDBRANCH  17  18
ENDBRANCH  11  17
ENDBRANCH   1  14
BRANCH   6  21
ATOM     21  C   UNL     1       0.658  11.556  20.965  0.00  0.00    +0.000 C 
ATOM     22  C   UNL     1       1.442  12.801  20.547  0.00  0.00    +0.000 C 
ATOM     23  C   UNL     1      -0.848  11.803  20.912  0.00  0.00    +0.000 C 
ENDBRANCH   6  21
BRANCH   1  24
ATOM     24  O   UNL     1       2.196   6.434  20.964  0.00  0.00    +0.000 OA
ATOM     25  H   UNL     1       2.030   5.485  20.839  0.00  0.00    +0.000 HD
ENDBRANCH   1  24
TORSDOF 6
ENDMDL
MODEL 2
REMARK VINA RESULT:      -6.5      4.011      6.596
REMARK  Name = 
REMARK  11 active torsions:
REMARK  status: ('A' for Active; 'I' for Inactive)
REMARK    1  A    between atoms: C_1  and  O_2
REMARK    2  A    between atoms: O_2  and  C_3
REMARK    3  A    between atoms: C_5  and  O_6
REMARK    4  A    between atoms: O_6  and  C_7
REMARK    5  A    between atoms: C_7  and  C_8
REMARK    6  A    between atoms: C_7  and  C_9
REMARK    7  A    between atoms: C_12  and  C_13
REMARK    8  A    between atoms: C_13  and  O_14
REMARK    9  A    between atoms: N_19  and  C_20
REMARK   10  A    between atoms: C_20  and  C_21
REMARK   11  A    between atoms: C_20  and  C_22
REMARK                            x       y       z     vdW  Elec       q    Type
REMARK                         _______ _______ _______ _____ _____    ______ ____
ROOT
ATOM      1  C   UNL     1       5.597   4.746  17.836  0.00  0.00    +0.000 C 
ATOM      2  C   UNL     1       4.370   4.599  18.358  0.00  0.00    +0.000 C 
ATOM      3  C   UNL     1       3.565   5.560  19.138  0.00  0.00    +0.000 C 
ATOM      4  O   UNL     1       3.527   6.770  18.994  0.00  0.00    +0.000 OA
ATOM      5  C   UNL     1       2.802   4.777  20.175  0.00  0.00    +0.000 C 
ATOM      6  N   UNL     1       2.781   3.449  19.560  0.00  0.00    +0.000 N 
ATOM      7  C   UNL     1       3.642   3.298  18.467  0.00  0.00    +0.000 C 
ATOM      8  O   UNL     1       3.750   2.326  17.729  0.00  0.00    +0.000 OA
ENDROOT
BRANCH   1  14
ATOM      9  C   UNL     1       6.317   7.105  17.096  0.00  0.00    +0.000 A 
ATOM     10  C   UNL     1       7.242   8.156  17.188  0.00  0.00    +0.000 A 
ATOM     11  C   UNL     1       8.243   8.163  18.154  0.00  0.00    +0.000 A 
ATOM     12  C   UNL     1       8.308   7.123  19.066  0.00  0.00    +0.000 A 
ATOM     13  C   UNL     1       7.455   6.020  18.920  0.00  0.00    +0.000 A 
ATOM     14  C   UNL     1       6.473   5.958  17.906  0.00  0.00    +0.000 A 
BRANCH   9  16
ATOM     15  C   UNL     1       5.315   6.337  15.087  0.00  0.00    +0.000 C 
ATOM     16  O   UNL     1       5.237   7.165  16.246  0.00  0.00    +0.000 OA
ENDBRANCH   9  16
BRANCH  11  17
ATOM     17  O   UNL     1       9.063   9.251  18.103  0.00  0.00    +0.000 OA
BRANCH  17  18
ATOM     18  C   UNL     1       8.711  10.419  18.850  0.00  0.00    +0.000 C 
ATOM     19  C   UNL     1       9.549  10.572  20.120  0.00  0.00    +0.000 C 
ATOM     20  C   UNL     1       9.002  11.601  17.922  0.00  0.00    +0.000 C 
ENDBRANCH  17  18
ENDBRANCH  11  17
ENDBRANCH   1  14
BRANCH   6  21
ATOM     21  C   UNL     1       1.876   2.421  20.083  0.00  0.00    +0.000 C 
ATOM     22  C   UNL     1       1.536   2.643  21.556  0.00  0.00    +0.000 C 
ATOM     23  C   UNL     1       0.613   2.270  19.236  0.00  0.00    +0.000 C 
ENDBRANCH   6  21
BRANCH   1  24
ATOM     24  O   UNL     1       6.231   3.664  17.237  0.00  0.00    +0.000 OA
ATOM     25  H   UNL     1       5.538   3.044  16.953  0.00  0.00    +0.000 HD
ENDBRANCH   1  24
TORSDOF 6
ENDMDL
MODEL 3
REMARK VINA RESULT:      -6.3      1.965      3.066
REMARK  Name = 
REMARK  11 active torsions:
REMARK  status: ('A' for Active; 'I' for Inactive)
REMARK    1  A    between atoms: C_1  and  O_2
REMARK    2  A    between atoms: O_2  and  C_3
REMARK    3  A    between atoms: C_5  and  O_6
REMARK    4  A    between atoms: O_6  and  C_7
REMARK    5  A    between atoms: C_7  and  C_8
REMARK    6  A    between atoms: C_7  and  C_9
REMARK    7  A    between atoms: C_12  and  C_13
REMARK    8  A    between atoms: C_13  and  O_14
REMARK    9  A    between atoms: N_19  and  C_20
REMARK   10  A    between atoms: C_20  and  C_21
REMARK   11  A    between atoms: C_20  and  C_22
REMARK                            x       y       z     vdW  Elec       q    Type
REMARK                         _______ _______ _______ _____ _____    ______ ____
ROOT
ATOM      1  C   UNL     1       3.560   5.143  19.072  0.00  0.00    +0.000 C 
ATOM      2  C   UNL     1       2.671   6.141  19.188  0.00  0.00    +0.000 C 
ATOM      3  C   UNL     1       2.490   7.336  18.339  0.00  0.00    +0.000 C 
ATOM      4  O   UNL     1       2.643   7.405  17.132  0.00  0.00    +0.000 OA
ATOM      5  C   UNL     1       2.101   8.479  19.240  0.00  0.00    +0.000 C 
ATOM      6  N   UNL     1       1.548   7.753  20.386  0.00  0.00    +0.000 N 
ATOM      7  C   UNL     1       1.810   6.379  20.388  0.00  0.00    +0.000 C 
ATOM      8  O   UNL     1       1.393   5.539  21.175  0.00  0.00    +0.000 OA
ENDROOT
BRANCH   1  14
ATOM      9  C   UNL     1       5.996   5.128  18.238  0.00  0.00    +0.000 A 
ATOM     10  C   UNL     1       6.890   5.032  17.161  0.00  0.00    +0.000 A 
ATOM     11  C   UNL     1       6.463   4.661  15.891  0.00  0.00    +0.000 A 
ATOM     12  C   UNL     1       5.128   4.348  15.693  0.00  0.00    +0.000 A 
ATOM     13  C   UNL     1       4.210   4.540  16.735  0.00  0.00    +0.000 A 
ATOM     14  C   UNL     1       4.609   4.981  18.017  0.00  0.00    +0.000 A 
BRANCH   9  16
ATOM     15  C   UNL     1       7.820   5.657  19.663  0.00  0.00    +0.000 C 
ATOM     16  O   UNL     1       6.435   5.346  19.525  0.00  0.00    +0.000 OA
ENDBRANCH   9  16
BRANCH  11  17
ATOM     17  O   UNL     1       7.454   4.622  14.955  0.00  0.00    +0.000 OA
BRANCH  17  18
ATOM     18  C   UNL     1       7.160   5.037  13.618  0.00  0.00    +0.000 C 
ATOM     19  C   UNL     1       8.381   5.630  12.912  0.00  0.00    +0.000 C 
ATOM     20  C   UNL     1       6.732   3.767  12.880  0.00  0.00    +0.000 C 
ENDBRANCH  17  18
ENDBRANCH  11  17
ENDBRANCH   1  14
BRANCH   6  21
ATOM     21  C   UNL     1       0.764   8.474  21.392  0.00  0.00    +0.000 C 
ATOM     22  C   UNL     1       1.646   9.107  22.469  0.00  0.00    +0.000 C 
ATOM     23  C   UNL     1      -0.179   9.503  20.770  0.00  0.00    +0.000 C 
ENDBRANCH   6  21
BRANCH   1  24
ATOM     24  O   UNL     1       3.642   4.168  20.059  0.00  0.00    +0.000 OA
ATOM     25  H   UNL     1       3.548   4.616  20.916  0.00  0.00    +0.000 HD
ENDBRANCH   1  24
TORSDOF 6
ENDMDL
MODEL 4
REMARK VINA RESULT:      -6.3      1.325      1.659
REMARK  Name = 
REMARK  11 active torsions:
REMARK  status: ('A' for Active; 'I' for Inactive)
REMARK    1  A    between atoms: C_1  and  O_2
REMARK    2  A    between atoms: O_2  and  C_3
REMARK    3  A    between atoms: C_5  and  O_6
REMARK    4  A    between atoms: O_6  and  C_7
REMARK    5  A    between atoms: C_7  and  C_8
REMARK    6  A    between atoms: C_7  and  C_9
REMARK    7  A    between atoms: C_12  and  C_13
REMARK    8  A    between atoms: C_13  and  O_14
REMARK    9  A    between atoms: N_19  and  C_20
REMARK   10  A    between atoms: C_20  and  C_21
REMARK   11  A    between atoms: C_20  and  C_22
REMARK                            x       y       z     vdW  Elec       q    Type
REMARK                         _______ _______ _______ _____ _____    ______ ____
ROOT
ATOM      1  C   UNL     1       1.593   8.340  20.466  0.00  0.00    +0.000 C 
ATOM      2  C   UNL     1       0.916   9.452  20.142  0.00  0.00    +0.000 C 
ATOM      3  C   UNL     1       0.648  10.028  18.809  0.00  0.00    +0.000 C 
ATOM      4  O   UNL     1       0.442   9.416  17.775  0.00  0.00    +0.000 OA
ATOM      5  C   UNL     1       0.695  11.528  18.944  0.00  0.00    +0.000 C 
ATOM      6  N   UNL     1       0.419  11.687  20.373  0.00  0.00    +0.000 N 
ATOM      7  C   UNL     1       0.489  10.503  21.116  0.00  0.00    +0.000 C 
ATOM      8  O   UNL     1       0.219  10.346  22.301  0.00  0.00    +0.000 OA
ENDROOT
BRANCH   1  14
ATOM      9  C   UNL     1       2.162   5.968  19.641  0.00  0.00    +0.000 A 
ATOM     10  C   UNL     1       2.882   5.151  18.757  0.00  0.00    +0.000 A 
ATOM     11  C   UNL     1       3.582   5.684  17.680  0.00  0.00    +0.000 A 
ATOM     12  C   UNL     1       3.542   7.051  17.458  0.00  0.00    +0.000 A 
ATOM     13  C   UNL     1       2.913   7.885  18.392  0.00  0.00    +0.000 A 
ATOM     14  C   UNL     1       2.250   7.374  19.531  0.00  0.00    +0.000 A 
BRANCH   9  16
ATOM     15  C   UNL     1       1.147   4.027  20.554  0.00  0.00    +0.000 C 
ATOM     16  O   UNL     1       1.346   5.437  20.615  0.00  0.00    +0.000 OA
ENDBRANCH   9  16
BRANCH  11  17
ATOM     17  O   UNL     1       4.234   4.757  16.922  0.00  0.00    +0.000 OA
BRANCH  17  18
ATOM     18  C   UNL     1       5.486   5.107  16.324  0.00  0.00    +0.000 C 
ATOM     19  C   UNL     1       6.680   4.620  17.147  0.00  0.00    +0.000 C 
ATOM     20  C   UNL     1       5.503   4.403  14.966  0.00  0.00    +0.000 C 
ENDBRANCH  17  18
ENDBRANCH  11  17
ENDBRANCH   1  14
BRANCH   6  21
ATOM     21  C   UNL     1       0.070  13.008  20.903  0.00  0.00    +0.000 C 
ATOM     22  C   UNL     1       1.304  13.873  21.162  0.00  0.00    +0.000 C 
ATOM     23  C   UNL     1      -0.947  13.738  20.027  0.00  0.00    +0.000 C 
ENDBRANCH   6  21
BRANCH   1  24
ATOM     24  O   UNL     1       1.837   8.041  21.801  0.00  0.00    +0.000 OA
ATOM     25  H   UNL     1       0.981   7.841  22.214  0.00  0.00    +0.000 HD
ENDBRANCH   1  24
TORSDOF 6
ENDMDL
MODEL 5
REMARK VINA RESULT:      -6.2      2.301      7.494
REMARK  Name = 
REMARK  11 active torsions:
REMARK  status: ('A' for Active; 'I' for Inactive)
REMARK    1  A    between atoms: C_1  and  O_2
REMARK    2  A    between atoms: O_2  and  C_3
REMARK    3  A    between atoms: C_5  and  O_6
REMARK    4  A    between atoms: O_6  and  C_7
REMARK    5  A    between atoms: C_7  and  C_8
REMARK    6  A    between atoms: C_7  and  C_9
REMARK    7  A    between atoms: C_12  and  C_13
REMARK    8  A    between atoms: C_13  and  O_14
REMARK    9  A    between atoms: N_19  and  C_20
REMARK   10  A    between atoms: C_20  and  C_21
REMARK   11  A    between atoms: C_20  and  C_22
REMARK                            x       y       z     vdW  Elec       q    Type
REMARK                         _______ _______ _______ _____ _____    ______ ____
ROOT
ATOM      1  C   UNL     1       3.373   5.277  17.665  0.00  0.00    +0.000 C 
ATOM      2  C   UNL     1       4.522   5.276  16.973  0.00  0.00    +0.000 C 
ATOM      3  C   UNL     1       5.462   6.387  16.718  0.00  0.00    +0.000 C 
ATOM      4  O   UNL     1       5.739   7.299  17.478  0.00  0.00    +0.000 OA
ATOM      5  C   UNL     1       6.008   6.210  15.326  0.00  0.00    +0.000 C 
ATOM      6  N   UNL     1       5.801   4.774  15.127  0.00  0.00    +0.000 N 
ATOM      7  C   UNL     1       4.979   4.165  16.082  0.00  0.00    +0.000 C 
ATOM      8  O   UNL     1       4.719   2.974  16.195  0.00  0.00    +0.000 OA
ENDROOT
BRANCH   1  14
ATOM      9  C   UNL     1       2.464   6.458  19.764  0.00  0.00    +0.000 A 
ATOM     10  C   UNL     1       1.802   7.563  20.322  0.00  0.00    +0.000 A 
ATOM     11  C   UNL     1       1.530   8.702  19.573  0.00  0.00    +0.000 A 
ATOM     12  C   UNL     1       1.950   8.761  18.255  0.00  0.00    +0.000 A 
ATOM     13  C   UNL     1       2.519   7.626  17.659  0.00  0.00    +0.000 A 
ATOM     14  C   UNL     1       2.746   6.432  18.380  0.00  0.00    +0.000 A 
BRANCH   9  16
ATOM     15  C   UNL     1       1.828   4.569  21.052  0.00  0.00    +0.000 C 
ATOM     16  O   UNL     1       2.871   5.394  20.536  0.00  0.00    +0.000 OA
ENDBRANCH   9  16
BRANCH  11  17
ATOM     17  O   UNL     1       0.875   9.681  20.261  0.00  0.00    +0.000 OA
BRANCH  17  18
ATOM     18  C   UNL     1       0.389  10.822  19.548  0.00  0.00    +0.000 C 
ATOM     19  C   UNL     1      -1.126  10.778  19.345  0.00  0.00    +0.000 C 
ATOM     20  C   UNL     1       0.735  12.029  20.423  0.00  0.00    +0.000 C 
ENDBRANCH  17  18
ENDBRANCH  11  17
ENDBRANCH   1  14
BRANCH   6  21
ATOM     21  C   UNL     1       6.464   4.092  14.012  0.00  0.00    +0.000 C 
ATOM     22  C   UNL     1       5.468   3.589  12.966  0.00  0.00    +0.000 C 
ATOM     23  C   UNL     1       7.557   4.947  13.373  0.00  0.00    +0.000 C 
ENDBRANCH   6  21
BRANCH   1  24
ATOM     24  O   UNL     1       2.570   4.142  17.678  0.00  0.00    +0.000 OA
ATOM     25  H   UNL     1       2.901   3.564  18.386  0.00  0.00    +0.000 HD
ENDBRANCH   1  24
TORSDOF 6
ENDMDL
MODEL 6
REMARK VINA RESULT:      -6.2      1.155      1.278
REMARK  Name = 
REMARK  11 active torsions:
REMARK  status: ('A' for Active; 'I' for Inactive)
REMARK    1  A    between atoms: C_1  and  O_2
REMARK    2  A    between atoms: O_2  and  C_3
REMARK    3  A    between atoms: C_5  and  O_6
REMARK    4  A    between atoms: O_6  and  C_7
REMARK    5  A    between atoms: C_7  and  C_8
REMARK    6  A    between atoms: C_7  and  C_9
REMARK    7  A    between atoms: C_12  and  C_13
REMARK    8  A    between atoms: C_13  and  O_14
REMARK    9  A    between atoms: N_19  and  C_20
REMARK   10  A    between atoms: C_20  and  C_21
REMARK   11  A    between atoms: C_20  and  C_22
REMARK                            x       y       z     vdW  Elec       q    Type
REMARK                         _______ _______ _______ _____ _____    ______ ____
ROOT
ATOM      1  C   UNL     1       3.033   6.420  19.207  0.00  0.00    +0.000 C 
ATOM      2  C   UNL     1       2.270   7.522  19.152  0.00  0.00    +0.000 C 
ATOM      3  C   UNL     1       2.142   8.518  18.069  0.00  0.00    +0.000 C 
ATOM      4  O   UNL     1       2.192   8.305  16.870  0.00  0.00    +0.000 OA
ATOM      5  C   UNL     1       1.959   9.868  18.712  0.00  0.00    +0.000 C 
ATOM      6  N   UNL     1       1.438   9.482  20.025  0.00  0.00    +0.000 N 
ATOM      7  C   UNL     1       1.551   8.119  20.320  0.00  0.00    +0.000 C 
ATOM      8  O   UNL     1       1.119   7.527  21.301  0.00  0.00    +0.000 OA
ENDROOT
BRANCH   1  14
ATOM      9  C   UNL     1       3.742   4.727  17.401  0.00  0.00    +0.000 A 
ATOM     10  C   UNL     1       4.713   4.291  16.487  0.00  0.00    +0.000 A 
ATOM     11  C   UNL     1       5.835   5.059  16.195  0.00  0.00    +0.000 A 
ATOM     12  C   UNL     1       5.980   6.298  16.796  0.00  0.00    +0.000 A 
ATOM     13  C   UNL     1       5.071   6.697  17.786  0.00  0.00    +0.000 A 
ATOM     14  C   UNL     1       3.959   5.905  18.150  0.00  0.00    +0.000 A 
BRANCH   9  16
ATOM     15  C   UNL     1       2.682   2.645  17.817  0.00  0.00    +0.000 C 
ATOM     16  O   UNL     1       2.560   4.046  17.580  0.00  0.00    +0.000 OA
ENDBRANCH   9  16
BRANCH  11  17
ATOM     17  O   UNL     1       6.684   4.490  15.293  0.00  0.00    +0.000 OA
BRANCH  17  18
ATOM     18  C   UNL     1       6.580   4.858  13.915  0.00  0.00    +0.000 C 
ATOM     19  C   UNL     1       7.925   5.276  13.320  0.00  0.00    +0.000 C 
ATOM     20  C   UNL     1       6.090   3.601  13.191  0.00  0.00    +0.000 C 
ENDBRANCH  17  18
ENDBRANCH  11  17
ENDBRANCH   1  14
BRANCH   6  21
ATOM     21  C   UNL     1       0.830  10.495  20.891  0.00  0.00    +0.000 C 
ATOM     22  C   UNL     1       1.261  11.913  20.516  0.00  0.00    +0.000 C 
ATOM     23  C   UNL     1      -0.692  10.374  20.951  0.00  0.00    +0.000 C 
ENDBRANCH   6  21
BRANCH   1  24
ATOM     24  O   UNL     1       3.099   5.680  20.381  0.00  0.00    +0.000 OA
ATOM     25  H   UNL     1       3.116   4.741  20.130  0.00  0.00    +0.000 HD
ENDBRANCH   1  24
TORSDOF 6
ENDMDL
MODEL 7
REMARK VINA RESULT:      -6.1      4.053      6.613
REMARK  Name = 
REMARK  11 active torsions:
REMARK  status: ('A' for Active; 'I' for Inactive)
REMARK    1  A    between atoms: C_1  and  O_2
REMARK    2  A    between atoms: O_2  and  C_3
REMARK    3  A    between atoms: C_5  and  O_6
REMARK    4  A    between atoms: O_6  and  C_7
REMARK    5  A    between atoms: C_7  and  C_8
REMARK    6  A    between atoms: C_7  and  C_9
REMARK    7  A    between atoms: C_12  and  C_13
REMARK    8  A    between atoms: C_13  and  O_14
REMARK    9  A    between atoms: N_19  and  C_20
REMARK   10  A    between atoms: C_20  and  C_21
REMARK   11  A    between atoms: C_20  and  C_22
REMARK                            x       y       z     vdW  Elec       q    Type
REMARK                         _______ _______ _______ _____ _____    ______ ____
ROOT
ATOM      1  C   UNL     1       5.567   4.834  17.797  0.00  0.00    +0.000 C 
ATOM      2  C   UNL     1       4.347   4.719  18.342  0.00  0.00    +0.000 C 
ATOM      3  C   UNL     1       3.592   5.691  19.159  0.00  0.00    +0.000 C 
ATOM      4  O   UNL     1       3.594   6.904  19.039  0.00  0.00    +0.000 OA
ATOM      5  C   UNL     1       2.824   4.914  20.196  0.00  0.00    +0.000 C 
ATOM      6  N   UNL     1       2.743   3.600  19.555  0.00  0.00    +0.000 N 
ATOM      7  C   UNL     1       3.575   3.442  18.441  0.00  0.00    +0.000 C 
ATOM      8  O   UNL     1       3.634   2.483  17.682  0.00  0.00    +0.000 OA
ENDROOT
BRANCH   1  14
ATOM      9  C   UNL     1       7.665   6.060  18.648  0.00  0.00    +0.000 A 
ATOM     10  C   UNL     1       8.415   7.244  18.708  0.00  0.00    +0.000 A 
ATOM     11  C   UNL     1       8.106   8.343  17.914  0.00  0.00    +0.000 A 
ATOM     12  C   UNL     1       7.051   8.255  17.021  0.00  0.00    +0.000 A 
ATOM     13  C   UNL     1       6.233   7.117  17.027  0.00  0.00    +0.000 A 
ATOM     14  C   UNL     1       6.486   6.013  17.871  0.00  0.00    +0.000 A 
BRANCH   9  16
ATOM     15  C   UNL     1       8.515   5.114  20.652  0.00  0.00    +0.000 C 
ATOM     16  O   UNL     1       8.056   4.922  19.315  0.00  0.00    +0.000 OA
ENDBRANCH   9  16
BRANCH  11  17
ATOM     17  O   UNL     1       8.927   9.416  18.098  0.00  0.00    +0.000 OA
BRANCH  17  18
ATOM     18  C   UNL     1       8.455  10.526  18.868  0.00  0.00    +0.000 C 
ATOM     19  C   UNL     1       9.280  10.747  20.137  0.00  0.00    +0.000 C 
ATOM     20  C   UNL     1       8.609  11.748  17.961  0.00  0.00    +0.000 C 
ENDBRANCH  17  18
ENDBRANCH  11  17
ENDBRANCH   1  14
BRANCH   6  21
ATOM     21  C   UNL     1       1.815   2.594  20.077  0.00  0.00    +0.000 C 
ATOM     22  C   UNL     1       1.485   2.819  21.553  0.00  0.00    +0.000 C 
ATOM     23  C   UNL     1       0.545   2.479  19.234  0.00  0.00    +0.000 C 
ENDBRANCH   6  21
BRANCH   1  24
ATOM     24  O   UNL     1       6.149   3.743  17.163  0.00  0.00    +0.000 OA
ATOM     25  H   UNL     1       5.746   3.671  16.282  0.00  0.00    +0.000 HD
ENDBRANCH   1  24
TORSDOF 6
ENDMDL
MODEL 8
REMARK VINA RESULT:      -6.1      1.559      2.131
REMARK  Name = 
REMARK  11 active torsions:
REMARK  status: ('A' for Active; 'I' for Inactive)
REMARK    1  A    between atoms: C_1  and  O_2
REMARK    2  A    between atoms: O_2  and  C_3
REMARK    3  A    between atoms: C_5  and  O_6
REMARK    4  A    between atoms: O_6  and  C_7
REMARK    5  A    between atoms: C_7  and  C_8
REMARK    6  A    between atoms: C_7  and  C_9
REMARK    7  A    between atoms: C_12  and  C_13
REMARK    8  A    between atoms: C_13  and  O_14
REMARK    9  A    between atoms: N_19  and  C_20
REMARK   10  A    between atoms: C_20  and  C_21
REMARK   11  A    between atoms: C_20  and  C_22
REMARK                            x       y       z     vdW  Elec       q    Type
REMARK                         _______ _______ _______ _____ _____    ______ ____
ROOT
ATOM      1  C   UNL     1       3.355   5.689  18.993  0.00  0.00    +0.000 C 
ATOM      2  C   UNL     1       2.506   6.724  19.085  0.00  0.00    +0.000 C 
ATOM      3  C   UNL     1       2.337   7.877  18.177  0.00  0.00    +0.000 C 
ATOM      4  O   UNL     1       2.448   7.875  16.964  0.00  0.00    +0.000 OA
ATOM      5  C   UNL     1       2.022   9.081  19.026  0.00  0.00    +0.000 C 
ATOM      6  N   UNL     1       1.486   8.440  20.229  0.00  0.00    +0.000 N 
ATOM      7  C   UNL     1       1.699   7.059  20.298  0.00  0.00    +0.000 C 
ATOM      8  O   UNL     1       1.281   6.279  21.145  0.00  0.00    +0.000 OA
ENDROOT
BRANCH   1  14
ATOM      9  C   UNL     1       4.329   4.317  17.045  0.00  0.00    +0.000 A 
ATOM     10  C   UNL     1       5.364   4.128  16.116  0.00  0.00    +0.000 A 
ATOM     11  C   UNL     1       6.357   5.083  15.929  0.00  0.00    +0.000 A 
ATOM     12  C   UNL     1       6.306   6.262  16.655  0.00  0.00    +0.000 A 
ATOM     13  C   UNL     1       5.338   6.415  17.657  0.00  0.00    +0.000 A 
ATOM     14  C   UNL     1       4.357   5.431  17.913  0.00  0.00    +0.000 A 
BRANCH   9  16
ATOM     15  C   UNL     1       3.534   2.193  17.745  0.00  0.00    +0.000 C 
ATOM     16  O   UNL     1       3.264   3.449  17.126  0.00  0.00    +0.000 OA
ENDBRANCH   9  16
BRANCH  11  17
ATOM     17  O   UNL     1       7.292   4.744  14.995  0.00  0.00    +0.000 OA
BRANCH  17  18
ATOM     18  C   UNL     1       7.043   5.056  13.622  0.00  0.00    +0.000 C 
ATOM     19  C   UNL     1       8.299   5.547  12.900  0.00  0.00    +0.000 C 
ATOM     20  C   UNL     1       6.586   3.745  12.980  0.00  0.00    +0.000 C 
ENDBRANCH  17  18
ENDBRANCH  11  17
ENDBRANCH   1  14
BRANCH   6  21
ATOM     21  C   UNL     1       0.766   9.244  21.221  0.00  0.00    +0.000 C 
ATOM     22  C   UNL     1       1.534   9.366  22.537  0.00  0.00    +0.000 C 
ATOM     23  C   UNL     1       0.365  10.615  20.680  0.00  0.00    +0.000 C 
ENDBRANCH   6  21
BRANCH   1  24
ATOM     24  O   UNL     1       3.438   4.767  20.030  0.00  0.00    +0.000 OA
ATOM     25  H   UNL     1       4.378   4.557  20.155  0.00  0.00    +0.000 HD
ENDBRANCH   1  24
TORSDOF 6
ENDMDL
MODEL 9
REMARK VINA RESULT:      -6.0      3.190      6.013
REMARK  Name = 
REMARK  11 active torsions:
REMARK  status: ('A' for Active; 'I' for Inactive)
REMARK    1  A    between atoms: C_1  and  O_2
REMARK    2  A    between atoms: O_2  and  C_3
REMARK    3  A    between atoms: C_5  and  O_6
REMARK    4  A    between atoms: O_6  and  C_7
REMARK    5  A    between atoms: C_7  and  C_8
REMARK    6  A    between atoms: C_7  and  C_9
REMARK    7  A    between atoms: C_12  and  C_13
REMARK    8  A    between atoms: C_13  and  O_14
REMARK    9  A    between atoms: N_19  and  C_20
REMARK   10  A    between atoms: C_20  and  C_21
REMARK   11  A    between atoms: C_20  and  C_22
REMARK                            x       y       z     vdW  Elec       q    Type
REMARK                         _______ _______ _______ _____ _____    ______ ____
ROOT
ATOM      1  C   UNL     1      -0.893  12.492  19.685  0.00  0.00    +0.000 C 
ATOM      2  C   UNL     1      -1.149  12.616  20.996  0.00  0.00    +0.000 C 
ATOM      3  C   UNL     1      -0.712  11.761  22.119  0.00  0.00    +0.000 C 
ATOM      4  O   UNL     1       0.353  11.179  22.223  0.00  0.00    +0.000 OA
ATOM      5  C   UNL     1      -1.839  11.713  23.117  0.00  0.00    +0.000 C 
ATOM      6  N   UNL     1      -2.558  12.944  22.786  0.00  0.00    +0.000 N 
ATOM      7  C   UNL     1      -2.167  13.541  21.582  0.00  0.00    +0.000 C 
ATOM      8  O   UNL     1      -2.544  14.612  21.121  0.00  0.00    +0.000 OA
ENDROOT
BRANCH   1  14
ATOM      9  C   UNL     1      -0.600  10.293  18.379  0.00  0.00    +0.000 A 
ATOM     10  C   UNL     1       0.266   9.323  17.851  0.00  0.00    +0.000 A 
ATOM     11  C   UNL     1       1.643   9.517  17.817  0.00  0.00    +0.000 A 
ATOM     12  C   UNL     1       2.169  10.709  18.287  0.00  0.00    +0.000 A 
ATOM     13  C   UNL     1       1.325  11.639  18.910  0.00  0.00    +0.000 A 
ATOM     14  C   UNL     1      -0.070  11.437  19.017  0.00  0.00    +0.000 A 
BRANCH   9  16
ATOM     15  C   UNL     1      -2.474   9.969  16.960  0.00  0.00    +0.000 C 
ATOM     16  O   UNL     1      -1.967  10.174  18.277  0.00  0.00    +0.000 OA
ENDBRANCH   9  16
BRANCH  11  17
ATOM     17  O   UNL     1       2.342   8.477  17.280  0.00  0.00    +0.000 OA
BRANCH  17  18
ATOM     18  C   UNL     1       3.216   7.721  18.122  0.00  0.00    +0.000 C 
ATOM     19  C   UNL     1       2.468   6.661  18.933  0.00  0.00    +0.000 C 
ATOM     20  C   UNL     1       4.192   7.020  17.176  0.00  0.00    +0.000 C 
ENDBRANCH  17  18
ENDBRANCH  11  17
ENDBRANCH   1  14
BRANCH   6  21
ATOM     21  C   UNL     1      -3.569  13.467  23.709  0.00  0.00    +0.000 C 
ATOM     22  C   UNL     1      -4.264  12.355  24.496  0.00  0.00    +0.000 C 
ATOM     23  C   UNL     1      -3.009  14.541  24.640  0.00  0.00    +0.000 C 
ENDBRANCH   6  21
BRANCH   1  24
ATOM     24  O   UNL     1      -1.509  13.344  18.775  0.00  0.00    +0.000 OA
ATOM     25  H   UNL     1      -2.406  13.519  19.105  0.00  0.00    +0.000 HD
ENDBRANCH   1  24
TORSDOF 6
ENDMDL
