MODEL 1
REMARK VINA RESULT:      -6.7      0.000      0.000
REMARK  Name = 
REMARK  5 active torsions:
REMARK  status: ('A' for Active; 'I' for Inactive)
REMARK    1  A    between atoms: C_1  and  C_2
REMARK    2  A    between atoms: C_2  and  C_4
REMARK    3  A    between atoms: C_4  and  O_5
REMARK    4  A    between atoms: O_5  and  C_6
REMARK    5  A    between atoms: N_9  and  C_10
REMARK                            x       y       z     vdW  Elec       q    Type
REMARK                         _______ _______ _______ _____ _____    ______ ____
ROOT
ATOM      1  C   UNL     1       5.747   5.876  17.480  0.00  0.00    +0.000 A 
ATOM      2  N   UNL     1       4.989   6.954  17.144  0.00  0.00    +0.000 NA
ATOM      3  C   UNL     1       3.810   6.622  17.619  0.00  0.00    +0.000 A 
ATOM      4  N   UNL     1       3.856   5.383  18.212  0.00  0.00    +0.000 N 
ATOM      5  N   UNL     1       5.128   4.917  18.163  0.00  0.00    +0.000 NA
ENDROOT
BRANCH   4   6
ATOM      6  C   UNL     1       2.797   4.634  18.784  0.00  0.00    +0.000 A 
ATOM      7  C   UNL     1       2.167   3.612  18.061  0.00  0.00    +0.000 A 
ATOM      8  C   UNL     1       1.140   2.870  18.648  0.00  0.00    +0.000 A 
ATOM      9  C   UNL     1       0.731   3.148  19.953  0.00  0.00    +0.000 A 
ATOM     10  C   UNL     1       1.352   4.164  20.675  0.00  0.00    +0.000 A 
ATOM     11  C   UNL     1       2.386   4.905  20.099  0.00  0.00    +0.000 A 
ENDBRANCH   4   6
BRANCH   1  12
ATOM     12  O   UNL     1       7.043   5.663  17.200  0.00  0.00    +0.000 OA
BRANCH  12  13
ATOM     13  C   UNL     1       7.219   4.462  16.469  0.00  0.00    +0.000 C 
BRANCH  13  15
ATOM     14  C   UNL     1       6.004   3.969  14.253  0.00  0.00    +0.000 C 
ATOM     15  C   UNL     1       7.042   4.768  14.996  0.00  0.00    +0.000 C 
ATOM     16  O   UNL     1       7.754   5.586  14.412  0.00  0.00    +0.000 OA
ENDBRANCH  13  15
ENDBRANCH  12  13
ENDBRANCH   1  12
TORSDOF 4
ENDMDL
MODEL 2
REMARK VINA RESULT:      -6.5      1.996      2.717
REMARK  Name = 
REMARK  5 active torsions:
REMARK  status: ('A' for Active; 'I' for Inactive)
REMARK    1  A    between atoms: C_1  and  C_2
REMARK    2  A    between atoms: C_2  and  C_4
REMARK    3  A    between atoms: C_4  and  O_5
REMARK    4  A    between atoms: O_5  and  C_6
REMARK    5  A    between atoms: N_9  and  C_10
REMARK                            x       y       z     vdW  Elec       q    Type
REMARK                         _______ _______ _______ _____ _____    ______ ____
ROOT
ATOM      1  C   UNL     1       6.287   4.458  17.819  0.00  0.00    +0.000 A 
ATOM      2  N   UNL     1       5.638   4.030  16.703  0.00  0.00    +0.000 NA
ATOM      3  C   UNL     1       4.460   3.697  17.178  0.00  0.00    +0.000 A 
ATOM      4  N   UNL     1       4.405   3.909  18.536  0.00  0.00    +0.000 N 
ATOM      5  N   UNL     1       5.581   4.448  18.945  0.00  0.00    +0.000 NA
ENDROOT
BRANCH   4   6
ATOM      6  C   UNL     1       3.350   3.621  19.437  0.00  0.00    +0.000 A 
ATOM      7  C   UNL     1       3.550   2.766  20.529  0.00  0.00    +0.000 A 
ATOM      8  C   UNL     1       2.504   2.511  21.419  0.00  0.00    +0.000 A 
ATOM      9  C   UNL     1       1.254   3.099  21.220  0.00  0.00    +0.000 A 
ATOM     10  C   UNL     1       1.049   3.947  20.134  0.00  0.00    +0.000 A 
ATOM     11  C   UNL     1       2.092   4.215  19.245  0.00  0.00    +0.000 A 
ENDBRANCH   4   6
BRANCH   1  12
ATOM     12  O   UNL     1       7.557   4.883  17.919  0.00  0.00    +0.000 OA
BRANCH  12  13
ATOM     13  C   UNL     1       7.633   6.108  18.627  0.00  0.00    +0.000 C 
BRANCH  13  15
ATOM     14  C   UNL     1       8.212   8.551  18.049  0.00  0.00    +0.000 C 
ATOM     15  C   UNL     1       7.593   7.244  17.625  0.00  0.00    +0.000 C 
ATOM     16  O   UNL     1       7.027   7.131  16.537  0.00  0.00    +0.000 OA
ENDBRANCH  13  15
ENDBRANCH  12  13
ENDBRANCH   1  12
TORSDOF 4
ENDMDL
MODEL 3
REMARK VINA RESULT:      -6.5      0.972      1.563
REMARK  Name = 
REMARK  5 active torsions:
REMARK  status: ('A' for Active; 'I' for Inactive)
REMARK    1  A    between atoms: C_1  and  C_2
REMARK    2  A    between atoms: C_2  and  C_4
REMARK    3  A    between atoms: C_4  and  O_5
REMARK    4  A    between atoms: O_5  and  C_6
REMARK    5  A    between atoms: N_9  and  C_10
REMARK                            x       y       z     vdW  Elec       q    Type
REMARK                         _______ _______ _______ _____ _____    ______ ____
ROOT
ATOM      1  C   UNL     1       4.556   6.721  17.156  0.00  0.00    +0.000 A 
ATOM      2  N   UNL     1       3.664   7.715  17.414  0.00  0.00    +0.000 NA
ATOM      3  C   UNL     1       2.801   7.116  18.202  0.00  0.00    +0.000 A 
ATOM      4  N   UNL     1       3.157   5.804  18.404  0.00  0.00    +0.000 N 
ATOM      5  N   UNL     1       4.325   5.560  17.760  0.00  0.00    +0.000 NA
ENDROOT
BRANCH   4   6
ATOM      6  C   UNL     1       2.468   4.800  19.129  0.00  0.00    +0.000 A 
ATOM      7  C   UNL     1       2.560   4.729  20.526  0.00  0.00    +0.000 A 
ATOM      8  C   UNL     1       1.857   3.745  21.224  0.00  0.00    +0.000 A 
ATOM      9  C   UNL     1       1.067   2.824  20.535  0.00  0.00    +0.000 A 
ATOM     10  C   UNL     1       0.974   2.887  19.147  0.00  0.00    +0.000 A 
ATOM     11  C   UNL     1       1.667   3.873  18.441  0.00  0.00    +0.000 A 
ENDBRANCH   4   6
BRANCH   1  12
ATOM     12  O   UNL     1       5.637   6.773  16.361  0.00  0.00    +0.000 OA
BRANCH  12  13
ATOM     13  C   UNL     1       6.464   5.637  16.546  0.00  0.00    +0.000 C 
BRANCH  13  15
ATOM     14  C   UNL     1       5.939   3.932  14.688  0.00  0.00    +0.000 C 
ATOM     15  C   UNL     1       6.801   5.063  15.185  0.00  0.00    +0.000 C 
ATOM     16  O   UNL     1       7.773   5.455  14.537  0.00  0.00    +0.000 OA
ENDBRANCH  13  15
ENDBRANCH  12  13
ENDBRANCH   1  12
TORSDOF 4
ENDMDL
MODEL 4
REMARK VINA RESULT:      -6.5      1.158      1.345
REMARK  Name = 
REMARK  5 active torsions:
REMARK  status: ('A' for Active; 'I' for Inactive)
REMARK    1  A    between atoms: C_1  and  C_2
REMARK    2  A    between atoms: C_2  and  C_4
REMARK    3  A    between atoms: C_4  and  O_5
REMARK    4  A    between atoms: O_5  and  C_6
REMARK    5  A    between atoms: N_9  and  C_10
REMARK                            x       y       z     vdW  Elec       q    Type
REMARK                         _______ _______ _______ _____ _____    ______ ____
ROOT
ATOM      1  C   UNL     1       4.563   6.677  17.013  0.00  0.00    +0.000 A 
ATOM      2  N   UNL     1       3.796   7.725  17.418  0.00  0.00    +0.000 NA
ATOM      3  C   UNL     1       2.876   7.132  18.143  0.00  0.00    +0.000 A 
ATOM      4  N   UNL     1       3.078   5.772  18.167  0.00  0.00    +0.000 N 
ATOM      5  N   UNL     1       4.204   5.481  17.468  0.00  0.00    +0.000 NA
ENDROOT
BRANCH   4   6
ATOM      6  C   UNL     1       2.283   4.768  18.773  0.00  0.00    +0.000 A 
ATOM      7  C   UNL     1       1.754   3.714  18.016  0.00  0.00    +0.000 A 
ATOM      8  C   UNL     1       0.991   2.721  18.635  0.00  0.00    +0.000 A 
ATOM      9  C   UNL     1       0.744   2.780  20.007  0.00  0.00    +0.000 A 
ATOM     10  C   UNL     1       1.264   3.827  20.764  0.00  0.00    +0.000 A 
ATOM     11  C   UNL     1       2.036   4.818  20.155  0.00  0.00    +0.000 A 
ENDBRANCH   4   6
BRANCH   1  12
ATOM     12  O   UNL     1       5.635   6.708  16.204  0.00  0.00    +0.000 OA
BRANCH  12  13
ATOM     13  C   UNL     1       6.810   6.321  16.897  0.00  0.00    +0.000 C 
BRANCH  13  15
ATOM     14  C   UNL     1       6.841   4.666  14.924  0.00  0.00    +0.000 C 
ATOM     15  C   UNL     1       7.296   5.008  16.318  0.00  0.00    +0.000 C 
ATOM     16  O   UNL     1       7.979   4.221  16.976  0.00  0.00    +0.000 OA
ENDBRANCH  13  15
ENDBRANCH  12  13
ENDBRANCH   1  12
TORSDOF 4
ENDMDL
MODEL 5
REMARK VINA RESULT:      -6.4      3.053      6.168
REMARK  Name = 
REMARK  5 active torsions:
REMARK  status: ('A' for Active; 'I' for Inactive)
REMARK    1  A    between atoms: C_1  and  C_2
REMARK    2  A    between atoms: C_2  and  C_4
REMARK    3  A    between atoms: C_4  and  O_5
REMARK    4  A    between atoms: O_5  and  C_6
REMARK    5  A    between atoms: N_9  and  C_10
REMARK                            x       y       z     vdW  Elec       q    Type
REMARK                         _______ _______ _______ _____ _____    ______ ____
ROOT
ATOM      1  C   UNL     1       4.059   2.925  18.914  0.00  0.00    +0.000 A 
ATOM      2  N   UNL     1       3.669   3.026  17.615  0.00  0.00    +0.000 NA
ATOM      3  C   UNL     1       4.436   3.996  17.171  0.00  0.00    +0.000 A 
ATOM      4  N   UNL     1       5.252   4.468  18.172  0.00  0.00    +0.000 N 
ATOM      5  N   UNL     1       5.039   3.738  19.295  0.00  0.00    +0.000 NA
ENDROOT
BRANCH   4   6
ATOM      6  C   UNL     1       6.173   5.543  18.131  0.00  0.00    +0.000 A 
ATOM      7  C   UNL     1       7.295   5.562  18.971  0.00  0.00    +0.000 A 
ATOM      8  C   UNL     1       8.204   6.620  18.902  0.00  0.00    +0.000 A 
ATOM      9  C   UNL     1       7.994   7.668  18.004  0.00  0.00    +0.000 A 
ATOM     10  C   UNL     1       6.879   7.656  17.170  0.00  0.00    +0.000 A 
ATOM     11  C   UNL     1       5.970   6.597  17.225  0.00  0.00    +0.000 A 
ENDBRANCH   4   6
BRANCH   1  12
ATOM     12  O   UNL     1       3.568   2.105  19.858  0.00  0.00    +0.000 OA
BRANCH  12  13
ATOM     13  C   UNL     1       2.158   2.215  19.949  0.00  0.00    +0.000 C 
BRANCH  13  15
ATOM     14  C   UNL     1       1.156   4.517  20.522  0.00  0.00    +0.000 C 
ATOM     15  C   UNL     1       1.825   3.255  20.999  0.00  0.00    +0.000 C 
ATOM     16  O   UNL     1       2.142   3.110  22.181  0.00  0.00    +0.000 OA
ENDBRANCH  13  15
ENDBRANCH  12  13
ENDBRANCH   1  12
TORSDOF 4
ENDMDL
MODEL 6
REMARK VINA RESULT:      -6.4      1.466      2.206
REMARK  Name = 
REMARK  5 active torsions:
REMARK  status: ('A' for Active; 'I' for Inactive)
REMARK    1  A    between atoms: C_1  and  C_2
REMARK    2  A    between atoms: C_2  and  C_4
REMARK    3  A    between atoms: C_4  and  O_5
REMARK    4  A    between atoms: O_5  and  C_6
REMARK    5  A    between atoms: N_9  and  C_10
REMARK                            x       y       z     vdW  Elec       q    Type
REMARK                         _______ _______ _______ _____ _____    ______ ____
ROOT
ATOM      1  C   UNL     1       5.893   5.587  15.634  0.00  0.00    +0.000 A 
ATOM      2  N   UNL     1       5.921   6.819  16.211  0.00  0.00    +0.000 NA
ATOM      3  C   UNL     1       5.012   6.705  17.152  0.00  0.00    +0.000 A 
ATOM      4  N   UNL     1       4.449   5.450  17.136  0.00  0.00    +0.000 N 
ATOM      5  N   UNL     1       5.056   4.708  16.177  0.00  0.00    +0.000 NA
ENDROOT
BRANCH   4   6
ATOM      6  C   UNL     1       3.395   4.941  17.933  0.00  0.00    +0.000 A 
ATOM      7  C   UNL     1       3.079   5.525  19.168  0.00  0.00    +0.000 A 
ATOM      8  C   UNL     1       2.022   5.023  19.930  0.00  0.00    +0.000 A 
ATOM      9  C   UNL     1       1.283   3.932  19.471  0.00  0.00    +0.000 A 
ATOM     10  C   UNL     1       1.594   3.345  18.247  0.00  0.00    +0.000 A 
ATOM     11  C   UNL     1       2.643   3.847  17.474  0.00  0.00    +0.000 A 
ENDBRANCH   4   6
BRANCH   1  12
ATOM     12  O   UNL     1       6.604   5.157  14.580  0.00  0.00    +0.000 OA
BRANCH  12  13
ATOM     13  C   UNL     1       6.172   3.875  14.158  0.00  0.00    +0.000 C 
BRANCH  13  15
ATOM     14  C   UNL     1       5.190   3.125  11.899  0.00  0.00    +0.000 C 
ATOM     15  C   UNL     1       6.309   3.796  12.651  0.00  0.00    +0.000 C 
ATOM     16  O   UNL     1       7.316   4.201  12.068  0.00  0.00    +0.000 OA
ENDBRANCH  13  15
ENDBRANCH  12  13
ENDBRANCH   1  12
TORSDOF 4
ENDMDL
MODEL 7
REMARK VINA RESULT:      -6.4      1.608      1.921
REMARK  Name = 
REMARK  5 active torsions:
REMARK  status: ('A' for Active; 'I' for Inactive)
REMARK    1  A    between atoms: C_1  and  C_2
REMARK    2  A    between atoms: C_2  and  C_4
REMARK    3  A    between atoms: C_4  and  O_5
REMARK    4  A    between atoms: O_5  and  C_6
REMARK    5  A    between atoms: N_9  and  C_10
REMARK                            x       y       z     vdW  Elec       q    Type
REMARK                         _______ _______ _______ _____ _____    ______ ____
ROOT
ATOM      1  C   UNL     1       6.943   4.836  17.365  0.00  0.00    +0.000 A 
ATOM      2  N   UNL     1       7.521   5.430  18.443  0.00  0.00    +0.000 NA
ATOM      3  C   UNL     1       6.570   5.354  19.345  0.00  0.00    +0.000 A 
ATOM      4  N   UNL     1       5.454   4.742  18.824  0.00  0.00    +0.000 N 
ATOM      5  N   UNL     1       5.714   4.364  17.548  0.00  0.00    +0.000 NA
ENDROOT
BRANCH   4   6
ATOM      6  C   UNL     1       4.196   4.523  19.437  0.00  0.00    +0.000 A 
ATOM      7  C   UNL     1       3.798   3.237  19.825  0.00  0.00    +0.000 A 
ATOM      8  C   UNL     1       2.563   3.044  20.448  0.00  0.00    +0.000 A 
ATOM      9  C   UNL     1       1.716   4.128  20.678  0.00  0.00    +0.000 A 
ATOM     10  C   UNL     1       2.104   5.409  20.291  0.00  0.00    +0.000 A 
ATOM     11  C   UNL     1       3.341   5.612  19.677  0.00  0.00    +0.000 A 
ENDBRANCH   4   6
BRANCH   1  12
ATOM     12  O   UNL     1       7.464   4.674  16.137  0.00  0.00    +0.000 OA
BRANCH  12  13
ATOM     13  C   UNL     1       6.445   4.559  15.159  0.00  0.00    +0.000 C 
BRANCH  13  15
ATOM     14  C   UNL     1       6.590   3.829  12.693  0.00  0.00    +0.000 C 
ATOM     15  C   UNL     1       7.071   4.741  13.792  0.00  0.00    +0.000 C 
ATOM     16  O   UNL     1       7.977   5.552  13.594  0.00  0.00    +0.000 OA
ENDBRANCH  13  15
ENDBRANCH  12  13
ENDBRANCH   1  12
TORSDOF 4
ENDMDL
MODEL 8
REMARK VINA RESULT:      -6.3      1.738      2.479
REMARK  Name = 
REMARK  5 active torsions:
REMARK  status: ('A' for Active; 'I' for Inactive)
REMARK    1  A    between atoms: C_1  and  C_2
REMARK    2  A    between atoms: C_2  and  C_4
REMARK    3  A    between atoms: C_4  and  O_5
REMARK    4  A    between atoms: O_5  and  C_6
REMARK    5  A    between atoms: N_9  and  C_10
REMARK                            x       y       z     vdW  Elec       q    Type
REMARK                         _______ _______ _______ _____ _____    ______ ____
ROOT
ATOM      1  C   UNL     1       6.563   4.427  15.763  0.00  0.00    +0.000 A 
ATOM      2  N   UNL     1       7.386   4.663  16.820  0.00  0.00    +0.000 NA
ATOM      3  C   UNL     1       6.542   4.697  17.825  0.00  0.00    +0.000 A 
ATOM      4  N   UNL     1       5.254   4.496  17.387  0.00  0.00    +0.000 N 
ATOM      5  N   UNL     1       5.274   4.275  16.050  0.00  0.00    +0.000 NA
ENDROOT
BRANCH   4   6
ATOM      6  C   UNL     1       4.050   4.523  18.133  0.00  0.00    +0.000 A 
ATOM      7  C   UNL     1       2.841   4.104  17.562  0.00  0.00    +0.000 A 
ATOM      8  C   UNL     1       1.667   4.117  18.319  0.00  0.00    +0.000 A 
ATOM      9  C   UNL     1       1.691   4.555  19.643  0.00  0.00    +0.000 A 
ATOM     10  C   UNL     1       2.889   4.976  20.215  0.00  0.00    +0.000 A 
ATOM     11  C   UNL     1       4.069   4.958  19.468  0.00  0.00    +0.000 A 
ENDBRANCH   4   6
BRANCH   1  12
ATOM     12  O   UNL     1       6.897   4.335  14.465  0.00  0.00    +0.000 OA
BRANCH  12  13
ATOM     13  C   UNL     1       5.836   3.791  13.699  0.00  0.00    +0.000 C 
BRANCH  13  15
ATOM     14  C   UNL     1       5.733   2.339  11.575  0.00  0.00    +0.000 C 
ATOM     15  C   UNL     1       6.351   3.503  12.304  0.00  0.00    +0.000 C 
ATOM     16  O   UNL     1       7.276   4.147  11.807  0.00  0.00    +0.000 OA
ENDBRANCH  13  15
ENDBRANCH  12  13
ENDBRANCH   1  12
TORSDOF 4
ENDMDL
MODEL 9
REMARK VINA RESULT:      -6.3      1.424      1.865
REMARK  Name = 
REMARK  5 active torsions:
REMARK  status: ('A' for Active; 'I' for Inactive)
REMARK    1  A    between atoms: C_1  and  C_2
REMARK    2  A    between atoms: C_2  and  C_4
REMARK    3  A    between atoms: C_4  and  O_5
REMARK    4  A    between atoms: O_5  and  C_6
REMARK    5  A    between atoms: N_9  and  C_10
REMARK                            x       y       z     vdW  Elec       q    Type
REMARK                         _______ _______ _______ _____ _____    ______ ____
ROOT
ATOM      1  C   UNL     1       6.316   4.508  17.738  0.00  0.00    +0.000 A 
ATOM      2  N   UNL     1       6.599   5.083  18.938  0.00  0.00    +0.000 NA
ATOM      3  C   UNL     1       5.496   4.865  19.617  0.00  0.00    +0.000 A 
ATOM      4  N   UNL     1       4.577   4.191  18.848  0.00  0.00    +0.000 N 
ATOM      5  N   UNL     1       5.129   3.918  17.639  0.00  0.00    +0.000 NA
ENDROOT
BRANCH   4   6
ATOM      6  C   UNL     1       3.248   3.822  19.173  0.00  0.00    +0.000 A 
ATOM      7  C   UNL     1       2.592   4.392  20.272  0.00  0.00    +0.000 A 
ATOM      8  C   UNL     1       1.274   4.032  20.565  0.00  0.00    +0.000 A 
ATOM      9  C   UNL     1       0.609   3.098  19.770  0.00  0.00    +0.000 A 
ATOM     10  C   UNL     1       1.257   2.526  18.678  0.00  0.00    +0.000 A 
ATOM     11  C   UNL     1       2.571   2.887  18.373  0.00  0.00    +0.000 A 
ENDBRANCH   4   6
BRANCH   1  12
ATOM     12  O   UNL     1       7.091   4.472  16.642  0.00  0.00    +0.000 OA
BRANCH  12  13
ATOM     13  C   UNL     1       6.727   5.489  15.723  0.00  0.00    +0.000 C 
BRANCH  13  15
ATOM     14  C   UNL     1       6.200   3.870  13.791  0.00  0.00    +0.000 C 
ATOM     15  C   UNL     1       7.038   5.003  14.323  0.00  0.00    +0.000 C 
ATOM     16  O   UNL     1       7.974   5.464  13.667  0.00  0.00    +0.000 OA
ENDBRANCH  13  15
ENDBRANCH  12  13
ENDBRANCH   1  12
TORSDOF 4
ENDMDL
