MODEL 1
REMARK VINA RESULT:      -8.6      0.000      0.000
REMARK  Name = 
REMARK  6 active torsions:
REMARK  status: ('A' for Active; 'I' for Inactive)
REMARK    1  A    between atoms: C_1  and  C_2
REMARK    2  A    between atoms: C_2  and  N_3
REMARK    3  A    between atoms: C_4  and  S_5
REMARK    4  A    between atoms: S_5  and  C_6
REMARK    5  A    between atoms: C_6  and  C_7
REMARK    6  A    between atoms: C_12  and  C_13
REMARK                            x       y       z     vdW  Elec       q    Type
REMARK                         _______ _______ _______ _____ _____    ______ ____
ROOT
ATOM      1  N   UNL     1       3.033   4.372  19.312  0.00  0.00    +0.000 N 
ATOM      2  C   UNL     1       3.532   4.738  18.057  0.00  0.00    +0.000 A 
ATOM      3  N   UNL     1       3.458   5.930  17.546  0.00  0.00    +0.000 NA
ATOM      4  C   UNL     1       2.800   6.841  18.311  0.00  0.00    +0.000 A 
ATOM      5  S   UNL     1       2.460   8.426  17.762  0.00  0.00    +0.000 S 
ATOM      6  C   UNL     1       1.649   8.824  19.210  0.00  0.00    +0.000 A 
ATOM      7  C   UNL     1       1.659   7.790  20.123  0.00  0.00    +0.000 A 
ATOM      8  C   UNL     1       2.302   6.635  19.576  0.00  0.00    +0.000 A 
ATOM      9  C   UNL     1       2.463   5.323  20.162  0.00  0.00    +0.000 A 
ATOM     10  O   UNL     1       2.106   5.085  21.313  0.00  0.00    +0.000 OA
ATOM     11  C   UNL     1       1.015   7.904  21.475  0.00  0.00    +0.000 C 
ATOM     12  C   UNL     1       0.734   9.368  21.848  0.00  0.00    +0.000 C 
ATOM     13  C   UNL     1       0.102  10.132  20.678  0.00  0.00    +0.000 C 
ATOM     14  C   UNL     1       1.033  10.173  19.453  0.00  0.00    +0.000 C 
ENDROOT
BRANCH   1  16
ATOM     15  C   UNL     1       1.838   2.213  19.593  0.00  0.00    +0.000 C 
ATOM     16  C   UNL     1       3.102   3.014  19.871  0.00  0.00    +0.000 C 
ENDBRANCH   1  16
BRANCH   2  17
ATOM     17  S   UNL     1       4.260   3.461  17.093  0.00  0.00    +0.000 S 
BRANCH  17  18
ATOM     18  C   UNL     1       5.605   4.299  16.227  0.00  0.00    +0.000 C 
BRANCH  18  19
ATOM     19  C   UNL     1       6.512   5.034  17.197  0.00  0.00    +0.000 C 
ATOM     20  O   UNL     1       6.999   4.442  18.155  0.00  0.00    +0.000 OA
ATOM     21  N   UNL     1       6.696   6.364  16.868  0.00  0.00    +0.000 N 
ATOM     22  C   UNL     1       7.492   7.231  17.591  0.00  0.00    +0.000 A 
ATOM     23  C   UNL     1       7.634   8.612  17.299  0.00  0.00    +0.000 A 
ATOM     24  C   UNL     1       8.455   9.093  18.290  0.00  0.00    +0.000 A 
ATOM     25  C   UNL     1       8.983  10.418  18.657  0.00  0.00    +0.000 C 
ATOM     26  O   UNL     1       8.821   8.066  19.097  0.00  0.00    +0.000 OA
ATOM     27  N   UNL     1       8.228   6.905  18.657  0.00  0.00    +0.000 NA
ATOM     28  H   UNL     1       6.142   6.765  16.120  0.00  0.00    +0.000 HD
ENDBRANCH  18  19
ENDBRANCH  17  18
ENDBRANCH   2  17
TORSDOF 4
ENDMDL
MODEL 2
REMARK VINA RESULT:      -7.9      2.320      3.525
REMARK  Name = 
REMARK  6 active torsions:
REMARK  status: ('A' for Active; 'I' for Inactive)
REMARK    1  A    between atoms: C_1  and  C_2
REMARK    2  A    between atoms: C_2  and  N_3
REMARK    3  A    between atoms: C_4  and  S_5
REMARK    4  A    between atoms: S_5  and  C_6
REMARK    5  A    between atoms: C_6  and  C_7
REMARK    6  A    between atoms: C_12  and  C_13
REMARK                            x       y       z     vdW  Elec       q    Type
REMARK                         _______ _______ _______ _____ _____    ______ ____
ROOT
ATOM      1  N   UNL     1       2.016   6.356  20.182  0.00  0.00    +0.000 N 
ATOM      2  C   UNL     1       2.734   6.466  18.986  0.00  0.00    +0.000 A 
ATOM      3  N   UNL     1       2.793   7.534  18.249  0.00  0.00    +0.000 NA
ATOM      4  C   UNL     1       2.049   8.580  18.699  0.00  0.00    +0.000 A 
ATOM      5  S   UNL     1       1.868  10.029  17.803  0.00  0.00    +0.000 S 
ATOM      6  C   UNL     1       0.839  10.707  18.985  0.00  0.00    +0.000 A 
ATOM      7  C   UNL     1       0.654   9.872  20.067  0.00  0.00    +0.000 A 
ATOM      8  C   UNL     1       1.337   8.630  19.873  0.00  0.00    +0.000 A 
ATOM      9  C   UNL     1       1.347   7.458  20.720  0.00  0.00    +0.000 A 
ATOM     10  O   UNL     1       0.790   7.452  21.816  0.00  0.00    +0.000 OA
ATOM     11  C   UNL     1      -0.205  10.252  21.239  0.00  0.00    +0.000 C 
ATOM     12  C   UNL     1      -0.489  11.761  21.268  0.00  0.00    +0.000 C 
ATOM     13  C   UNL     1      -0.884  12.284  19.881  0.00  0.00    +0.000 C 
ATOM     14  C   UNL     1       0.242  12.079  18.852  0.00  0.00    +0.000 C 
ENDROOT
BRANCH   1  16
ATOM     15  C   UNL     1       0.905   4.152  20.461  0.00  0.00    +0.000 C 
ATOM     16  C   UNL     1       1.938   5.134  20.996  0.00  0.00    +0.000 C 
ENDBRANCH   1  16
BRANCH   2  17
ATOM     17  S   UNL     1       3.566   5.022  18.428  0.00  0.00    +0.000 S 
BRANCH  17  18
ATOM     18  C   UNL     1       5.280   5.303  18.922  0.00  0.00    +0.000 C 
BRANCH  18  19
ATOM     19  C   UNL     1       6.162   5.583  17.719  0.00  0.00    +0.000 C 
ATOM     20  O   UNL     1       7.045   6.432  17.785  0.00  0.00    +0.000 OA
ATOM     21  N   UNL     1       5.851   4.800  16.623  0.00  0.00    +0.000 N 
ATOM     22  C   UNL     1       6.525   4.861  15.419  0.00  0.00    +0.000 A 
ATOM     23  C   UNL     1       6.171   4.110  14.269  0.00  0.00    +0.000 A 
ATOM     24  C   UNL     1       7.054   4.521  13.300  0.00  0.00    +0.000 A 
ATOM     25  C   UNL     1       7.251   4.222  11.872  0.00  0.00    +0.000 C 
ATOM     26  O   UNL     1       7.912   5.423  13.840  0.00  0.00    +0.000 OA
ATOM     27  N   UNL     1       7.588   5.629  15.161  0.00  0.00    +0.000 NA
ATOM     28  H   UNL     1       5.020   4.219  16.655  0.00  0.00    +0.000 HD
ENDBRANCH  18  19
ENDBRANCH  17  18
ENDBRANCH   2  17
TORSDOF 4
ENDMDL
MODEL 3
REMARK VINA RESULT:      -7.8      1.063      1.116
REMARK  Name = 
REMARK  6 active torsions:
REMARK  status: ('A' for Active; 'I' for Inactive)
REMARK    1  A    between atoms: C_1  and  C_2
REMARK    2  A    between atoms: C_2  and  N_3
REMARK    3  A    between atoms: C_4  and  S_5
REMARK    4  A    between atoms: S_5  and  C_6
REMARK    5  A    between atoms: C_6  and  C_7
REMARK    6  A    between atoms: C_12  and  C_13
REMARK                            x       y       z     vdW  Elec       q    Type
REMARK                         _______ _______ _______ _____ _____    ______ ____
ROOT
ATOM      1  N   UNL     1       3.447   4.482  18.933  0.00  0.00    +0.000 N 
ATOM      2  C   UNL     1       3.843   5.011  17.699  0.00  0.00    +0.000 A 
ATOM      3  N   UNL     1       3.613   6.226  17.302  0.00  0.00    +0.000 NA
ATOM      4  C   UNL     1       2.895   6.985  18.172  0.00  0.00    +0.000 A 
ATOM      5  S   UNL     1       2.356   8.563  17.783  0.00  0.00    +0.000 S 
ATOM      6  C   UNL     1       1.575   8.738  19.291  0.00  0.00    +0.000 A 
ATOM      7  C   UNL     1       1.742   7.637  20.104  0.00  0.00    +0.000 A 
ATOM      8  C   UNL     1       2.483   6.615  19.430  0.00  0.00    +0.000 A 
ATOM      9  C   UNL     1       2.816   5.284  19.886  0.00  0.00    +0.000 A 
ATOM     10  O   UNL     1       2.541   4.908  21.023  0.00  0.00    +0.000 OA
ATOM     11  C   UNL     1       1.153   7.558  21.483  0.00  0.00    +0.000 C 
ATOM     12  C   UNL     1       0.729   8.942  21.999  0.00  0.00    +0.000 C 
ATOM     13  C   UNL     1      -0.038   9.728  20.928  0.00  0.00    +0.000 C 
ATOM     14  C   UNL     1       0.825   9.981  19.679  0.00  0.00    +0.000 C 
ENDROOT
BRANCH   1  16
ATOM     15  C   UNL     1       2.496   2.194  19.098  0.00  0.00    +0.000 C 
ATOM     16  C   UNL     1       3.692   3.098  19.362  0.00  0.00    +0.000 C 
ENDBRANCH   1  16
BRANCH   2  17
ATOM     17  S   UNL     1       4.662   3.914  16.596  0.00  0.00    +0.000 S 
BRANCH  17  18
ATOM     18  C   UNL     1       6.412   4.234  16.905  0.00  0.00    +0.000 C 
BRANCH  18  19
ATOM     19  C   UNL     1       6.735   5.710  16.772  0.00  0.00    +0.000 C 
ATOM     20  O   UNL     1       6.382   6.332  15.775  0.00  0.00    +0.000 OA
ATOM     21  N   UNL     1       7.429   6.215  17.856  0.00  0.00    +0.000 N 
ATOM     22  C   UNL     1       7.820   7.535  17.972  0.00  0.00    +0.000 A 
ATOM     23  C   UNL     1       8.589   8.047  19.047  0.00  0.00    +0.000 A 
ATOM     24  C   UNL     1       8.795   9.368  18.730  0.00  0.00    +0.000 A 
ATOM     25  C   UNL     1       9.535  10.485  19.338  0.00  0.00    +0.000 C 
ATOM     26  O   UNL     1       8.155   9.647  17.566  0.00  0.00    +0.000 OA
ATOM     27  N   UNL     1       7.541   8.507  17.098  0.00  0.00    +0.000 NA
ATOM     28  H   UNL     1       7.768   5.573  18.563  0.00  0.00    +0.000 HD
ENDBRANCH  18  19
ENDBRANCH  17  18
ENDBRANCH   2  17
TORSDOF 4
ENDMDL
MODEL 4
REMARK VINA RESULT:      -7.4      2.277      3.247
REMARK  Name = 
REMARK  6 active torsions:
REMARK  status: ('A' for Active; 'I' for Inactive)
REMARK    1  A    between atoms: C_1  and  C_2
REMARK    2  A    between atoms: C_2  and  N_3
REMARK    3  A    between atoms: C_4  and  S_5
REMARK    4  A    between atoms: S_5  and  C_6
REMARK    5  A    between atoms: C_6  and  C_7
REMARK    6  A    between atoms: C_12  and  C_13
REMARK                            x       y       z     vdW  Elec       q    Type
REMARK                         _______ _______ _______ _____ _____    ______ ____
ROOT
ATOM      1  N   UNL     1       2.843   4.696  19.543  0.00  0.00    +0.000 N 
ATOM      2  C   UNL     1       3.434   5.018  18.315  0.00  0.00    +0.000 A 
ATOM      3  N   UNL     1       3.388   6.187  17.752  0.00  0.00    +0.000 NA
ATOM      4  C   UNL     1       2.667   7.120  18.428  0.00  0.00    +0.000 A 
ATOM      5  S   UNL     1       2.357   8.679  17.791  0.00  0.00    +0.000 S 
ATOM      6  C   UNL     1       1.435   9.125  19.157  0.00  0.00    +0.000 A 
ATOM      7  C   UNL     1       1.384   8.128  20.109  0.00  0.00    +0.000 A 
ATOM      8  C   UNL     1       2.076   6.960  19.659  0.00  0.00    +0.000 A 
ATOM      9  C   UNL     1       2.203   5.673  20.308  0.00  0.00    +0.000 A 
ATOM     10  O   UNL     1       1.761   5.478  21.438  0.00  0.00    +0.000 OA
ATOM     11  C   UNL     1       0.638   8.288  21.403  0.00  0.00    +0.000 C 
ATOM     12  C   UNL     1       0.318   9.762  21.694  0.00  0.00    +0.000 C 
ATOM     13  C   UNL     1      -0.230  10.473  20.450  0.00  0.00    +0.000 C 
ATOM     14  C   UNL     1       0.791  10.475  19.298  0.00  0.00    +0.000 C 
ENDROOT
BRANCH   1  16
ATOM     15  C   UNL     1       1.661   2.526  19.797  0.00  0.00    +0.000 C 
ATOM     16  C   UNL     1       2.881   3.362  20.160  0.00  0.00    +0.000 C 
ENDBRANCH   1  16
BRANCH   2  17
ATOM     17  S   UNL     1       4.243   3.711  17.462  0.00  0.00    +0.000 S 
BRANCH  17  18
ATOM     18  C   UNL     1       5.980   3.932  17.901  0.00  0.00    +0.000 C 
BRANCH  18  19
ATOM     19  C   UNL     1       6.747   4.622  16.789  0.00  0.00    +0.000 C 
ATOM     20  O   UNL     1       7.575   5.488  17.055  0.00  0.00    +0.000 OA
ATOM     21  N   UNL     1       6.405   4.167  15.529  0.00  0.00    +0.000 N 
ATOM     22  C   UNL     1       6.980   4.632  14.362  0.00  0.00    +0.000 A 
ATOM     23  C   UNL     1       6.590   4.220  13.063  0.00  0.00    +0.000 A 
ATOM     24  C   UNL     1       7.368   4.968  12.212  0.00  0.00    +0.000 A 
ATOM     25  C   UNL     1       7.474   5.115  10.751  0.00  0.00    +0.000 C 
ATOM     26  O   UNL     1       8.203   5.745  12.947  0.00  0.00    +0.000 OA
ATOM     27  N   UNL     1       7.968   5.530  14.286  0.00  0.00    +0.000 NA
ATOM     28  H   UNL     1       5.620   3.534  15.433  0.00  0.00    +0.000 HD
ENDBRANCH  18  19
ENDBRANCH  17  18
ENDBRANCH   2  17
TORSDOF 4
ENDMDL
MODEL 5
REMARK VINA RESULT:      -7.2      1.082      1.104
REMARK  Name = 
REMARK  6 active torsions:
REMARK  status: ('A' for Active; 'I' for Inactive)
REMARK    1  A    between atoms: C_1  and  C_2
REMARK    2  A    between atoms: C_2  and  N_3
REMARK    3  A    between atoms: C_4  and  S_5
REMARK    4  A    between atoms: S_5  and  C_6
REMARK    5  A    between atoms: C_6  and  C_7
REMARK    6  A    between atoms: C_12  and  C_13
REMARK                            x       y       z     vdW  Elec       q    Type
REMARK                         _______ _______ _______ _____ _____    ______ ____
ROOT
ATOM      1  N   UNL     1       3.818   5.061  18.412  0.00  0.00    +0.000 N 
ATOM      2  C   UNL     1       4.270   5.819  17.326  0.00  0.00    +0.000 A 
ATOM      3  N   UNL     1       3.965   7.062  17.109  0.00  0.00    +0.000 NA
ATOM      4  C   UNL     1       3.106   7.607  18.012  0.00  0.00    +0.000 A 
ATOM      5  S   UNL     1       2.460   9.182  17.829  0.00  0.00    +0.000 S 
ATOM      6  C   UNL     1       1.538   9.040  19.258  0.00  0.00    +0.000 A 
ATOM      7  C   UNL     1       1.734   7.833  19.896  0.00  0.00    +0.000 A 
ATOM      8  C   UNL     1       2.622   6.999  19.145  0.00  0.00    +0.000 A 
ATOM      9  C   UNL     1       3.034   5.640  19.414  0.00  0.00    +0.000 A 
ATOM     10  O   UNL     1       2.697   5.057  20.442  0.00  0.00    +0.000 OA
ATOM     11  C   UNL     1       1.036   7.478  21.178  0.00  0.00    +0.000 C 
ATOM     12  C   UNL     1       0.444   8.718  21.864  0.00  0.00    +0.000 C 
ATOM     13  C   UNL     1      -0.296   9.613  20.861  0.00  0.00    +0.000 C 
ATOM     14  C   UNL     1       0.646  10.138  19.763  0.00  0.00    +0.000 C 
ENDROOT
BRANCH   1  16
ATOM     15  C   UNL     1       3.123   2.709  18.020  0.00  0.00    +0.000 C 
ATOM     16  C   UNL     1       4.151   3.646  18.637  0.00  0.00    +0.000 C 
ENDBRANCH   1  16
BRANCH   2  17
ATOM     17  S   UNL     1       5.280   4.990  16.151  0.00  0.00    +0.000 S 
BRANCH  17  18
ATOM     18  C   UNL     1       6.603   4.281  17.155  0.00  0.00    +0.000 C 
BRANCH  18  19
ATOM     19  C   UNL     1       7.321   5.352  17.955  0.00  0.00    +0.000 C 
ATOM     20  O   UNL     1       7.840   5.073  19.031  0.00  0.00    +0.000 OA
ATOM     21  N   UNL     1       7.309   6.590  17.340  0.00  0.00    +0.000 N 
ATOM     22  C   UNL     1       7.913   7.715  17.868  0.00  0.00    +0.000 A 
ATOM     23  C   UNL     1       7.848   9.003  17.278  0.00  0.00    +0.000 A 
ATOM     24  C   UNL     1       8.522   9.820  18.154  0.00  0.00    +0.000 A 
ATOM     25  C   UNL     1       8.809  11.262  18.227  0.00  0.00    +0.000 C 
ATOM     26  O   UNL     1       9.001   9.070  19.178  0.00  0.00    +0.000 OA
ATOM     27  N   UNL     1       8.628   7.757  18.996  0.00  0.00    +0.000 NA
ATOM     28  H   UNL     1       6.743   6.719  16.510  0.00  0.00    +0.000 HD
ENDBRANCH  18  19
ENDBRANCH  17  18
ENDBRANCH   2  17
TORSDOF 4
ENDMDL
MODEL 6
REMARK VINA RESULT:      -7.1      2.422      4.151
REMARK  Name = 
REMARK  6 active torsions:
REMARK  status: ('A' for Active; 'I' for Inactive)
REMARK    1  A    between atoms: C_1  and  C_2
REMARK    2  A    between atoms: C_2  and  N_3
REMARK    3  A    between atoms: C_4  and  S_5
REMARK    4  A    between atoms: S_5  and  C_6
REMARK    5  A    between atoms: C_6  and  C_7
REMARK    6  A    between atoms: C_12  and  C_13
REMARK                            x       y       z     vdW  Elec       q    Type
REMARK                         _______ _______ _______ _____ _____    ______ ____
ROOT
ATOM      1  N   UNL     1       2.436   6.403  19.751  0.00  0.00    +0.000 N 
ATOM      2  C   UNL     1       3.094   6.753  18.566  0.00  0.00    +0.000 A 
ATOM      3  N   UNL     1       2.978   7.896  17.961  0.00  0.00    +0.000 NA
ATOM      4  C   UNL     1       2.108   8.765  18.541  0.00  0.00    +0.000 A 
ATOM      5  S   UNL     1       1.695  10.264  17.825  0.00  0.00    +0.000 S 
ATOM      6  C   UNL     1       0.617  10.646  19.092  0.00  0.00    +0.000 A 
ATOM      7  C   UNL     1       0.586   9.675  20.071  0.00  0.00    +0.000 A 
ATOM      8  C   UNL     1       1.432   8.575  19.722  0.00  0.00    +0.000 A 
ATOM      9  C   UNL     1       1.634   7.327  20.425  0.00  0.00    +0.000 A 
ATOM     10  O   UNL     1       1.117   7.115  21.519  0.00  0.00    +0.000 OA
ATOM     11  C   UNL     1      -0.282   9.790  21.291  0.00  0.00    +0.000 C 
ATOM     12  C   UNL     1      -0.777  11.229  21.502  0.00  0.00    +0.000 C 
ATOM     13  C   UNL     1      -1.284  11.844  20.192  0.00  0.00    +0.000 C 
ATOM     14  C   UNL     1      -0.172  11.924  19.131  0.00  0.00    +0.000 C 
ENDROOT
BRANCH   1  16
ATOM     15  C   UNL     1       1.453   4.135  19.998  0.00  0.00    +0.000 C 
ATOM     16  C   UNL     1       2.557   5.097  20.416  0.00  0.00    +0.000 C 
ENDBRANCH   1  16
BRANCH   2  17
ATOM     17  S   UNL     1       4.105   5.517  17.831  0.00  0.00    +0.000 S 
BRANCH  17  18
ATOM     18  C   UNL     1       5.666   6.373  17.528  0.00  0.00    +0.000 C 
BRANCH  18  19
ATOM     19  C   UNL     1       6.327   5.880  16.255  0.00  0.00    +0.000 C 
ATOM     20  O   UNL     1       7.458   6.256  15.961  0.00  0.00    +0.000 OA
ATOM     21  N   UNL     1       5.533   5.011  15.531  0.00  0.00    +0.000 N 
ATOM     22  C   UNL     1       5.925   4.417  14.346  0.00  0.00    +0.000 A 
ATOM     23  C   UNL     1       5.092   3.578  13.563  0.00  0.00    +0.000 A 
ATOM     24  C   UNL     1       5.852   3.267  12.461  0.00  0.00    +0.000 A 
ATOM     25  C   UNL     1       5.632   2.499  11.224  0.00  0.00    +0.000 C 
ATOM     26  O   UNL     1       7.074   3.840  12.591  0.00  0.00    +0.000 OA
ATOM     27  N   UNL     1       7.123   4.550  13.769  0.00  0.00    +0.000 NA
ATOM     28  H   UNL     1       4.570   4.873  15.817  0.00  0.00    +0.000 HD
ENDBRANCH  18  19
ENDBRANCH  17  18
ENDBRANCH   2  17
TORSDOF 4
ENDMDL
MODEL 7
REMARK VINA RESULT:      -7.0      2.554      4.299
REMARK  Name = 
REMARK  6 active torsions:
REMARK  status: ('A' for Active; 'I' for Inactive)
REMARK    1  A    between atoms: C_1  and  C_2
REMARK    2  A    between atoms: C_2  and  N_3
REMARK    3  A    between atoms: C_4  and  S_5
REMARK    4  A    between atoms: S_5  and  C_6
REMARK    5  A    between atoms: C_6  and  C_7
REMARK    6  A    between atoms: C_12  and  C_13
REMARK                            x       y       z     vdW  Elec       q    Type
REMARK                         _______ _______ _______ _____ _____    ______ ____
ROOT
ATOM      1  N   UNL     1       1.994   7.602  19.923  0.00  0.00    +0.000 N 
ATOM      2  C   UNL     1       2.182   8.049  18.610  0.00  0.00    +0.000 A 
ATOM      3  N   UNL     1       1.714   9.160  18.128  0.00  0.00    +0.000 NA
ATOM      4  C   UNL     1       0.958   9.886  18.994  0.00  0.00    +0.000 A 
ATOM      5  S   UNL     1       0.125  11.304  18.519  0.00  0.00    +0.000 S 
ATOM      6  C   UNL     1      -0.536  11.517  20.078  0.00  0.00    +0.000 A 
ATOM      7  C   UNL     1      -0.112  10.553  20.969  0.00  0.00    +0.000 A 
ATOM      8  C   UNL     1       0.729   9.595  20.318  0.00  0.00    +0.000 A 
ATOM      9  C   UNL     1       1.323   8.393  20.859  0.00  0.00    +0.000 A 
ATOM     10  O   UNL     1       1.219   8.105  22.049  0.00  0.00    +0.000 OA
ATOM     11  C   UNL     1      -0.553  10.533  22.404  0.00  0.00    +0.000 C 
ATOM     12  C   UNL     1      -1.158  11.879  22.830  0.00  0.00    +0.000 C 
ATOM     13  C   UNL     1      -2.140  12.410  21.778  0.00  0.00    +0.000 C 
ATOM     14  C   UNL     1      -1.449  12.659  20.426  0.00  0.00    +0.000 C 
ENDROOT
BRANCH   1  16
ATOM     15  C   UNL     1       1.478   5.214  20.367  0.00  0.00    +0.000 C 
ATOM     16  C   UNL     1       2.509   6.331  20.452  0.00  0.00    +0.000 C 
ENDBRANCH   1  16
BRANCH   2  17
ATOM     17  S   UNL     1       3.074   6.983  17.534  0.00  0.00    +0.000 S 
BRANCH  17  18
ATOM     18  C   UNL     1       4.794   7.227  18.027  0.00  0.00    +0.000 C 
BRANCH  18  19
ATOM     19  C   UNL     1       5.748   6.808  16.924  0.00  0.00    +0.000 C 
ATOM     20  O   UNL     1       6.838   7.360  16.809  0.00  0.00    +0.000 OA
ATOM     21  N   UNL     1       5.250   5.792  16.130  0.00  0.00    +0.000 N 
ATOM     22  C   UNL     1       5.943   5.233  15.073  0.00  0.00    +0.000 A 
ATOM     23  C   UNL     1       5.414   4.237  14.213  0.00  0.00    +0.000 A 
ATOM     24  C   UNL     1       6.403   4.021  13.284  0.00  0.00    +0.000 A 
ATOM     25  C   UNL     1       6.540   3.184  12.081  0.00  0.00    +0.000 C 
ATOM     26  O   UNL     1       7.472   4.798  13.588  0.00  0.00    +0.000 OA
ATOM     27  N   UNL     1       7.189   5.547  14.708  0.00  0.00    +0.000 NA
ATOM     28  H   UNL     1       4.286   5.503  16.252  0.00  0.00    +0.000 HD
ENDBRANCH  18  19
ENDBRANCH  17  18
ENDBRANCH   2  17
TORSDOF 4
ENDMDL
MODEL 8
REMARK VINA RESULT:      -7.0      3.172      5.066
REMARK  Name = 
REMARK  6 active torsions:
REMARK  status: ('A' for Active; 'I' for Inactive)
REMARK    1  A    between atoms: C_1  and  C_2
REMARK    2  A    between atoms: C_2  and  N_3
REMARK    3  A    between atoms: C_4  and  S_5
REMARK    4  A    between atoms: S_5  and  C_6
REMARK    5  A    between atoms: C_6  and  C_7
REMARK    6  A    between atoms: C_12  and  C_13
REMARK                            x       y       z     vdW  Elec       q    Type
REMARK                         _______ _______ _______ _____ _____    ______ ____
ROOT
ATOM      1  N   UNL     1       5.986   4.688  16.645  0.00  0.00    +0.000 N 
ATOM      2  C   UNL     1       6.167   5.886  17.346  0.00  0.00    +0.000 A 
ATOM      3  N   UNL     1       5.411   6.301  18.317  0.00  0.00    +0.000 NA
ATOM      4  C   UNL     1       4.357   5.493  18.607  0.00  0.00    +0.000 A 
ATOM      5  S   UNL     1       3.157   5.924  19.750  0.00  0.00    +0.000 S 
ATOM      6  C   UNL     1       2.283   4.485  19.472  0.00  0.00    +0.000 A 
ATOM      7  C   UNL     1       2.899   3.660  18.554  0.00  0.00    +0.000 A 
ATOM      8  C   UNL     1       4.085   4.272  18.037  0.00  0.00    +0.000 A 
ATOM      9  C   UNL     1       4.981   3.789  17.010  0.00  0.00    +0.000 A 
ATOM     10  O   UNL     1       4.840   2.678  16.505  0.00  0.00    +0.000 OA
ATOM     11  C   UNL     1       2.323   2.333  18.151  0.00  0.00    +0.000 C 
ATOM     12  C   UNL     1       1.253   1.854  19.143  0.00  0.00    +0.000 C 
ATOM     13  C   UNL     1       0.281   2.984  19.507  0.00  0.00    +0.000 C 
ATOM     14  C   UNL     1       1.004   4.159  20.190  0.00  0.00    +0.000 C 
ENDROOT
BRANCH   1  16
ATOM     15  C   UNL     1       6.199   4.524  14.176  0.00  0.00    +0.000 C 
ATOM     16  C   UNL     1       6.833   4.240  15.530  0.00  0.00    +0.000 C 
ENDBRANCH   1  16
BRANCH   2  17
ATOM     17  S   UNL     1       7.487   6.918  16.817  0.00  0.00    +0.000 S 
BRANCH  17  18
ATOM     18  C   UNL     1       8.112   7.628  18.355  0.00  0.00    +0.000 C 
BRANCH  18  19
ATOM     19  C   UNL     1       8.304   9.128  18.232  0.00  0.00    +0.000 C 
ATOM     20  O   UNL     1       7.739   9.752  17.338  0.00  0.00    +0.000 OA
ATOM     21  N   UNL     1       9.142   9.650  19.200  0.00  0.00    +0.000 N 
ATOM     22  C   UNL     1       9.455  10.993  19.302  0.00  0.00    +0.000 A 
ATOM     23  C   UNL     1      10.364  11.527  20.249  0.00  0.00    +0.000 A 
ATOM     24  C   UNL     1      10.420  12.869  19.958  0.00  0.00    +0.000 A 
ATOM     25  C   UNL     1      11.177  14.020  20.477  0.00  0.00    +0.000 C 
ATOM     26  O   UNL     1       9.567  13.134  18.936  0.00  0.00    +0.000 OA
ATOM     27  N   UNL     1       8.960  11.967  18.533  0.00  0.00    +0.000 NA
ATOM     28  H   UNL     1       9.643   9.014  19.809  0.00  0.00    +0.000 HD
ENDBRANCH  18  19
ENDBRANCH  17  18
ENDBRANCH   2  17
TORSDOF 4
ENDMDL
MODEL 9
REMARK VINA RESULT:      -6.9      3.459      7.375
REMARK  Name = 
REMARK  6 active torsions:
REMARK  status: ('A' for Active; 'I' for Inactive)
REMARK    1  A    between atoms: C_1  and  C_2
REMARK    2  A    between atoms: C_2  and  N_3
REMARK    3  A    between atoms: C_4  and  S_5
REMARK    4  A    between atoms: S_5  and  C_6
REMARK    5  A    between atoms: C_6  and  C_7
REMARK    6  A    between atoms: C_12  and  C_13
REMARK                            x       y       z     vdW  Elec       q    Type
REMARK                         _______ _______ _______ _____ _____    ______ ____
ROOT
ATOM      1  N   UNL     1       2.007   5.004  19.712  0.00  0.00    +0.000 N 
ATOM      2  C   UNL     1       1.970   6.402  19.786  0.00  0.00    +0.000 A 
ATOM      3  N   UNL     1       2.650   7.205  19.025  0.00  0.00    +0.000 NA
ATOM      4  C   UNL     1       3.473   6.590  18.134  0.00  0.00    +0.000 A 
ATOM      5  S   UNL     1       4.563   7.459  17.141  0.00  0.00    +0.000 S 
ATOM      6  C   UNL     1       5.166   6.025  16.437  0.00  0.00    +0.000 A 
ATOM      7  C   UNL     1       4.533   4.895  16.913  0.00  0.00    +0.000 A 
ATOM      8  C   UNL     1       3.576   5.236  17.920  0.00  0.00    +0.000 A 
ATOM      9  C   UNL     1       2.753   4.359  18.723  0.00  0.00    +0.000 A 
ATOM     10  O   UNL     1       2.741   3.144  18.541  0.00  0.00    +0.000 OA
ATOM     11  C   UNL     1       4.886   3.516  16.438  0.00  0.00    +0.000 C 
ATOM     12  C   UNL     1       5.692   3.554  15.130  0.00  0.00    +0.000 C 
ATOM     13  C   UNL     1       6.807   4.606  15.191  0.00  0.00    +0.000 C 
ATOM     14  C   UNL     1       6.243   6.024  15.389  0.00  0.00    +0.000 C 
ENDROOT
BRANCH   1  16
ATOM     15  C   UNL     1       2.118   3.530  21.708  0.00  0.00    +0.000 C 
ATOM     16  C   UNL     1       1.251   4.104  20.595  0.00  0.00    +0.000 C 
ENDBRANCH   1  16
BRANCH   2  17
ATOM     17  S   UNL     1       0.966   7.099  21.049  0.00  0.00    +0.000 S 
BRANCH  17  18
ATOM     18  C   UNL     1       1.503   8.822  21.113  0.00  0.00    +0.000 C 
BRANCH  18  19
ATOM     19  C   UNL     1       0.414   9.757  20.618  0.00  0.00    +0.000 C 
ATOM     20  O   UNL     1      -0.037  10.625  21.360  0.00  0.00    +0.000 OA
ATOM     21  N   UNL     1       0.036   9.509  19.313  0.00  0.00    +0.000 N 
ATOM     22  C   UNL     1      -0.924  10.239  18.638  0.00  0.00    +0.000 A 
ATOM     23  C   UNL     1      -1.366   9.950  17.323  0.00  0.00    +0.000 A 
ATOM     24  C   UNL     1      -2.353  10.874  17.077  0.00  0.00    +0.000 A 
ATOM     25  C   UNL     1      -3.278  11.143  15.964  0.00  0.00    +0.000 C 
ATOM     26  O   UNL     1      -2.468  11.693  18.152  0.00  0.00    +0.000 OA
ATOM     27  N   UNL     1      -1.572  11.303  19.122  0.00  0.00    +0.000 NA
ATOM     28  H   UNL     1       0.398   8.685  18.845  0.00  0.00    +0.000 HD
ENDBRANCH  18  19
ENDBRANCH  17  18
ENDBRANCH   2  17
TORSDOF 4
ENDMDL
