MODEL 1
REMARK VINA RESULT:      -8.6      0.000      0.000
REMARK  Name = 
REMARK  6 active torsions:
REMARK  status: ('A' for Active; 'I' for Inactive)
REMARK    1  A    between atoms: C_2  and  C_3
REMARK    2  A    between atoms: C_2  and  C_25
REMARK    3  A    between atoms: C_3  and  S_4
REMARK    4  A    between atoms: S_4  and  C_5
REMARK    5  A    between atoms: N_15  and  N_16
REMARK    6  A    between atoms: C_17  and  C_19
REMARK                            x       y       z     vdW  Elec       q    Type
REMARK                         _______ _______ _______ _____ _____    ______ ____
ROOT
ATOM      1  C   UNL     1       3.582   5.749  18.177  0.00  0.00    +0.000 A 
ATOM      2  N   UNL     1       2.910   5.749  19.281  0.00  0.00    +0.000 NA
ATOM      3  C   UNL     1       2.720   4.543  19.953  0.00  0.00    +0.000 A 
ATOM      4  C   UNL     1       2.122   4.579  21.215  0.00  0.00    +0.000 A 
ATOM      5  C   UNL     1       1.871   3.399  21.915  0.00  0.00    +0.000 A 
ATOM      6  C   UNL     1       2.208   2.170  21.349  0.00  0.00    +0.000 A 
ATOM      7  C   UNL     1       2.819   2.122  20.093  0.00  0.00    +0.000 A 
ATOM      8  C   UNL     1       3.096   3.315  19.408  0.00  0.00    +0.000 A 
ATOM      9  C   UNL     1       3.755   3.327  18.088  0.00  0.00    +0.000 A 
ATOM     10  O   UNL     1       3.957   2.278  17.475  0.00  0.00    +0.000 OA
ATOM     11  N   UNL     1       4.063   4.591  17.570  0.00  0.00    +0.000 N 
ENDROOT
BRANCH  11  12
ATOM     12  N   UNL     1       4.534   4.559  16.213  0.00  0.00    +0.000 N 
ATOM     13  C   UNL     1       5.889   4.489  15.946  0.00  0.00    +0.000 C 
ATOM     14  O   UNL     1       6.761   4.499  16.811  0.00  0.00    +0.000 OA
ATOM     15  H   UNL     1       3.918   4.001  15.623  0.00  0.00    +0.000 HD
BRANCH  13  16
ATOM     16  C   UNL     1       6.292   4.427  14.503  0.00  0.00    +0.000 A 
ATOM     17  C   UNL     1       5.670   3.607  13.551  0.00  0.00    +0.000 A 
ATOM     18  C   UNL     1       6.167   3.545  12.243  0.00  0.00    +0.000 A 
ATOM     19  C   UNL     1       7.267   4.314  11.868  0.00  0.00    +0.000 A 
ATOM     20  C   UNL     1       7.856   5.175  12.790  0.00  0.00    +0.000 A 
ATOM     21  C   UNL     1       7.371   5.232  14.099  0.00  0.00    +0.000 A 
ENDBRANCH  13  16
ENDBRANCH  11  12
BRANCH   1  22
ATOM     22  S   UNL     1       3.829   7.318  17.430  0.00  0.00    +0.000 S 
BRANCH  22  23
ATOM     23  C   UNL     1       2.114   7.920  17.410  0.00  0.00    +0.000 C 
BRANCH  23  25
ATOM     24  O   UNL     1       2.429  10.290  17.661  0.00  0.00    +0.000 OA
ATOM     25  C   UNL     1       1.933   9.257  18.114  0.00  0.00    +0.000 C 
BRANCH  25  26
ATOM     26  C   UNL     1       1.204   9.341  19.420  0.00  0.00    +0.000 A 
ATOM     27  C   UNL     1       0.236  10.350  19.565  0.00  0.00    +0.000 A 
ATOM     28  C   UNL     1      -0.460  10.505  20.765  0.00  0.00    +0.000 A 
ATOM     29  C   UNL     1      -0.194   9.657  21.836  0.00  0.00    +0.000 A 
ATOM     30  C   UNL     1       0.763   8.651  21.702  0.00  0.00    +0.000 A 
ATOM     31  C   UNL     1       1.458   8.488  20.498  0.00  0.00    +0.000 A 
ENDBRANCH  25  26
ENDBRANCH  23  25
ENDBRANCH  22  23
ENDBRANCH   1  22
TORSDOF 6
ENDMDL
MODEL 2
REMARK VINA RESULT:      -8.6      0.120      1.249
REMARK  Name = 
REMARK  6 active torsions:
REMARK  status: ('A' for Active; 'I' for Inactive)
REMARK    1  A    between atoms: C_2  and  C_3
REMARK    2  A    between atoms: C_2  and  C_25
REMARK    3  A    between atoms: C_3  and  S_4
REMARK    4  A    between atoms: S_4  and  C_5
REMARK    5  A    between atoms: N_15  and  N_16
REMARK    6  A    between atoms: C_17  and  C_19
REMARK                            x       y       z     vdW  Elec       q    Type
REMARK                         _______ _______ _______ _____ _____    ______ ____
ROOT
ATOM      1  C   UNL     1       3.586   5.793  18.169  0.00  0.00    +0.000 A 
ATOM      2  N   UNL     1       2.869   5.778  19.245  0.00  0.00    +0.000 NA
ATOM      3  C   UNL     1       2.685   4.568  19.913  0.00  0.00    +0.000 A 
ATOM      4  C   UNL     1       2.035   4.592  21.149  0.00  0.00    +0.000 A 
ATOM      5  C   UNL     1       1.787   3.407  21.842  0.00  0.00    +0.000 A 
ATOM      6  C   UNL     1       2.180   2.186  21.295  0.00  0.00    +0.000 A 
ATOM      7  C   UNL     1       2.843   2.152  20.065  0.00  0.00    +0.000 A 
ATOM      8  C   UNL     1       3.115   3.350  19.388  0.00  0.00    +0.000 A 
ATOM      9  C   UNL     1       3.828   3.377  18.095  0.00  0.00    +0.000 A 
ATOM     10  O   UNL     1       4.083   2.332  17.495  0.00  0.00    +0.000 OA
ATOM     11  N   UNL     1       4.123   4.647  17.586  0.00  0.00    +0.000 N 
ENDROOT
BRANCH  11  12
ATOM     12  N   UNL     1       4.649   4.625  16.250  0.00  0.00    +0.000 N 
ATOM     13  C   UNL     1       6.012   4.521  16.038  0.00  0.00    +0.000 C 
ATOM     14  O   UNL     1       6.847   4.492  16.939  0.00  0.00    +0.000 OA
ATOM     15  H   UNL     1       4.044   4.095  15.624  0.00  0.00    +0.000 HD
BRANCH  13  16
ATOM     16  C   UNL     1       6.474   4.471  14.612  0.00  0.00    +0.000 A 
ATOM     17  C   UNL     1       7.504   5.269  14.096  0.00  0.00    +0.000 A 
ATOM     18  C   UNL     1       7.813   5.222  12.730  0.00  0.00    +0.000 A 
ATOM     19  C   UNL     1       7.118   4.365  11.878  0.00  0.00    +0.000 A 
ATOM     20  C   UNL     1       6.133   3.528  12.392  0.00  0.00    +0.000 A 
ATOM     21  C   UNL     1       5.814   3.579  13.750  0.00  0.00    +0.000 A 
ENDBRANCH  13  16
ENDBRANCH  11  12
BRANCH   1  22
ATOM     22  S   UNL     1       3.821   7.367  17.427  0.00  0.00    +0.000 S 
BRANCH  22  23
ATOM     23  C   UNL     1       2.105   7.965  17.430  0.00  0.00    +0.000 C 
BRANCH  23  25
ATOM     24  O   UNL     1       2.467  10.335  17.619  0.00  0.00    +0.000 OA
ATOM     25  C   UNL     1       1.939   9.325  18.092  0.00  0.00    +0.000 C 
BRANCH  25  26
ATOM     26  C   UNL     1       1.186   9.464  19.378  0.00  0.00    +0.000 A 
ATOM     27  C   UNL     1       1.419   8.505  20.380  0.00  0.00    +0.000 A 
ATOM     28  C   UNL     1       0.730   8.556  21.593  0.00  0.00    +0.000 A 
ATOM     29  C   UNL     1      -0.204   9.563  21.818  0.00  0.00    +0.000 A 
ATOM     30  C   UNL     1      -0.442  10.520  20.833  0.00  0.00    +0.000 A 
ATOM     31  C   UNL     1       0.252  10.477  19.618  0.00  0.00    +0.000 A 
ENDBRANCH  25  26
ENDBRANCH  23  25
ENDBRANCH  22  23
ENDBRANCH   1  22
TORSDOF 6
ENDMDL
MODEL 3
REMARK VINA RESULT:      -8.0      3.209      4.278
REMARK  Name = 
REMARK  6 active torsions:
REMARK  status: ('A' for Active; 'I' for Inactive)
REMARK    1  A    between atoms: C_2  and  C_3
REMARK    2  A    between atoms: C_2  and  C_25
REMARK    3  A    between atoms: C_3  and  S_4
REMARK    4  A    between atoms: S_4  and  C_5
REMARK    5  A    between atoms: N_15  and  N_16
REMARK    6  A    between atoms: C_17  and  C_19
REMARK                            x       y       z     vdW  Elec       q    Type
REMARK                         _______ _______ _______ _____ _____    ______ ____
ROOT
ATOM      1  C   UNL     1       4.084   5.672  18.139  0.00  0.00    +0.000 A 
ATOM      2  N   UNL     1       3.439   5.755  19.256  0.00  0.00    +0.000 NA
ATOM      3  C   UNL     1       2.873   4.600  19.793  0.00  0.00    +0.000 A 
ATOM      4  C   UNL     1       2.309   4.675  21.069  0.00  0.00    +0.000 A 
ATOM      5  C   UNL     1       1.693   3.561  21.638  0.00  0.00    +0.000 A 
ATOM      6  C   UNL     1       1.627   2.363  20.927  0.00  0.00    +0.000 A 
ATOM      7  C   UNL     1       2.200   2.272  19.656  0.00  0.00    +0.000 A 
ATOM      8  C   UNL     1       2.844   3.388  19.102  0.00  0.00    +0.000 A 
ATOM      9  C   UNL     1       3.482   3.346  17.771  0.00  0.00    +0.000 A 
ATOM     10  O   UNL     1       3.345   2.366  17.038  0.00  0.00    +0.000 OA
ATOM     11  N   UNL     1       4.178   4.500  17.390  0.00  0.00    +0.000 N 
ENDROOT
BRANCH  11  12
ATOM     12  N   UNL     1       4.623   4.480  16.025  0.00  0.00    +0.000 N 
ATOM     13  C   UNL     1       5.958   4.274  15.729  0.00  0.00    +0.000 C 
ATOM     14  O   UNL     1       6.838   4.148  16.576  0.00  0.00    +0.000 OA
ATOM     15  H   UNL     1       3.941   4.022  15.422  0.00  0.00    +0.000 HD
BRANCH  13  16
ATOM     16  C   UNL     1       6.332   4.236  14.277  0.00  0.00    +0.000 A 
ATOM     17  C   UNL     1       5.722   3.396  13.334  0.00  0.00    +0.000 A 
ATOM     18  C   UNL     1       6.193   3.361  12.015  0.00  0.00    +0.000 A 
ATOM     19  C   UNL     1       7.253   4.176  11.621  0.00  0.00    +0.000 A 
ATOM     20  C   UNL     1       7.826   5.055  12.535  0.00  0.00    +0.000 A 
ATOM     21  C   UNL     1       7.368   5.086  13.854  0.00  0.00    +0.000 A 
ENDBRANCH  13  16
ENDBRANCH  11  12
BRANCH   1  22
ATOM     22  S   UNL     1       4.820   7.159  17.566  0.00  0.00    +0.000 S 
BRANCH  22  23
ATOM     23  C   UNL     1       6.465   6.994  18.322  0.00  0.00    +0.000 C 
BRANCH  23  25
ATOM     24  O   UNL     1       8.029   7.223  16.510  0.00  0.00    +0.000 OA
ATOM     25  C   UNL     1       7.563   7.706  17.544  0.00  0.00    +0.000 C 
BRANCH  25  26
ATOM     26  C   UNL     1       8.159   8.981  18.055  0.00  0.00    +0.000 A 
ATOM     27  C   UNL     1       7.880  10.163  17.346  0.00  0.00    +0.000 A 
ATOM     28  C   UNL     1       8.426  11.383  17.749  0.00  0.00    +0.000 A 
ATOM     29  C   UNL     1       9.262  11.436  18.861  0.00  0.00    +0.000 A 
ATOM     30  C   UNL     1       9.544  10.270  19.572  0.00  0.00    +0.000 A 
ATOM     31  C   UNL     1       8.992   9.046  19.176  0.00  0.00    +0.000 A 
ENDBRANCH  25  26
ENDBRANCH  23  25
ENDBRANCH  22  23
ENDBRANCH   1  22
TORSDOF 6
ENDMDL
MODEL 4
REMARK VINA RESULT:      -7.9      3.219      4.440
REMARK  Name = 
REMARK  6 active torsions:
REMARK  status: ('A' for Active; 'I' for Inactive)
REMARK    1  A    between atoms: C_2  and  C_3
REMARK    2  A    between atoms: C_2  and  C_25
REMARK    3  A    between atoms: C_3  and  S_4
REMARK    4  A    between atoms: S_4  and  C_5
REMARK    5  A    between atoms: N_15  and  N_16
REMARK    6  A    between atoms: C_17  and  C_19
REMARK                            x       y       z     vdW  Elec       q    Type
REMARK                         _______ _______ _______ _____ _____    ______ ____
ROOT
ATOM      1  C   UNL     1       4.076   5.733  18.101  0.00  0.00    +0.000 A 
ATOM      2  N   UNL     1       3.390   5.815  19.194  0.00  0.00    +0.000 NA
ATOM      3  C   UNL     1       2.836   4.652  19.728  0.00  0.00    +0.000 A 
ATOM      4  C   UNL     1       2.224   4.731  20.981  0.00  0.00    +0.000 A 
ATOM      5  C   UNL     1       1.618   3.609  21.546  0.00  0.00    +0.000 A 
ATOM      6  C   UNL     1       1.611   2.399  20.852  0.00  0.00    +0.000 A 
ATOM      7  C   UNL     1       2.231   2.305  19.603  0.00  0.00    +0.000 A 
ATOM      8  C   UNL     1       2.865   3.430  19.055  0.00  0.00    +0.000 A 
ATOM      9  C   UNL     1       3.552   3.387  17.749  0.00  0.00    +0.000 A 
ATOM     10  O   UNL     1       3.468   2.392  17.026  0.00  0.00    +0.000 OA
ATOM     11  N   UNL     1       4.229   4.554  17.374  0.00  0.00    +0.000 N 
ENDROOT
BRANCH  11  12
ATOM     12  N   UNL     1       4.723   4.526  16.027  0.00  0.00    +0.000 N 
ATOM     13  C   UNL     1       6.068   4.319  15.780  0.00  0.00    +0.000 C 
ATOM     14  O   UNL     1       6.917   4.197  16.660  0.00  0.00    +0.000 OA
ATOM     15  H   UNL     1       4.064   4.065  15.402  0.00  0.00    +0.000 HD
BRANCH  13  16
ATOM     16  C   UNL     1       6.494   4.272  14.343  0.00  0.00    +0.000 A 
ATOM     17  C   UNL     1       7.528   5.053  13.808  0.00  0.00    +0.000 A 
ATOM     18  C   UNL     1       7.803   5.011  12.435  0.00  0.00    +0.000 A 
ATOM     19  C   UNL     1       7.070   4.176  11.593  0.00  0.00    +0.000 A 
ATOM     20  C   UNL     1       6.081   3.353  12.124  0.00  0.00    +0.000 A 
ATOM     21  C   UNL     1       5.796   3.400  13.491  0.00  0.00    +0.000 A 
ENDBRANCH  13  16
ENDBRANCH  11  12
BRANCH   1  22
ATOM     22  S   UNL     1       4.793   7.231  17.532  0.00  0.00    +0.000 S 
BRANCH  22  23
ATOM     23  C   UNL     1       6.429   7.102  18.313  0.00  0.00    +0.000 C 
BRANCH  23  25
ATOM     24  O   UNL     1       8.006   7.238  16.503  0.00  0.00    +0.000 OA
ATOM     25  C   UNL     1       7.537   7.770  17.511  0.00  0.00    +0.000 C 
BRANCH  25  26
ATOM     26  C   UNL     1       8.138   9.063  17.967  0.00  0.00    +0.000 A 
ATOM     27  C   UNL     1       8.952   9.039  19.113  0.00  0.00    +0.000 A 
ATOM     28  C   UNL     1       9.521  10.213  19.611  0.00  0.00    +0.000 A 
ATOM     29  C   UNL     1       9.280  11.425  18.972  0.00  0.00    +0.000 A 
ATOM     30  C   UNL     1       8.476  11.461  17.833  0.00  0.00    +0.000 A 
ATOM     31  C   UNL     1       7.909  10.286  17.327  0.00  0.00    +0.000 A 
ENDBRANCH  25  26
ENDBRANCH  23  25
ENDBRANCH  22  23
ENDBRANCH   1  22
TORSDOF 6
ENDMDL
MODEL 5
REMARK VINA RESULT:      -7.9      2.234      6.357
REMARK  Name = 
REMARK  6 active torsions:
REMARK  status: ('A' for Active; 'I' for Inactive)
REMARK    1  A    between atoms: C_2  and  C_3
REMARK    2  A    between atoms: C_2  and  C_25
REMARK    3  A    between atoms: C_3  and  S_4
REMARK    4  A    between atoms: S_4  and  C_5
REMARK    5  A    between atoms: N_15  and  N_16
REMARK    6  A    between atoms: C_17  and  C_19
REMARK                            x       y       z     vdW  Elec       q    Type
REMARK                         _______ _______ _______ _____ _____    ______ ____
ROOT
ATOM      1  C   UNL     1       1.806   7.480  20.299  0.00  0.00    +0.000 A 
ATOM      2  N   UNL     1       0.965   8.235  20.928  0.00  0.00    +0.000 NA
ATOM      3  C   UNL     1       0.428   9.338  20.267  0.00  0.00    +0.000 A 
ATOM      4  C   UNL     1      -0.587  10.057  20.904  0.00  0.00    +0.000 A 
ATOM      5  C   UNL     1      -1.133  11.192  20.307  0.00  0.00    +0.000 A 
ATOM      6  C   UNL     1      -0.658  11.625  19.069  0.00  0.00    +0.000 A 
ATOM      7  C   UNL     1       0.347  10.906  18.417  0.00  0.00    +0.000 A 
ATOM      8  C   UNL     1       0.871   9.748  19.009  0.00  0.00    +0.000 A 
ATOM      9  C   UNL     1       1.921   8.938  18.359  0.00  0.00    +0.000 A 
ATOM     10  O   UNL     1       2.476   9.335  17.334  0.00  0.00    +0.000 OA
ATOM     11  N   UNL     1       2.274   7.753  19.015  0.00  0.00    +0.000 N 
ENDROOT
BRANCH  11  12
ATOM     12  N   UNL     1       3.417   7.098  18.446  0.00  0.00    +0.000 N 
ATOM     13  C   UNL     1       3.269   5.907  17.758  0.00  0.00    +0.000 C 
ATOM     14  O   UNL     1       2.199   5.316  17.630  0.00  0.00    +0.000 OA
ATOM     15  H   UNL     1       4.075   7.773  18.060  0.00  0.00    +0.000 HD
BRANCH  13  16
ATOM     16  C   UNL     1       4.510   5.306  17.168  0.00  0.00    +0.000 A 
ATOM     17  C   UNL     1       4.553   4.669  15.921  0.00  0.00    +0.000 A 
ATOM     18  C   UNL     1       5.736   4.057  15.483  0.00  0.00    +0.000 A 
ATOM     19  C   UNL     1       6.885   4.099  16.271  0.00  0.00    +0.000 A 
ATOM     20  C   UNL     1       6.868   4.780  17.485  0.00  0.00    +0.000 A 
ATOM     21  C   UNL     1       5.689   5.381  17.929  0.00  0.00    +0.000 A 
ENDBRANCH  13  16
ENDBRANCH  11  12
BRANCH   1  22
ATOM     22  S   UNL     1       2.385   6.077  21.181  0.00  0.00    +0.000 S 
BRANCH  22  23
ATOM     23  C   UNL     1       1.033   4.915  20.825  0.00  0.00    +0.000 C 
BRANCH  23  25
ATOM     24  O   UNL     1       1.155   2.797  21.958  0.00  0.00    +0.000 OA
ATOM     25  C   UNL     1       1.441   3.454  20.954  0.00  0.00    +0.000 C 
BRANCH  25  26
ATOM     26  C   UNL     1       2.265   2.793  19.894  0.00  0.00    +0.000 A 
ATOM     27  C   UNL     1       3.639   2.626  20.141  0.00  0.00    +0.000 A 
ATOM     28  C   UNL     1       4.472   2.045  19.184  0.00  0.00    +0.000 A 
ATOM     29  C   UNL     1       3.943   1.627  17.966  0.00  0.00    +0.000 A 
ATOM     30  C   UNL     1       2.582   1.785  17.711  0.00  0.00    +0.000 A 
ATOM     31  C   UNL     1       1.742   2.361  18.671  0.00  0.00    +0.000 A 
ENDBRANCH  25  26
ENDBRANCH  23  25
ENDBRANCH  22  23
ENDBRANCH   1  22
TORSDOF 6
ENDMDL
MODEL 6
REMARK VINA RESULT:      -7.9      3.432      4.569
REMARK  Name = 
REMARK  6 active torsions:
REMARK  status: ('A' for Active; 'I' for Inactive)
REMARK    1  A    between atoms: C_2  and  C_3
REMARK    2  A    between atoms: C_2  and  C_25
REMARK    3  A    between atoms: C_3  and  S_4
REMARK    4  A    between atoms: S_4  and  C_5
REMARK    5  A    between atoms: N_15  and  N_16
REMARK    6  A    between atoms: C_17  and  C_19
REMARK                            x       y       z     vdW  Elec       q    Type
REMARK                         _______ _______ _______ _____ _____    ______ ____
ROOT
ATOM      1  C   UNL     1       5.323   4.457  18.543  0.00  0.00    +0.000 A 
ATOM      2  N   UNL     1       4.652   4.793  19.595  0.00  0.00    +0.000 NA
ATOM      3  C   UNL     1       3.343   4.335  19.733  0.00  0.00    +0.000 A 
ATOM      4  C   UNL     1       2.683   4.582  20.939  0.00  0.00    +0.000 A 
ATOM      5  C   UNL     1       1.359   4.182  21.117  0.00  0.00    +0.000 A 
ATOM      6  C   UNL     1       0.681   3.540  20.082  0.00  0.00    +0.000 A 
ATOM      7  C   UNL     1       1.335   3.275  18.876  0.00  0.00    +0.000 A 
ATOM      8  C   UNL     1       2.676   3.653  18.715  0.00  0.00    +0.000 A 
ATOM      9  C   UNL     1       3.424   3.384  17.471  0.00  0.00    +0.000 A 
ATOM     10  O   UNL     1       2.850   2.943  16.474  0.00  0.00    +0.000 OA
ATOM     11  N   UNL     1       4.783   3.723  17.488  0.00  0.00    +0.000 N 
ENDROOT
BRANCH  11  12
ATOM     12  N   UNL     1       5.421   3.614  16.207  0.00  0.00    +0.000 N 
ATOM     13  C   UNL     1       5.480   4.706  15.360  0.00  0.00    +0.000 C 
ATOM     14  O   UNL     1       4.970   5.796  15.608  0.00  0.00    +0.000 OA
ATOM     15  H   UNL     1       6.250   3.024  16.257  0.00  0.00    +0.000 HD
BRANCH  13  16
ATOM     16  C   UNL     1       6.193   4.514  14.055  0.00  0.00    +0.000 A 
ATOM     17  C   UNL     1       7.302   5.269  13.651  0.00  0.00    +0.000 A 
ATOM     18  C   UNL     1       7.854   5.083  12.376  0.00  0.00    +0.000 A 
ATOM     19  C   UNL     1       7.322   4.130  11.509  0.00  0.00    +0.000 A 
ATOM     20  C   UNL     1       6.257   3.335  11.923  0.00  0.00    +0.000 A 
ATOM     21  C   UNL     1       5.698   3.524  13.189  0.00  0.00    +0.000 A 
ENDBRANCH  13  16
ENDBRANCH  11  12
BRANCH   1  22
ATOM     22  S   UNL     1       6.984   5.022  18.479  0.00  0.00    +0.000 S 
BRANCH  22  23
ATOM     23  C   UNL     1       6.699   6.815  18.569  0.00  0.00    +0.000 C 
BRANCH  23  25
ATOM     24  O   UNL     1       7.945   7.196  16.548  0.00  0.00    +0.000 OA
ATOM     25  C   UNL     1       7.613   7.620  17.657  0.00  0.00    +0.000 C 
BRANCH  25  26
ATOM     26  C   UNL     1       8.194   8.923  18.113  0.00  0.00    +0.000 A 
ATOM     27  C   UNL     1       7.946  10.062  17.326  0.00  0.00    +0.000 A 
ATOM     28  C   UNL     1       8.481  11.302  17.676  0.00  0.00    +0.000 A 
ATOM     29  C   UNL     1       9.274  11.420  18.814  0.00  0.00    +0.000 A 
ATOM     30  C   UNL     1       9.525  10.298  19.603  0.00  0.00    +0.000 A 
ATOM     31  C   UNL     1       8.984   9.053  19.260  0.00  0.00    +0.000 A 
ENDBRANCH  25  26
ENDBRANCH  23  25
ENDBRANCH  22  23
ENDBRANCH   1  22
TORSDOF 6
ENDMDL
MODEL 7
REMARK VINA RESULT:      -7.8      1.225      1.438
REMARK  Name = 
REMARK  6 active torsions:
REMARK  status: ('A' for Active; 'I' for Inactive)
REMARK    1  A    between atoms: C_2  and  C_3
REMARK    2  A    between atoms: C_2  and  C_25
REMARK    3  A    between atoms: C_3  and  S_4
REMARK    4  A    between atoms: S_4  and  C_5
REMARK    5  A    between atoms: N_15  and  N_16
REMARK    6  A    between atoms: C_17  and  C_19
REMARK                            x       y       z     vdW  Elec       q    Type
REMARK                         _______ _______ _______ _____ _____    ______ ____
ROOT
ATOM      1  C   UNL     1       3.379   5.723  18.199  0.00  0.00    +0.000 A 
ATOM      2  N   UNL     1       2.704   5.677  19.300  0.00  0.00    +0.000 NA
ATOM      3  C   UNL     1       2.653   4.478  20.008  0.00  0.00    +0.000 A 
ATOM      4  C   UNL     1       2.046   4.482  21.266  0.00  0.00    +0.000 A 
ATOM      5  C   UNL     1       1.930   3.302  22.001  0.00  0.00    +0.000 A 
ATOM      6  C   UNL     1       2.413   2.104  21.475  0.00  0.00    +0.000 A 
ATOM      7  C   UNL     1       3.034   2.091  20.224  0.00  0.00    +0.000 A 
ATOM      8  C   UNL     1       3.174   3.286  19.503  0.00  0.00    +0.000 A 
ATOM      9  C   UNL     1       3.837   3.336  18.185  0.00  0.00    +0.000 A 
ATOM     10  O   UNL     1       4.165   2.300  17.605  0.00  0.00    +0.000 OA
ATOM     11  N   UNL     1       3.998   4.611  17.629  0.00  0.00    +0.000 N 
ENDROOT
BRANCH  11  12
ATOM     12  N   UNL     1       4.478   4.594  16.276  0.00  0.00    +0.000 N 
ATOM     13  C   UNL     1       5.835   4.524  16.018  0.00  0.00    +0.000 C 
ATOM     14  O   UNL     1       6.701   4.521  16.890  0.00  0.00    +0.000 OA
ATOM     15  H   UNL     1       3.866   4.045  15.675  0.00  0.00    +0.000 HD
BRANCH  13  16
ATOM     16  C   UNL     1       6.249   4.477  14.577  0.00  0.00    +0.000 A 
ATOM     17  C   UNL     1       5.625   3.678  13.610  0.00  0.00    +0.000 A 
ATOM     18  C   UNL     1       6.133   3.628  12.304  0.00  0.00    +0.000 A 
ATOM     19  C   UNL     1       7.244   4.391  11.949  0.00  0.00    +0.000 A 
ATOM     20  C   UNL     1       7.835   5.232  12.888  0.00  0.00    +0.000 A 
ATOM     21  C   UNL     1       7.340   5.276  14.193  0.00  0.00    +0.000 A 
ENDBRANCH  13  16
ENDBRANCH  11  12
BRANCH   1  22
ATOM     22  S   UNL     1       3.446   7.287  17.405  0.00  0.00    +0.000 S 
BRANCH  22  23
ATOM     23  C   UNL     1       1.955   8.050  18.109  0.00  0.00    +0.000 C 
BRANCH  23  25
ATOM     24  O   UNL     1       2.843  10.186  17.452  0.00  0.00    +0.000 OA
ATOM     25  C   UNL     1       1.873   9.551  17.872  0.00  0.00    +0.000 C 
BRANCH  25  26
ATOM     26  C   UNL     1       0.629  10.312  18.210  0.00  0.00    +0.000 A 
ATOM     27  C   UNL     1       0.769  11.508  18.936  0.00  0.00    +0.000 A 
ATOM     28  C   UNL     1      -0.350  12.253  19.311  0.00  0.00    +0.000 A 
ATOM     29  C   UNL     1      -1.624  11.809  18.968  0.00  0.00    +0.000 A 
ATOM     30  C   UNL     1      -1.776  10.626  18.247  0.00  0.00    +0.000 A 
ATOM     31  C   UNL     1      -0.656   9.880  17.863  0.00  0.00    +0.000 A 
ENDBRANCH  25  26
ENDBRANCH  23  25
ENDBRANCH  22  23
ENDBRANCH   1  22
TORSDOF 6
ENDMDL
MODEL 8
REMARK VINA RESULT:      -7.8      1.140      1.721
REMARK  Name = 
REMARK  6 active torsions:
REMARK  status: ('A' for Active; 'I' for Inactive)
REMARK    1  A    between atoms: C_2  and  C_3
REMARK    2  A    between atoms: C_2  and  C_25
REMARK    3  A    between atoms: C_3  and  S_4
REMARK    4  A    between atoms: S_4  and  C_5
REMARK    5  A    between atoms: N_15  and  N_16
REMARK    6  A    between atoms: C_17  and  C_19
REMARK                            x       y       z     vdW  Elec       q    Type
REMARK                         _______ _______ _______ _____ _____    ______ ____
ROOT
ATOM      1  C   UNL     1       3.262   5.716  18.186  0.00  0.00    +0.000 A 
ATOM      2  N   UNL     1       2.508   5.643  19.233  0.00  0.00    +0.000 NA
ATOM      3  C   UNL     1       2.411   4.428  19.908  0.00  0.00    +0.000 A 
ATOM      4  C   UNL     1       1.713   4.401  21.118  0.00  0.00    +0.000 A 
ATOM      5  C   UNL     1       1.550   3.205  21.816  0.00  0.00    +0.000 A 
ATOM      6  C   UNL     1       2.078   2.021  21.301  0.00  0.00    +0.000 A 
ATOM      7  C   UNL     1       2.790   2.038  20.099  0.00  0.00    +0.000 A 
ATOM      8  C   UNL     1       2.975   3.250  19.417  0.00  0.00    +0.000 A 
ATOM      9  C   UNL     1       3.733   3.332  18.153  0.00  0.00    +0.000 A 
ATOM     10  O   UNL     1       4.109   2.310  17.577  0.00  0.00    +0.000 OA
ATOM     11  N   UNL     1       3.927   4.620  17.639  0.00  0.00    +0.000 N 
ENDROOT
BRANCH  11  12
ATOM     12  N   UNL     1       4.507   4.634  16.325  0.00  0.00    +0.000 N 
ATOM     13  C   UNL     1       5.878   4.547  16.166  0.00  0.00    +0.000 C 
ATOM     14  O   UNL     1       6.676   4.503  17.098  0.00  0.00    +0.000 OA
ATOM     15  H   UNL     1       3.932   4.115  15.663  0.00  0.00    +0.000 HD
BRANCH  13  16
ATOM     16  C   UNL     1       6.397   4.537  14.759  0.00  0.00    +0.000 A 
ATOM     17  C   UNL     1       7.459   5.334  14.311  0.00  0.00    +0.000 A 
ATOM     18  C   UNL     1       7.822   5.326  12.957  0.00  0.00    +0.000 A 
ATOM     19  C   UNL     1       7.150   4.509  12.050  0.00  0.00    +0.000 A 
ATOM     20  C   UNL     1       6.132   3.671  12.496  0.00  0.00    +0.000 A 
ATOM     21  C   UNL     1       5.759   3.683  13.842  0.00  0.00    +0.000 A 
ENDBRANCH  13  16
ENDBRANCH  11  12
BRANCH   1  22
ATOM     22  S   UNL     1       3.378   7.297  17.433  0.00  0.00    +0.000 S 
BRANCH  22  23
ATOM     23  C   UNL     1       2.260   8.234  18.518  0.00  0.00    +0.000 C 
BRANCH  23  25
ATOM     24  O   UNL     1       2.708  10.265  17.310  0.00  0.00    +0.000 OA
ATOM     25  C   UNL     1       1.902   9.610  17.975  0.00  0.00    +0.000 C 
BRANCH  25  26
ATOM     26  C   UNL     1       0.581  10.238  18.296  0.00  0.00    +0.000 A 
ATOM     27  C   UNL     1      -0.568   9.689  17.699  0.00  0.00    +0.000 A 
ATOM     28  C   UNL     1      -1.828  10.243  17.930  0.00  0.00    +0.000 A 
ATOM     29  C   UNL     1      -1.955  11.356  18.757  0.00  0.00    +0.000 A 
ATOM     30  C   UNL     1      -0.823  11.908  19.355  0.00  0.00    +0.000 A 
ATOM     31  C   UNL     1       0.442  11.350  19.132  0.00  0.00    +0.000 A 
ENDBRANCH  25  26
ENDBRANCH  23  25
ENDBRANCH  22  23
ENDBRANCH   1  22
TORSDOF 6
ENDMDL
MODEL 9
REMARK VINA RESULT:      -7.7      3.959      7.667
REMARK  Name = 
REMARK  6 active torsions:
REMARK  status: ('A' for Active; 'I' for Inactive)
REMARK    1  A    between atoms: C_2  and  C_3
REMARK    2  A    between atoms: C_2  and  C_25
REMARK    3  A    between atoms: C_3  and  S_4
REMARK    4  A    between atoms: S_4  and  C_5
REMARK    5  A    between atoms: N_15  and  N_16
REMARK    6  A    between atoms: C_17  and  C_19
REMARK                            x       y       z     vdW  Elec       q    Type
REMARK                         _______ _______ _______ _____ _____    ______ ____
ROOT
ATOM      1  C   UNL     1       6.804   5.691  16.668  0.00  0.00    +0.000 A 
ATOM      2  N   UNL     1       7.571   5.919  15.652  0.00  0.00    +0.000 NA
ATOM      3  C   UNL     1       7.289   5.286  14.443  0.00  0.00    +0.000 A 
ATOM      4  C   UNL     1       8.034   5.653  13.320  0.00  0.00    +0.000 A 
ATOM      5  C   UNL     1       7.823   5.025  12.093  0.00  0.00    +0.000 A 
ATOM      6  C   UNL     1       6.869   4.013  11.984  0.00  0.00    +0.000 A 
ATOM      7  C   UNL     1       6.108   3.647  13.098  0.00  0.00    +0.000 A 
ATOM      8  C   UNL     1       6.305   4.305  14.321  0.00  0.00    +0.000 A 
ATOM      9  C   UNL     1       5.519   3.973  15.526  0.00  0.00    +0.000 A 
ATOM     10  O   UNL     1       4.759   3.005  15.535  0.00  0.00    +0.000 OA
ATOM     11  N   UNL     1       5.750   4.780  16.648  0.00  0.00    +0.000 N 
ENDROOT
BRANCH  11  12
ATOM     12  N   UNL     1       5.103   4.309  17.839  0.00  0.00    +0.000 N 
ATOM     13  C   UNL     1       3.833   4.749  18.165  0.00  0.00    +0.000 C 
ATOM     14  O   UNL     1       3.206   5.582  17.514  0.00  0.00    +0.000 OA
ATOM     15  H   UNL     1       5.304   3.323  18.003  0.00  0.00    +0.000 HD
BRANCH  13  16
ATOM     16  C   UNL     1       3.218   4.182  19.410  0.00  0.00    +0.000 A 
ATOM     17  C   UNL     1       3.740   3.088  20.112  0.00  0.00    +0.000 A 
ATOM     18  C   UNL     1       3.053   2.566  21.216  0.00  0.00    +0.000 A 
ATOM     19  C   UNL     1       1.858   3.145  21.642  0.00  0.00    +0.000 A 
ATOM     20  C   UNL     1       1.361   4.268  20.987  0.00  0.00    +0.000 A 
ATOM     21  C   UNL     1       2.037   4.784  19.879  0.00  0.00    +0.000 A 
ENDBRANCH  13  16
ENDBRANCH  11  12
BRANCH   1  22
ATOM     22  S   UNL     1       7.190   6.577  18.134  0.00  0.00    +0.000 S 
BRANCH  22  23
ATOM     23  C   UNL     1       7.658   8.177  17.409  0.00  0.00    +0.000 C 
BRANCH  23  25
ATOM     24  O   UNL     1       8.998   8.560  19.368  0.00  0.00    +0.000 OA
ATOM     25  C   UNL     1       8.546   9.016  18.316  0.00  0.00    +0.000 C 
BRANCH  25  26
ATOM     26  C   UNL     1       8.836  10.448  17.990  0.00  0.00    +0.000 A 
ATOM     27  C   UNL     1      10.170  10.884  18.083  0.00  0.00    +0.000 A 
ATOM     28  C   UNL     1      10.507  12.213  17.822  0.00  0.00    +0.000 A 
ATOM     29  C   UNL     1       9.516  13.124  17.469  0.00  0.00    +0.000 A 
ATOM     30  C   UNL     1       8.190  12.703  17.371  0.00  0.00    +0.000 A 
ATOM     31  C   UNL     1       7.849  11.369  17.625  0.00  0.00    +0.000 A 
ENDBRANCH  25  26
ENDBRANCH  23  25
ENDBRANCH  22  23
ENDBRANCH   1  22
TORSDOF 6
ENDMDL
