MODEL 1
REMARK VINA RESULT:      -7.6      0.000      0.000
REMARK  Name = 
REMARK  9 active torsions:
REMARK  status: ('A' for Active; 'I' for Inactive)
REMARK    1  A    between atoms: C_1  and  O_2
REMARK    2  A    between atoms: O_2  and  C_3
REMARK    3  A    between atoms: C_8  and  N_9
REMARK    4  A    between atoms: N_12  and  C_13
REMARK    5  A    between atoms: C_13  and  C_14
REMARK    6  A    between atoms: C_13  and  C_15
REMARK    7  A    between atoms: N_17  and  C_18
REMARK    8  A    between atoms: C_21  and  S_22
REMARK    9  A    between atoms: S_22  and  N_25
REMARK                            x       y       z     vdW  Elec       q    Type
REMARK                         _______ _______ _______ _____ _____    ______ ____
ROOT
ATOM      1  C   UNL     1       0.822  12.141  20.220  0.00  0.00    +0.000 C 
ATOM      2  O   UNL     1       1.842  12.281  20.893  0.00  0.00    +0.000 OA
ATOM      3  N   UNL     1       0.430  10.985  19.559  0.00  0.00    +0.000 N 
ATOM      4  H   UNL     1      -0.310  11.117  18.878  0.00  0.00    +0.000 HD
ENDROOT
BRANCH   3   5
ATOM      5  C   UNL     1       1.025   9.709  19.661  0.00  0.00    +0.000 A 
ATOM      6  C   UNL     1       0.955   8.925  20.818  0.00  0.00    +0.000 A 
ATOM      7  C   UNL     1       1.527   7.648  20.859  0.00  0.00    +0.000 A 
ATOM      8  C   UNL     1       2.153   7.127  19.729  0.00  0.00    +0.000 A 
ATOM      9  C   UNL     1       2.277   7.917  18.579  0.00  0.00    +0.000 A 
ATOM     10  C   UNL     1       1.695   9.195  18.541  0.00  0.00    +0.000 A 
BRANCH   8  11
ATOM     11  S   UNL     1       2.921   5.520  19.806  0.00  0.00    +0.000 S 
ATOM     12  O   UNL     1       4.342   5.732  19.649  0.00  0.00    +0.000 OA
ATOM     13  O   UNL     1       2.395   4.854  20.983  0.00  0.00    +0.000 OA
BRANCH  11  14
ATOM     14  N   UNL     1       2.377   4.680  18.451  0.00  0.00    +0.000 NA
ATOM     15  C   UNL     1       1.234   3.747  18.559  0.00  0.00    +0.000 C 
ATOM     16  C   UNL     1       1.719   2.302  18.710  0.00  0.00    +0.000 C 
ATOM     17  O   UNL     1       2.632   1.925  17.669  0.00  0.00    +0.000 OA
ATOM     18  C   UNL     1       3.758   2.812  17.586  0.00  0.00    +0.000 C 
ATOM     19  C   UNL     1       3.319   4.263  17.384  0.00  0.00    +0.000 C 
ENDBRANCH  11  14
ENDBRANCH   8  11
ENDBRANCH   3   5
BRANCH   1  20
ATOM     20  C   UNL     1      -0.171  13.320  20.069  0.00  0.00    +0.000 C 
ATOM     21  C   UNL     1       0.563  14.420  19.287  0.00  0.00    +0.000 C 
BRANCH  20  25
ATOM     22  N   UNL     1      -3.552  13.111  21.658  0.00  0.00    +0.000 N 
ATOM     23  C   UNL     1      -3.115  14.187  20.765  0.00  0.00    +0.000 C 
ATOM     24  C   UNL     1      -1.776  14.767  21.287  0.00  0.00    +0.000 C 
ATOM     25  N   UNL     1      -0.656  13.780  21.403  0.00  0.00    +0.000 NA
ATOM     26  C   UNL     1      -1.176  12.645  22.229  0.00  0.00    +0.000 C 
ATOM     27  C   UNL     1      -2.554  12.043  21.835  0.00  0.00    +0.000 C 
BRANCH  22  33
ATOM     28  C   UNL     1      -5.178  13.458  23.510  0.00  0.00    +0.000 A 
ATOM     29  C   UNL     1      -6.489  13.291  23.998  0.00  0.00    +0.000 A 
ATOM     30  C   UNL     1      -7.487  12.734  23.205  0.00  0.00    +0.000 A 
ATOM     31  C   UNL     1      -7.182  12.331  21.917  0.00  0.00    +0.000 A 
ATOM     32  C   UNL     1      -5.879  12.481  21.429  0.00  0.00    +0.000 A 
ATOM     33  C   UNL     1      -4.831  13.033  22.198  0.00  0.00    +0.000 A 
BRANCH  28  35
ATOM     34  C   UNL     1      -4.071  15.359  24.410  0.00  0.00    +0.000 C 
ATOM     35  O   UNL     1      -4.181  13.940  24.332  0.00  0.00    +0.000 OA
ENDBRANCH  28  35
ENDBRANCH  22  33
ENDBRANCH  20  25
ENDBRANCH   1  20
TORSDOF 7
ENDMDL
MODEL 2
REMARK VINA RESULT:      -7.6      2.384      3.078
REMARK  Name = 
REMARK  9 active torsions:
REMARK  status: ('A' for Active; 'I' for Inactive)
REMARK    1  A    between atoms: C_1  and  O_2
REMARK    2  A    between atoms: O_2  and  C_3
REMARK    3  A    between atoms: C_8  and  N_9
REMARK    4  A    between atoms: N_12  and  C_13
REMARK    5  A    between atoms: C_13  and  C_14
REMARK    6  A    between atoms: C_13  and  C_15
REMARK    7  A    between atoms: N_17  and  C_18
REMARK    8  A    between atoms: C_21  and  S_22
REMARK    9  A    between atoms: S_22  and  N_25
REMARK                            x       y       z     vdW  Elec       q    Type
REMARK                         _______ _______ _______ _____ _____    ______ ____
ROOT
ATOM      1  C   UNL     1      -0.629  10.765  18.971  0.00  0.00    +0.000 C 
ATOM      2  O   UNL     1      -1.380  10.023  18.340  0.00  0.00    +0.000 OA
ATOM      3  N   UNL     1       0.642  10.446  19.427  0.00  0.00    +0.000 N 
ATOM      4  H   UNL     1       1.020  11.091  20.115  0.00  0.00    +0.000 HD
ENDROOT
BRANCH   3   5
ATOM      5  C   UNL     1       1.386   9.286  19.120  0.00  0.00    +0.000 A 
ATOM      6  C   UNL     1       2.044   9.104  17.898  0.00  0.00    +0.000 A 
ATOM      7  C   UNL     1       2.803   7.954  17.653  0.00  0.00    +0.000 A 
ATOM      8  C   UNL     1       2.937   6.982  18.642  0.00  0.00    +0.000 A 
ATOM      9  C   UNL     1       2.244   7.124  19.850  0.00  0.00    +0.000 A 
ATOM     10  C   UNL     1       1.489   8.283  20.094  0.00  0.00    +0.000 A 
BRANCH   8  11
ATOM     11  S   UNL     1       3.865   5.498  18.303  0.00  0.00    +0.000 S 
ATOM     12  O   UNL     1       4.369   5.026  19.573  0.00  0.00    +0.000 OA
ATOM     13  O   UNL     1       3.023   4.650  17.478  0.00  0.00    +0.000 OA
BRANCH  11  14
ATOM     14  N   UNL     1       5.184   5.978  17.374  0.00  0.00    +0.000 NA
ATOM     15  C   UNL     1       5.302   5.548  15.963  0.00  0.00    +0.000 C 
ATOM     16  C   UNL     1       6.220   4.328  15.837  0.00  0.00    +0.000 C 
ATOM     17  O   UNL     1       7.501   4.548  16.446  0.00  0.00    +0.000 OA
ATOM     18  C   UNL     1       7.387   4.933  17.825  0.00  0.00    +0.000 C 
ATOM     19  C   UNL     1       6.517   6.180  17.993  0.00  0.00    +0.000 C 
ENDBRANCH  11  14
ENDBRANCH   8  11
ENDBRANCH   3   5
BRANCH   1  20
ATOM     20  C   UNL     1      -1.076  12.210  19.307  0.00  0.00    +0.000 C 
ATOM     21  C   UNL     1      -0.410  13.131  18.273  0.00  0.00    +0.000 C 
BRANCH  20  25
ATOM     22  N   UNL     1      -2.895  14.260  21.854  0.00  0.00    +0.000 N 
ATOM     23  C   UNL     1      -1.982  14.802  20.844  0.00  0.00    +0.000 C 
ATOM     24  C   UNL     1      -0.633  14.043  20.918  0.00  0.00    +0.000 C 
ATOM     25  N   UNL     1      -0.723  12.562  20.712  0.00  0.00    +0.000 NA
ATOM     26  C   UNL     1      -1.743  12.061  21.686  0.00  0.00    +0.000 C 
ATOM     27  C   UNL     1      -3.106  12.807  21.745  0.00  0.00    +0.000 C 
BRANCH  22  33
ATOM     28  C   UNL     1      -3.149  15.353  24.075  0.00  0.00    +0.000 A 
ATOM     29  C   UNL     1      -3.948  16.117  24.948  0.00  0.00    +0.000 A 
ATOM     30  C   UNL     1      -5.180  16.619  24.542  0.00  0.00    +0.000 A 
ATOM     31  C   UNL     1      -5.629  16.357  23.259  0.00  0.00    +0.000 A 
ATOM     32  C   UNL     1      -4.846  15.588  22.390  0.00  0.00    +0.000 A 
ATOM     33  C   UNL     1      -3.595  15.049  22.759  0.00  0.00    +0.000 A 
BRANCH  28  35
ATOM     34  C   UNL     1      -1.146  15.636  25.323  0.00  0.00    +0.000 C 
ATOM     35  O   UNL     1      -1.966  14.797  24.514  0.00  0.00    +0.000 OA
ENDBRANCH  28  35
ENDBRANCH  22  33
ENDBRANCH  20  25
ENDBRANCH   1  20
TORSDOF 7
ENDMDL
MODEL 3
REMARK VINA RESULT:      -7.6      0.955      1.861
REMARK  Name = 
REMARK  9 active torsions:
REMARK  status: ('A' for Active; 'I' for Inactive)
REMARK    1  A    between atoms: C_1  and  O_2
REMARK    2  A    between atoms: O_2  and  C_3
REMARK    3  A    between atoms: C_8  and  N_9
REMARK    4  A    between atoms: N_12  and  C_13
REMARK    5  A    between atoms: C_13  and  C_14
REMARK    6  A    between atoms: C_13  and  C_15
REMARK    7  A    between atoms: N_17  and  C_18
REMARK    8  A    between atoms: C_21  and  S_22
REMARK    9  A    between atoms: S_22  and  N_25
REMARK                            x       y       z     vdW  Elec       q    Type
REMARK                         _______ _______ _______ _____ _____    ______ ____
ROOT
ATOM      1  C   UNL     1       0.788  12.041  20.204  0.00  0.00    +0.000 C 
ATOM      2  O   UNL     1       1.735  12.109  20.987  0.00  0.00    +0.000 OA
ATOM      3  N   UNL     1       0.459  10.951  19.413  0.00  0.00    +0.000 N 
ATOM      4  H   UNL     1      -0.207  11.150  18.673  0.00  0.00    +0.000 HD
ENDROOT
BRANCH   3   5
ATOM      5  C   UNL     1       1.031   9.661  19.467  0.00  0.00    +0.000 A 
ATOM      6  C   UNL     1       1.712   9.084  18.389  0.00  0.00    +0.000 A 
ATOM      7  C   UNL     1       2.298   7.818  18.501  0.00  0.00    +0.000 A 
ATOM      8  C   UNL     1       2.234   7.124  19.708  0.00  0.00    +0.000 A 
ATOM      9  C   UNL     1       1.514   7.664  20.780  0.00  0.00    +0.000 A 
ATOM     10  C   UNL     1       0.933   8.938  20.664  0.00  0.00    +0.000 A 
BRANCH   8  11
ATOM     11  S   UNL     1       2.941   5.491  19.827  0.00  0.00    +0.000 S 
ATOM     12  O   UNL     1       4.369   5.646  19.668  0.00  0.00    +0.000 OA
ATOM     13  O   UNL     1       2.389   4.877  21.021  0.00  0.00    +0.000 OA
BRANCH  11  14
ATOM     14  N   UNL     1       2.366   4.639  18.494  0.00  0.00    +0.000 NA
ATOM     15  C   UNL     1       1.264   3.663  18.648  0.00  0.00    +0.000 C 
ATOM     16  C   UNL     1       1.809   2.236  18.767  0.00  0.00    +0.000 C 
ATOM     17  O   UNL     1       2.687   1.898  17.684  0.00  0.00    +0.000 OA
ATOM     18  C   UNL     1       3.775   2.827  17.556  0.00  0.00    +0.000 C 
ATOM     19  C   UNL     1       3.274   4.262  17.383  0.00  0.00    +0.000 C 
ENDBRANCH  11  14
ENDBRANCH   8  11
ENDBRANCH   3   5
BRANCH   1  20
ATOM     20  C   UNL     1      -0.176  13.245  20.053  0.00  0.00    +0.000 C 
ATOM     21  C   UNL     1       0.600  14.342  19.309  0.00  0.00    +0.000 C 
BRANCH  20  25
ATOM     22  N   UNL     1      -3.570  12.976  21.603  0.00  0.00    +0.000 N 
ATOM     23  C   UNL     1      -3.140  14.064  20.721  0.00  0.00    +0.000 C 
ATOM     24  C   UNL     1      -1.815  14.661  21.260  0.00  0.00    +0.000 C 
ATOM     25  N   UNL     1      -0.682  13.691  21.383  0.00  0.00    +0.000 NA
ATOM     26  C   UNL     1      -1.193  12.544  22.198  0.00  0.00    +0.000 C 
ATOM     27  C   UNL     1      -2.558  11.923  21.786  0.00  0.00    +0.000 C 
BRANCH  22  33
ATOM     28  C   UNL     1      -5.979  12.379  21.415  0.00  0.00    +0.000 A 
ATOM     29  C   UNL     1      -7.258  12.364  22.007  0.00  0.00    +0.000 A 
ATOM     30  C   UNL     1      -7.452  12.806  23.311  0.00  0.00    +0.000 A 
ATOM     31  C   UNL     1      -6.370  13.274  24.036  0.00  0.00    +0.000 A 
ATOM     32  C   UNL     1      -5.099  13.304  23.451  0.00  0.00    +0.000 A 
ATOM     33  C   UNL     1      -4.853  12.876  22.128  0.00  0.00    +0.000 A 
BRANCH  28  35
ATOM     34  C   UNL     1      -7.011  11.844  19.341  0.00  0.00    +0.000 C 
ATOM     35  O   UNL     1      -5.813  12.012  20.096  0.00  0.00    +0.000 OA
ENDBRANCH  28  35
ENDBRANCH  22  33
ENDBRANCH  20  25
ENDBRANCH   1  20
TORSDOF 7
ENDMDL
MODEL 4
REMARK VINA RESULT:      -7.5      3.252      5.310
REMARK  Name = 
REMARK  9 active torsions:
REMARK  status: ('A' for Active; 'I' for Inactive)
REMARK    1  A    between atoms: C_1  and  O_2
REMARK    2  A    between atoms: O_2  and  C_3
REMARK    3  A    between atoms: C_8  and  N_9
REMARK    4  A    between atoms: N_12  and  C_13
REMARK    5  A    between atoms: C_13  and  C_14
REMARK    6  A    between atoms: C_13  and  C_15
REMARK    7  A    between atoms: N_17  and  C_18
REMARK    8  A    between atoms: C_21  and  S_22
REMARK    9  A    between atoms: S_22  and  N_25
REMARK                            x       y       z     vdW  Elec       q    Type
REMARK                         _______ _______ _______ _____ _____    ______ ____
ROOT
ATOM      1  C   UNL     1       0.170   8.835  21.387  0.00  0.00    +0.000 C 
ATOM      2  O   UNL     1      -0.741   8.030  21.579  0.00  0.00    +0.000 OA
ATOM      3  N   UNL     1       1.401   8.555  20.812  0.00  0.00    +0.000 N 
ATOM      4  H   UNL     1       2.103   9.277  20.940  0.00  0.00    +0.000 HD
ENDROOT
BRANCH   3   5
ATOM      5  C   UNL     1       1.790   7.349  20.188  0.00  0.00    +0.000 A 
ATOM      6  C   UNL     1       1.840   6.124  20.863  0.00  0.00    +0.000 A 
ATOM      7  C   UNL     1       2.193   4.946  20.193  0.00  0.00    +0.000 A 
ATOM      8  C   UNL     1       2.473   4.977  18.828  0.00  0.00    +0.000 A 
ATOM      9  C   UNL     1       2.477   6.202  18.149  0.00  0.00    +0.000 A 
ATOM     10  C   UNL     1       2.116   7.379  18.825  0.00  0.00    +0.000 A 
BRANCH   8  11
ATOM     11  S   UNL     1       2.970   3.482  17.993  0.00  0.00    +0.000 S 
ATOM     12  O   UNL     1       2.846   2.411  18.955  0.00  0.00    +0.000 OA
ATOM     13  O   UNL     1       2.246   3.438  16.736  0.00  0.00    +0.000 OA
BRANCH  11  14
ATOM     14  N   UNL     1       4.606   3.669  17.642  0.00  0.00    +0.000 NA
ATOM     15  C   UNL     1       5.541   4.164  18.676  0.00  0.00    +0.000 C 
ATOM     16  C   UNL     1       5.790   5.667  18.514  0.00  0.00    +0.000 C 
ATOM     17  O   UNL     1       6.218   6.006  17.186  0.00  0.00    +0.000 OA
ATOM     18  C   UNL     1       5.293   5.554  16.186  0.00  0.00    +0.000 C 
ATOM     19  C   UNL     1       5.054   4.046  16.279  0.00  0.00    +0.000 C 
ENDBRANCH  11  14
ENDBRANCH   8  11
ENDBRANCH   3   5
BRANCH   1  20
ATOM     20  C   UNL     1      -0.017  10.320  21.786  0.00  0.00    +0.000 C 
ATOM     21  C   UNL     1      -0.668  10.327  23.177  0.00  0.00    +0.000 C 
BRANCH  20  25
ATOM     22  N   UNL     1       0.506  13.653  20.168  0.00  0.00    +0.000 N 
ATOM     23  C   UNL     1      -0.180  13.444  21.446  0.00  0.00    +0.000 C 
ATOM     24  C   UNL     1      -1.292  12.381  21.258  0.00  0.00    +0.000 C 
ATOM     25  N   UNL     1      -0.822  11.048  20.763  0.00  0.00    +0.000 NA
ATOM     26  C   UNL     1      -0.034  11.313  19.518  0.00  0.00    +0.000 C 
ATOM     27  C   UNL     1       1.056  12.420  19.580  0.00  0.00    +0.000 C 
BRANCH  22  33
ATOM     28  C   UNL     1       1.921  15.663  19.778  0.00  0.00    +0.000 A 
ATOM     29  C   UNL     1       2.041  16.952  19.224  0.00  0.00    +0.000 A 
ATOM     30  C   UNL     1       1.011  17.512  18.475  0.00  0.00    +0.000 A 
ATOM     31  C   UNL     1      -0.153  16.791  18.279  0.00  0.00    +0.000 A 
ATOM     32  C   UNL     1      -0.285  15.514  18.837  0.00  0.00    +0.000 A 
ATOM     33  C   UNL     1       0.728  14.907  19.611  0.00  0.00    +0.000 A 
BRANCH  28  35
ATOM     34  C   UNL     1       4.126  14.785  19.920  0.00  0.00    +0.000 C 
ATOM     35  O   UNL     1       2.918  15.150  20.582  0.00  0.00    +0.000 OA
ENDBRANCH  28  35
ENDBRANCH  22  33
ENDBRANCH  20  25
ENDBRANCH   1  20
TORSDOF 7
ENDMDL
MODEL 5
REMARK VINA RESULT:      -7.5      2.146      2.859
REMARK  Name = 
REMARK  9 active torsions:
REMARK  status: ('A' for Active; 'I' for Inactive)
REMARK    1  A    between atoms: C_1  and  O_2
REMARK    2  A    between atoms: O_2  and  C_3
REMARK    3  A    between atoms: C_8  and  N_9
REMARK    4  A    between atoms: N_12  and  C_13
REMARK    5  A    between atoms: C_13  and  C_14
REMARK    6  A    between atoms: C_13  and  C_15
REMARK    7  A    between atoms: N_17  and  C_18
REMARK    8  A    between atoms: C_21  and  S_22
REMARK    9  A    between atoms: S_22  and  N_25
REMARK                            x       y       z     vdW  Elec       q    Type
REMARK                         _______ _______ _______ _____ _____    ______ ____
ROOT
ATOM      1  C   UNL     1       0.707  10.577  20.918  0.00  0.00    +0.000 C 
ATOM      2  O   UNL     1       1.278  10.232  21.951  0.00  0.00    +0.000 OA
ATOM      3  N   UNL     1       0.891  10.026  19.658  0.00  0.00    +0.000 N 
ATOM      4  H   UNL     1       0.513  10.578  18.894  0.00  0.00    +0.000 HD
ENDROOT
BRANCH   3   5
ATOM      5  C   UNL     1       1.631   8.866  19.341  0.00  0.00    +0.000 A 
ATOM      6  C   UNL     1       1.723   7.763  20.198  0.00  0.00    +0.000 A 
ATOM      7  C   UNL     1       2.437   6.618  19.825  0.00  0.00    +0.000 A 
ATOM      8  C   UNL     1       3.045   6.552  18.573  0.00  0.00    +0.000 A 
ATOM      9  C   UNL     1       3.006   7.665  17.724  0.00  0.00    +0.000 A 
ATOM     10  C   UNL     1       2.283   8.810  18.101  0.00  0.00    +0.000 A 
BRANCH   8  11
ATOM     11  S   UNL     1       3.992   5.110  18.125  0.00  0.00    +0.000 S 
ATOM     12  O   UNL     1       4.510   4.556  19.355  0.00  0.00    +0.000 OA
ATOM     13  O   UNL     1       3.159   4.312  17.244  0.00  0.00    +0.000 OA
BRANCH  11  14
ATOM     14  N   UNL     1       5.300   5.675  17.228  0.00  0.00    +0.000 NA
ATOM     15  C   UNL     1       5.490   5.239  15.826  0.00  0.00    +0.000 C 
ATOM     16  C   UNL     1       6.499   4.088  15.743  0.00  0.00    +0.000 C 
ATOM     17  O   UNL     1       7.741   4.408  16.386  0.00  0.00    +0.000 OA
ATOM     18  C   UNL     1       7.559   4.799  17.755  0.00  0.00    +0.000 C 
ATOM     19  C   UNL     1       6.596   5.981  17.881  0.00  0.00    +0.000 C 
ENDBRANCH  11  14
ENDBRANCH   8  11
ENDBRANCH   3   5
BRANCH   1  20
ATOM     20  C   UNL     1      -0.341  11.718  20.960  0.00  0.00    +0.000 C 
ATOM     21  C   UNL     1       0.011  12.685  19.819  0.00  0.00    +0.000 C 
BRANCH  20  25
ATOM     22  N   UNL     1      -2.892  13.921  22.583  0.00  0.00    +0.000 N 
ATOM     23  C   UNL     1      -1.835  14.391  21.684  0.00  0.00    +0.000 C 
ATOM     24  C   UNL     1      -0.467  13.867  22.191  0.00  0.00    +0.000 C 
ATOM     25  N   UNL     1      -0.355  12.378  22.297  0.00  0.00    +0.000 NA
ATOM     26  C   UNL     1      -1.512  11.924  23.130  0.00  0.00    +0.000 C 
ATOM     27  C   UNL     1      -2.922  12.458  22.751  0.00  0.00    +0.000 C 
BRANCH  22  33
ATOM     28  C   UNL     1      -3.587  15.780  24.084  0.00  0.00    +0.000 A 
ATOM     29  C   UNL     1      -4.634  16.544  24.637  0.00  0.00    +0.000 A 
ATOM     30  C   UNL     1      -5.955  16.339  24.251  0.00  0.00    +0.000 A 
ATOM     31  C   UNL     1      -6.244  15.363  23.314  0.00  0.00    +0.000 A 
ATOM     32  C   UNL     1      -5.211  14.591  22.771  0.00  0.00    +0.000 A 
ATOM     33  C   UNL     1      -3.857  14.755  23.136  0.00  0.00    +0.000 A 
BRANCH  28  35
ATOM     34  C   UNL     1      -1.964  15.264  25.742  0.00  0.00    +0.000 C 
ATOM     35  O   UNL     1      -2.292  15.940  24.531  0.00  0.00    +0.000 OA
ENDBRANCH  28  35
ENDBRANCH  22  33
ENDBRANCH  20  25
ENDBRANCH   1  20
TORSDOF 7
ENDMDL
MODEL 6
REMARK VINA RESULT:      -7.5      3.487      5.599
REMARK  Name = 
REMARK  9 active torsions:
REMARK  status: ('A' for Active; 'I' for Inactive)
REMARK    1  A    between atoms: C_1  and  O_2
REMARK    2  A    between atoms: O_2  and  C_3
REMARK    3  A    between atoms: C_8  and  N_9
REMARK    4  A    between atoms: N_12  and  C_13
REMARK    5  A    between atoms: C_13  and  C_14
REMARK    6  A    between atoms: C_13  and  C_15
REMARK    7  A    between atoms: N_17  and  C_18
REMARK    8  A    between atoms: C_21  and  S_22
REMARK    9  A    between atoms: S_22  and  N_25
REMARK                            x       y       z     vdW  Elec       q    Type
REMARK                         _______ _______ _______ _____ _____    ______ ____
ROOT
ATOM      1  C   UNL     1       0.191   8.857  21.332  0.00  0.00    +0.000 C 
ATOM      2  O   UNL     1      -0.792   8.119  21.382  0.00  0.00    +0.000 OA
ATOM      3  N   UNL     1       1.453   8.508  20.872  0.00  0.00    +0.000 N 
ATOM      4  H   UNL     1       2.188   9.165  21.113  0.00  0.00    +0.000 HD
ENDROOT
BRANCH   3   5
ATOM      5  C   UNL     1       1.815   7.309  20.221  0.00  0.00    +0.000 A 
ATOM      6  C   UNL     1       1.837   6.068  20.868  0.00  0.00    +0.000 A 
ATOM      7  C   UNL     1       2.164   4.898  20.172  0.00  0.00    +0.000 A 
ATOM      8  C   UNL     1       2.447   4.953  18.809  0.00  0.00    +0.000 A 
ATOM      9  C   UNL     1       2.480   6.193  18.158  0.00  0.00    +0.000 A 
ATOM     10  C   UNL     1       2.144   7.363  18.859  0.00  0.00    +0.000 A 
BRANCH   8  11
ATOM     11  S   UNL     1       2.911   3.467  17.941  0.00  0.00    +0.000 S 
ATOM     12  O   UNL     1       2.808   2.383  18.891  0.00  0.00    +0.000 OA
ATOM     13  O   UNL     1       2.153   3.443  16.703  0.00  0.00    +0.000 OA
BRANCH  11  14
ATOM     14  N   UNL     1       4.538   3.649  17.547  0.00  0.00    +0.000 NA
ATOM     15  C   UNL     1       5.513   4.079  18.573  0.00  0.00    +0.000 C 
ATOM     16  C   UNL     1       5.779   5.585  18.478  0.00  0.00    +0.000 C 
ATOM     17  O   UNL     1       6.170   5.984  17.156  0.00  0.00    +0.000 OA
ATOM     18  C   UNL     1       5.207   5.595  16.165  0.00  0.00    +0.000 C 
ATOM     19  C   UNL     1       4.948   4.088  16.191  0.00  0.00    +0.000 C 
ENDBRANCH  11  14
ENDBRANCH   8  11
ENDBRANCH   3   5
BRANCH   1  20
ATOM     20  C   UNL     1       0.074  10.330  21.796  0.00  0.00    +0.000 C 
ATOM     21  C   UNL     1      -0.695  10.316  23.126  0.00  0.00    +0.000 C 
BRANCH  20  25
ATOM     22  N   UNL     1       1.342  13.243  19.819  0.00  0.00    +0.000 N 
ATOM     23  C   UNL     1       0.733  13.339  21.149  0.00  0.00    +0.000 C 
ATOM     24  C   UNL     1      -0.636  12.613  21.134  0.00  0.00    +0.000 C 
ATOM     25  N   UNL     1      -0.587  11.166  20.752  0.00  0.00    +0.000 NA
ATOM     26  C   UNL     1       0.138  11.098  19.444  0.00  0.00    +0.000 C 
ATOM     27  C   UNL     1       1.487  11.861  19.331  0.00  0.00    +0.000 C 
BRANCH  22  33
ATOM     28  C   UNL     1       1.185  15.589  19.003  0.00  0.00    +0.000 A 
ATOM     29  C   UNL     1       1.744  16.628  18.234  0.00  0.00    +0.000 A 
ATOM     30  C   UNL     1       2.970  16.471  17.596  0.00  0.00    +0.000 A 
ATOM     31  C   UNL     1       3.647  15.270  17.716  0.00  0.00    +0.000 A 
ATOM     32  C   UNL     1       3.092  14.228  18.468  0.00  0.00    +0.000 A 
ATOM     33  C   UNL     1       1.847  14.336  19.126  0.00  0.00    +0.000 A 
BRANCH  28  35
ATOM     34  C   UNL     1      -0.879  16.768  19.025  0.00  0.00    +0.000 C 
ATOM     35  O   UNL     1      -0.067  15.729  19.566  0.00  0.00    +0.000 OA
ENDBRANCH  28  35
ENDBRANCH  22  33
ENDBRANCH  20  25
ENDBRANCH   1  20
TORSDOF 7
ENDMDL
MODEL 7
REMARK VINA RESULT:      -7.5      2.396      3.286
REMARK  Name = 
REMARK  9 active torsions:
REMARK  status: ('A' for Active; 'I' for Inactive)
REMARK    1  A    between atoms: C_1  and  O_2
REMARK    2  A    between atoms: O_2  and  C_3
REMARK    3  A    between atoms: C_8  and  N_9
REMARK    4  A    between atoms: N_12  and  C_13
REMARK    5  A    between atoms: C_13  and  C_14
REMARK    6  A    between atoms: C_13  and  C_15
REMARK    7  A    between atoms: N_17  and  C_18
REMARK    8  A    between atoms: C_21  and  S_22
REMARK    9  A    between atoms: S_22  and  N_25
REMARK                            x       y       z     vdW  Elec       q    Type
REMARK                         _______ _______ _______ _____ _____    ______ ____
ROOT
ATOM      1  C   UNL     1      -0.673  10.635  19.113  0.00  0.00    +0.000 C 
ATOM      2  O   UNL     1      -1.467   9.822  18.642  0.00  0.00    +0.000 OA
ATOM      3  N   UNL     1       0.658  10.393  19.420  0.00  0.00    +0.000 N 
ATOM      4  H   UNL     1       1.094  11.101  20.003  0.00  0.00    +0.000 HD
ENDROOT
BRANCH   3   5
ATOM      5  C   UNL     1       1.404   9.237  19.103  0.00  0.00    +0.000 A 
ATOM      6  C   UNL     1       2.056   9.063  17.877  0.00  0.00    +0.000 A 
ATOM      7  C   UNL     1       2.818   7.916  17.622  0.00  0.00    +0.000 A 
ATOM      8  C   UNL     1       2.960   6.940  18.606  0.00  0.00    +0.000 A 
ATOM      9  C   UNL     1       2.274   7.074  19.819  0.00  0.00    +0.000 A 
ATOM     10  C   UNL     1       1.516   8.230  20.073  0.00  0.00    +0.000 A 
BRANCH   8  11
ATOM     11  S   UNL     1       3.891   5.461  18.256  0.00  0.00    +0.000 S 
ATOM     12  O   UNL     1       4.425   4.999  19.517  0.00  0.00    +0.000 OA
ATOM     13  O   UNL     1       3.039   4.604  17.452  0.00  0.00    +0.000 OA
BRANCH  11  14
ATOM     14  N   UNL     1       5.188   5.945  17.298  0.00  0.00    +0.000 NA
ATOM     15  C   UNL     1       5.329   5.436  15.916  0.00  0.00    +0.000 C 
ATOM     16  C   UNL     1       6.305   4.256  15.864  0.00  0.00    +0.000 C 
ATOM     17  O   UNL     1       7.572   4.574  16.458  0.00  0.00    +0.000 OA
ATOM     18  C   UNL     1       7.438   5.037  17.810  0.00  0.00    +0.000 C 
ATOM     19  C   UNL     1       6.509   6.249  17.902  0.00  0.00    +0.000 C 
ENDBRANCH  11  14
ENDBRANCH   8  11
ENDBRANCH   3   5
BRANCH   1  20
ATOM     20  C   UNL     1      -1.133  12.086  19.398  0.00  0.00    +0.000 C 
ATOM     21  C   UNL     1      -0.599  12.954  18.248  0.00  0.00    +0.000 C 
BRANCH  20  25
ATOM     22  N   UNL     1      -2.804  14.177  22.013  0.00  0.00    +0.000 N 
ATOM     23  C   UNL     1      -2.036  14.710  20.884  0.00  0.00    +0.000 C 
ATOM     24  C   UNL     1      -0.642  14.034  20.854  0.00  0.00    +0.000 C 
ATOM     25  N   UNL     1      -0.659  12.541  20.737  0.00  0.00    +0.000 NA
ATOM     26  C   UNL     1      -1.540  12.041  21.839  0.00  0.00    +0.000 C 
ATOM     27  C   UNL     1      -2.933  12.710  22.004  0.00  0.00    +0.000 C 
BRANCH  22  33
ATOM     28  C   UNL     1      -4.809  15.398  22.839  0.00  0.00    +0.000 A 
ATOM     29  C   UNL     1      -5.374  16.257  23.802  0.00  0.00    +0.000 A 
ATOM     30  C   UNL     1      -4.636  16.694  24.897  0.00  0.00    +0.000 A 
ATOM     31  C   UNL     1      -3.322  16.283  25.037  0.00  0.00    +0.000 A 
ATOM     32  C   UNL     1      -2.749  15.441  24.077  0.00  0.00    +0.000 A 
ATOM     33  C   UNL     1      -3.454  14.978  22.944  0.00  0.00    +0.000 A 
BRANCH  28  35
ATOM     34  C   UNL     1      -6.108  16.103  20.978  0.00  0.00    +0.000 C 
ATOM     35  O   UNL     1      -5.526  15.034  21.718  0.00  0.00    +0.000 OA
ENDBRANCH  28  35
ENDBRANCH  22  33
ENDBRANCH  20  25
ENDBRANCH   1  20
TORSDOF 7
ENDMDL
MODEL 8
REMARK VINA RESULT:      -7.5      2.318      3.077
REMARK  Name = 
REMARK  9 active torsions:
REMARK  status: ('A' for Active; 'I' for Inactive)
REMARK    1  A    between atoms: C_1  and  O_2
REMARK    2  A    between atoms: O_2  and  C_3
REMARK    3  A    between atoms: C_8  and  N_9
REMARK    4  A    between atoms: N_12  and  C_13
REMARK    5  A    between atoms: C_13  and  C_14
REMARK    6  A    between atoms: C_13  and  C_15
REMARK    7  A    between atoms: N_17  and  C_18
REMARK    8  A    between atoms: C_21  and  S_22
REMARK    9  A    between atoms: S_22  and  N_25
REMARK                            x       y       z     vdW  Elec       q    Type
REMARK                         _______ _______ _______ _____ _____    ______ ____
ROOT
ATOM      1  C   UNL     1       1.459  10.384  18.410  0.00  0.00    +0.000 C 
ATOM      2  O   UNL     1       2.369  10.747  17.665  0.00  0.00    +0.000 OA
ATOM      3  N   UNL     1       1.275   9.103  18.910  0.00  0.00    +0.000 N 
ATOM      4  H   UNL     1       0.360   8.935  19.317  0.00  0.00    +0.000 HD
ENDROOT
BRANCH   3   5
ATOM      5  C   UNL     1       2.170   8.016  18.806  0.00  0.00    +0.000 A 
ATOM      6  C   UNL     1       2.338   7.068  19.822  0.00  0.00    +0.000 A 
ATOM      7  C   UNL     1       3.208   5.983  19.658  0.00  0.00    +0.000 A 
ATOM      8  C   UNL     1       3.901   5.819  18.460  0.00  0.00    +0.000 A 
ATOM      9  C   UNL     1       3.783   6.785  17.454  0.00  0.00    +0.000 A 
ATOM     10  C   UNL     1       2.903   7.868  17.620  0.00  0.00    +0.000 A 
BRANCH   8  11
ATOM     11  S   UNL     1       5.044   4.463  18.278  0.00  0.00    +0.000 S 
ATOM     12  O   UNL     1       5.625   4.585  16.961  0.00  0.00    +0.000 OA
ATOM     13  O   UNL     1       5.883   4.454  19.463  0.00  0.00    +0.000 OA
BRANCH  11  14
ATOM     14  N   UNL     1       4.109   3.063  18.297  0.00  0.00    +0.000 NA
ATOM     15  C   UNL     1       2.909   2.953  17.437  0.00  0.00    +0.000 C 
ATOM     16  C   UNL     1       1.638   3.280  18.226  0.00  0.00    +0.000 C 
ATOM     17  O   UNL     1       1.524   2.495  19.422  0.00  0.00    +0.000 OA
ATOM     18  C   UNL     1       2.673   2.628  20.271  0.00  0.00    +0.000 C 
ATOM     19  C   UNL     1       3.964   2.260  19.536  0.00  0.00    +0.000 C 
ENDBRANCH  11  14
ENDBRANCH   8  11
ENDBRANCH   3   5
BRANCH   1  20
ATOM     20  C   UNL     1       0.396  11.406  18.885  0.00  0.00    +0.000 C 
ATOM     21  C   UNL     1       1.145  12.482  19.687  0.00  0.00    +0.000 C 
BRANCH  20  25
ATOM     22  N   UNL     1      -3.311  11.905  18.921  0.00  0.00    +0.000 N 
ATOM     23  C   UNL     1      -2.358  12.676  19.723  0.00  0.00    +0.000 C 
ATOM     24  C   UNL     1      -1.452  11.699  20.513  0.00  0.00    +0.000 C 
ATOM     25  N   UNL     1      -0.674  10.732  19.675  0.00  0.00    +0.000 NA
ATOM     26  C   UNL     1      -1.667  10.042  18.793  0.00  0.00    +0.000 C 
ATOM     27  C   UNL     1      -2.676  10.932  18.016  0.00  0.00    +0.000 C 
BRANCH  22  33
ATOM     28  C   UNL     1      -5.476  12.284  20.088  0.00  0.00    +0.000 A 
ATOM     29  C   UNL     1      -6.870  12.468  19.995  0.00  0.00    +0.000 A 
ATOM     30  C   UNL     1      -7.504  12.544  18.759  0.00  0.00    +0.000 A 
ATOM     31  C   UNL     1      -6.752  12.431  17.603  0.00  0.00    +0.000 A 
ATOM     32  C   UNL     1      -5.368  12.235  17.688  0.00  0.00    +0.000 A 
ATOM     33  C   UNL     1      -4.681  12.142  18.918  0.00  0.00    +0.000 A 
BRANCH  28  35
ATOM     34  C   UNL     1      -5.078  13.192  22.249  0.00  0.00    +0.000 C 
ATOM     35  O   UNL     1      -4.870  12.133  21.318  0.00  0.00    +0.000 OA
ENDBRANCH  28  35
ENDBRANCH  22  33
ENDBRANCH  20  25
ENDBRANCH   1  20
TORSDOF 7
ENDMDL
MODEL 9
REMARK VINA RESULT:      -7.5      2.275      3.284
REMARK  Name = 
REMARK  9 active torsions:
REMARK  status: ('A' for Active; 'I' for Inactive)
REMARK    1  A    between atoms: C_1  and  O_2
REMARK    2  A    between atoms: O_2  and  C_3
REMARK    3  A    between atoms: C_8  and  N_9
REMARK    4  A    between atoms: N_12  and  C_13
REMARK    5  A    between atoms: C_13  and  C_14
REMARK    6  A    between atoms: C_13  and  C_15
REMARK    7  A    between atoms: N_17  and  C_18
REMARK    8  A    between atoms: C_21  and  S_22
REMARK    9  A    between atoms: S_22  and  N_25
REMARK                            x       y       z     vdW  Elec       q    Type
REMARK                         _______ _______ _______ _____ _____    ______ ____
ROOT
ATOM      1  C   UNL     1      -0.342  10.485  18.838  0.00  0.00    +0.000 C 
ATOM      2  O   UNL     1      -0.899   9.890  17.916  0.00  0.00    +0.000 OA
ATOM      3  N   UNL     1       0.752  10.031  19.561  0.00  0.00    +0.000 N 
ATOM      4  H   UNL     1       0.933  10.541  20.419  0.00  0.00    +0.000 HD
ENDROOT
BRANCH   3   5
ATOM      5  C   UNL     1       1.538   8.893  19.281  0.00  0.00    +0.000 A 
ATOM      6  C   UNL     1       1.670   7.821  20.171  0.00  0.00    +0.000 A 
ATOM      7  C   UNL     1       2.430   6.693  19.834  0.00  0.00    +0.000 A 
ATOM      8  C   UNL     1       3.045   6.614  18.586  0.00  0.00    +0.000 A 
ATOM      9  C   UNL     1       2.965   7.699  17.705  0.00  0.00    +0.000 A 
ATOM     10  C   UNL     1       2.196   8.824  18.045  0.00  0.00    +0.000 A 
BRANCH   8  11
ATOM     11  S   UNL     1       4.050   5.197  18.185  0.00  0.00    +0.000 S 
ATOM     12  O   UNL     1       4.494   4.635  19.440  0.00  0.00    +0.000 OA
ATOM     13  O   UNL     1       3.295   4.396  17.238  0.00  0.00    +0.000 OA
BRANCH  11  14
ATOM     14  N   UNL     1       5.404   5.801  17.387  0.00  0.00    +0.000 NA
ATOM     15  C   UNL     1       5.600   5.540  15.943  0.00  0.00    +0.000 C 
ATOM     16  C   UNL     1       6.548   4.357  15.725  0.00  0.00    +0.000 C 
ATOM     17  O   UNL     1       7.792   4.523  16.421  0.00  0.00    +0.000 OA
ATOM     18  C   UNL     1       7.602   4.743  17.827  0.00  0.00    +0.000 C 
ATOM     19  C   UNL     1       6.700   5.949  18.092  0.00  0.00    +0.000 C 
ENDBRANCH  11  14
ENDBRANCH   8  11
ENDBRANCH   3   5
BRANCH   1  20
ATOM     20  C   UNL     1      -0.848  11.884  19.271  0.00  0.00    +0.000 C 
ATOM     21  C   UNL     1      -0.380  12.876  18.195  0.00  0.00    +0.000 C 
BRANCH  20  25
ATOM     22  N   UNL     1      -2.389  13.940  21.991  0.00  0.00    +0.000 N 
ATOM     23  C   UNL     1      -1.577  14.478  20.896  0.00  0.00    +0.000 C 
ATOM     24  C   UNL     1      -0.233  13.708  20.834  0.00  0.00    +0.000 C 
ATOM     25  N   UNL     1      -0.354  12.229  20.635  0.00  0.00    +0.000 NA
ATOM     26  C   UNL     1      -1.277  11.732  21.704  0.00  0.00    +0.000 C 
ATOM     27  C   UNL     1      -2.621  12.488  21.900  0.00  0.00    +0.000 C 
BRANCH  22  33
ATOM     28  C   UNL     1      -4.289  15.296  22.852  0.00  0.00    +0.000 A 
ATOM     29  C   UNL     1      -4.800  16.134  23.863  0.00  0.00    +0.000 A 
ATOM     30  C   UNL     1      -4.062  16.410  25.009  0.00  0.00    +0.000 A 
ATOM     31  C   UNL     1      -2.801  15.857  25.153  0.00  0.00    +0.000 A 
ATOM     32  C   UNL     1      -2.282  15.034  24.147  0.00  0.00    +0.000 A 
ATOM     33  C   UNL     1      -2.989  14.731  22.963  0.00  0.00    +0.000 A 
BRANCH  28  35
ATOM     34  C   UNL     1      -6.060  14.142  21.762  0.00  0.00    +0.000 C 
ATOM     35  O   UNL     1      -4.998  15.091  21.687  0.00  0.00    +0.000 OA
ENDBRANCH  28  35
ENDBRANCH  22  33
ENDBRANCH  20  25
ENDBRANCH   1  20
TORSDOF 7
ENDMDL
