MODEL 1
REMARK VINA RESULT:      -8.4      0.000      0.000
REMARK  Name = 
REMARK  8 active torsions:
REMARK  status: ('A' for Active; 'I' for Inactive)
REMARK    1  A    between atoms: C_2  and  O_3
REMARK    2  A    between atoms: C_2  and  C_4
REMARK    3  A    between atoms: C_9  and  S_10
REMARK    4  A    between atoms: S_10  and  N_13
REMARK    5  A    between atoms: N_13  and  C_14
REMARK    6  A    between atoms: C_14  and  C_15
REMARK    7  A    between atoms: C_15  and  C_16
REMARK    8  A    between atoms: C_16  and  N_17
REMARK                            x       y       z     vdW  Elec       q    Type
REMARK                         _______ _______ _______ _____ _____    ______ ____
ROOT
ATOM      1  C   UNL     1       2.353   6.379  17.766  0.00  0.00    +0.000 C 
ENDROOT
BRANCH   1   2
ATOM      2  C   UNL     1       2.069   4.980  18.331  0.00  0.00    +0.000 C 
BRANCH   2   3
ATOM      3  N   UNL     1       3.204   4.496  19.135  0.00  0.00    +0.000 NA
ATOM      4  H   UNL     1       3.826   5.229  19.515  0.00  0.00    +0.000 HD
BRANCH   3   5
ATOM      5  S   UNL     1       4.183   3.276  18.507  0.00  0.00    +0.000 S 
ATOM      6  O   UNL     1       3.312   2.333  17.833  0.00  0.00    +0.000 OA
ATOM      7  O   UNL     1       5.089   2.819  19.536  0.00  0.00    +0.000 OA
BRANCH   5  13
ATOM      8  C   UNL     1       6.332   4.823  17.572  0.00  0.00    +0.000 A 
ATOM      9  C   UNL     1       7.098   5.360  16.512  0.00  0.00    +0.000 A 
ATOM     10  C   UNL     1       6.831   5.019  15.183  0.00  0.00    +0.000 A 
ATOM     11  C   UNL     1       5.770   4.171  14.888  0.00  0.00    +0.000 A 
ATOM     12  C   UNL     1       4.957   3.688  15.916  0.00  0.00    +0.000 A 
ATOM     13  C   UNL     1       5.220   4.021  17.258  0.00  0.00    +0.000 A 
BRANCH   8  15
ATOM     14  O   UNL     1       5.868   5.792  19.717  0.00  0.00    +0.000 OA
ATOM     15  C   UNL     1       6.660   5.254  18.964  0.00  0.00    +0.000 C 
BRANCH  15  16
ATOM     16  O   UNL     1       7.951   5.042  19.309  0.00  0.00    +0.000 OA
ATOM     17  H   UNL     1       8.614   5.535  18.794  0.00  0.00    +0.000 HD
ENDBRANCH  15  16
ENDBRANCH   8  15
ENDBRANCH   5  13
ENDBRANCH   3   5
ENDBRANCH   2   3
ENDBRANCH   1   2
BRANCH   1  18
ATOM     18  C   UNL     1       2.926   7.393  18.768  0.00  0.00    +0.000 C 
BRANCH  18  19
ATOM     19  N   UNL     1       1.903   8.296  19.297  0.00  0.00    +0.000 N 
ATOM     20  C   UNL     1       1.510   9.389  18.534  0.00  0.00    +0.000 C 
ATOM     21  O   UNL     1       1.993   9.676  17.443  0.00  0.00    +0.000 OA
ATOM     22  C   UNL     1       0.458  10.262  19.111  0.00  0.00    +0.000 A 
ATOM     23  C   UNL     1      -0.103  11.281  18.344  0.00  0.00    +0.000 A 
ATOM     24  C   UNL     1      -1.008  12.165  18.929  0.00  0.00    +0.000 A 
ATOM     25  C   UNL     1      -1.305  12.071  20.291  0.00  0.00    +0.000 A 
ATOM     26  C   UNL     1      -0.731  11.066  21.077  0.00  0.00    +0.000 A 
ATOM     27  C   UNL     1      -0.953  10.990  22.465  0.00  0.00    +0.000 A 
ATOM     28  C   UNL     1      -0.382   9.970  23.220  0.00  0.00    +0.000 A 
ATOM     29  C   UNL     1       0.360   8.988  22.580  0.00  0.00    +0.000 A 
ATOM     30  C   UNL     1       0.592   9.059  21.206  0.00  0.00    +0.000 A 
ATOM     31  C   UNL     1       0.109  10.117  20.454  0.00  0.00    +0.000 A 
ATOM     32  C   UNL     1       1.345   7.995  20.529  0.00  0.00    +0.000 C 
ATOM     33  O   UNL     1       1.462   6.916  21.094  0.00  0.00    +0.000 OA
ENDBRANCH  18  19
ENDBRANCH   1  18
TORSDOF 8
ENDMDL
MODEL 2
REMARK VINA RESULT:      -8.2      2.975      8.684
REMARK  Name = 
REMARK  8 active torsions:
REMARK  status: ('A' for Active; 'I' for Inactive)
REMARK    1  A    between atoms: C_2  and  O_3
REMARK    2  A    between atoms: C_2  and  C_4
REMARK    3  A    between atoms: C_9  and  S_10
REMARK    4  A    between atoms: S_10  and  N_13
REMARK    5  A    between atoms: N_13  and  C_14
REMARK    6  A    between atoms: C_14  and  C_15
REMARK    7  A    between atoms: C_15  and  C_16
REMARK    8  A    between atoms: C_16  and  N_17
REMARK                            x       y       z     vdW  Elec       q    Type
REMARK                         _______ _______ _______ _____ _____    ______ ____
ROOT
ATOM      1  C   UNL     1       1.237   9.134  17.786  0.00  0.00    +0.000 C 
ENDROOT
BRANCH   1   2
ATOM      2  C   UNL     1       0.124  10.070  18.278  0.00  0.00    +0.000 C 
BRANCH   2   3
ATOM      3  N   UNL     1       0.139  10.178  19.746  0.00  0.00    +0.000 NA
ATOM      4  H   UNL     1      -0.674   9.765  20.233  0.00  0.00    +0.000 HD
BRANCH   3   5
ATOM      5  S   UNL     1       0.437  11.683  20.447  0.00  0.00    +0.000 S 
ATOM      6  O   UNL     1       0.359  12.671  19.389  0.00  0.00    +0.000 OA
ATOM      7  O   UNL     1       1.621  11.594  21.272  0.00  0.00    +0.000 OA
BRANCH   5  13
ATOM      8  C   UNL     1      -1.212  11.173  22.663  0.00  0.00    +0.000 A 
ATOM      9  C   UNL     1      -2.289  11.527  23.508  0.00  0.00    +0.000 A 
ATOM     10  C   UNL     1      -2.968  12.738  23.345  0.00  0.00    +0.000 A 
ATOM     11  C   UNL     1      -2.612  13.595  22.309  0.00  0.00    +0.000 A 
ATOM     12  C   UNL     1      -1.600  13.229  21.419  0.00  0.00    +0.000 A 
ATOM     13  C   UNL     1      -0.905  12.014  21.578  0.00  0.00    +0.000 A 
BRANCH   8  15
ATOM     14  O   UNL     1      -0.808   8.845  22.246  0.00  0.00    +0.000 OA
ATOM     15  C   UNL     1      -0.551   9.852  22.882  0.00  0.00    +0.000 C 
BRANCH  15  16
ATOM     16  O   UNL     1       0.335   9.851  23.904  0.00  0.00    +0.000 OA
ATOM     17  H   UNL     1      -0.045   9.769  24.796  0.00  0.00    +0.000 HD
ENDBRANCH  15  16
ENDBRANCH   8  15
ENDBRANCH   5  13
ENDBRANCH   3   5
ENDBRANCH   2   3
ENDBRANCH   1   2
BRANCH   1  18
ATOM     18  C   UNL     1       2.275   8.727  18.843  0.00  0.00    +0.000 C 
BRANCH  18  19
ATOM     19  N   UNL     1       2.528   7.286  18.856  0.00  0.00    +0.000 N 
ATOM     20  C   UNL     1       3.322   6.733  17.858  0.00  0.00    +0.000 C 
ATOM     21  O   UNL     1       3.806   7.373  16.930  0.00  0.00    +0.000 OA
ATOM     22  C   UNL     1       3.559   5.270  17.929  0.00  0.00    +0.000 A 
ATOM     23  C   UNL     1       4.470   4.667  17.063  0.00  0.00    +0.000 A 
ATOM     24  C   UNL     1       4.603   3.280  17.060  0.00  0.00    +0.000 A 
ATOM     25  C   UNL     1       3.787   2.492  17.875  0.00  0.00    +0.000 A 
ATOM     26  C   UNL     1       2.853   3.084  18.733  0.00  0.00    +0.000 A 
ATOM     27  C   UNL     1       1.967   2.315  19.510  0.00  0.00    +0.000 A 
ATOM     28  C   UNL     1       1.059   2.930  20.367  0.00  0.00    +0.000 A 
ATOM     29  C   UNL     1       1.078   4.312  20.495  0.00  0.00    +0.000 A 
ATOM     30  C   UNL     1       1.947   5.082  19.723  0.00  0.00    +0.000 A 
ATOM     31  C   UNL     1       2.793   4.493  18.797  0.00  0.00    +0.000 A 
ATOM     32  C   UNL     1       1.989   6.541  19.892  0.00  0.00    +0.000 C 
ATOM     33  O   UNL     1       1.526   7.020  20.919  0.00  0.00    +0.000 OA
ENDBRANCH  18  19
ENDBRANCH   1  18
TORSDOF 8
ENDMDL
MODEL 3
REMARK VINA RESULT:      -8.2      0.767      1.071
REMARK  Name = 
REMARK  8 active torsions:
REMARK  status: ('A' for Active; 'I' for Inactive)
REMARK    1  A    between atoms: C_2  and  O_3
REMARK    2  A    between atoms: C_2  and  C_4
REMARK    3  A    between atoms: C_9  and  S_10
REMARK    4  A    between atoms: S_10  and  N_13
REMARK    5  A    between atoms: N_13  and  C_14
REMARK    6  A    between atoms: C_14  and  C_15
REMARK    7  A    between atoms: C_15  and  C_16
REMARK    8  A    between atoms: C_16  and  N_17
REMARK                            x       y       z     vdW  Elec       q    Type
REMARK                         _______ _______ _______ _____ _____    ______ ____
ROOT
ATOM      1  C   UNL     1       2.099   6.390  18.318  0.00  0.00    +0.000 C 
ENDROOT
BRANCH   1   2
ATOM      2  C   UNL     1       2.186   5.093  19.135  0.00  0.00    +0.000 C 
BRANCH   2   3
ATOM      3  N   UNL     1       3.106   4.133  18.501  0.00  0.00    +0.000 NA
ATOM      4  H   UNL     1       2.852   3.137  18.603  0.00  0.00    +0.000 HD
BRANCH   3   5
ATOM      5  S   UNL     1       4.759   4.269  18.808  0.00  0.00    +0.000 S 
ATOM      6  O   UNL     1       5.202   2.995  19.340  0.00  0.00    +0.000 OA
ATOM      7  O   UNL     1       5.005   5.489  19.544  0.00  0.00    +0.000 OA
BRANCH   5  13
ATOM      8  C   UNL     1       6.889   4.971  17.116  0.00  0.00    +0.000 A 
ATOM      9  C   UNL     1       7.448   5.105  15.825  0.00  0.00    +0.000 A 
ATOM     10  C   UNL     1       6.756   4.672  14.690  0.00  0.00    +0.000 A 
ATOM     11  C   UNL     1       5.479   4.138  14.822  0.00  0.00    +0.000 A 
ATOM     12  C   UNL     1       4.881   4.065  16.082  0.00  0.00    +0.000 A 
ATOM     13  C   UNL     1       5.571   4.494  17.232  0.00  0.00    +0.000 A 
BRANCH   8  15
ATOM     14  O   UNL     1       8.255   4.764  19.078  0.00  0.00    +0.000 OA
ATOM     15  C   UNL     1       7.676   5.480  18.279  0.00  0.00    +0.000 C 
BRANCH  15  16
ATOM     16  O   UNL     1       7.650   6.826  18.406  0.00  0.00    +0.000 OA
ATOM     17  H   UNL     1       8.398   7.221  18.888  0.00  0.00    +0.000 HD
ENDBRANCH  15  16
ENDBRANCH   8  15
ENDBRANCH   5  13
ENDBRANCH   3   5
ENDBRANCH   2   3
ENDBRANCH   1   2
BRANCH   1  18
ATOM     18  C   UNL     1       2.656   7.645  19.007  0.00  0.00    +0.000 C 
BRANCH  18  19
ATOM     19  N   UNL     1       1.601   8.557  19.450  0.00  0.00    +0.000 N 
ATOM     20  C   UNL     1       1.161   9.550  18.582  0.00  0.00    +0.000 C 
ATOM     21  O   UNL     1       1.628   9.742  17.464  0.00  0.00    +0.000 OA
ATOM     22  C   UNL     1       0.078  10.435  19.075  0.00  0.00    +0.000 A 
ATOM     23  C   UNL     1      -0.526  11.347  18.213  0.00  0.00    +0.000 A 
ATOM     24  C   UNL     1      -1.463  12.251  18.711  0.00  0.00    +0.000 A 
ATOM     25  C   UNL     1      -1.751  12.285  20.078  0.00  0.00    +0.000 A 
ATOM     26  C   UNL     1      -1.135  11.389  20.958  0.00  0.00    +0.000 A 
ATOM     27  C   UNL     1      -1.348  11.448  22.348  0.00  0.00    +0.000 A 
ATOM     28  C   UNL     1      -0.734  10.533  23.199  0.00  0.00    +0.000 A 
ATOM     29  C   UNL     1       0.044   9.520  22.657  0.00  0.00    +0.000 A 
ATOM     30  C   UNL     1       0.267   9.459  21.281  0.00  0.00    +0.000 A 
ATOM     31  C   UNL     1      -0.260  10.416  20.429  0.00  0.00    +0.000 A 
ATOM     32  C   UNL     1       1.060   8.362  20.711  0.00  0.00    +0.000 C 
ATOM     33  O   UNL     1       1.221   7.352  21.382  0.00  0.00    +0.000 OA
ENDBRANCH  18  19
ENDBRANCH   1  18
TORSDOF 8
ENDMDL
MODEL 4
REMARK VINA RESULT:      -8.1      3.510      9.218
REMARK  Name = 
REMARK  8 active torsions:
REMARK  status: ('A' for Active; 'I' for Inactive)
REMARK    1  A    between atoms: C_2  and  O_3
REMARK    2  A    between atoms: C_2  and  C_4
REMARK    3  A    between atoms: C_9  and  S_10
REMARK    4  A    between atoms: S_10  and  N_13
REMARK    5  A    between atoms: N_13  and  C_14
REMARK    6  A    between atoms: C_14  and  C_15
REMARK    7  A    between atoms: C_15  and  C_16
REMARK    8  A    between atoms: C_16  and  N_17
REMARK                            x       y       z     vdW  Elec       q    Type
REMARK                         _______ _______ _______ _____ _____    ______ ____
ROOT
ATOM      1  C   UNL     1       1.018   9.107  18.133  0.00  0.00    +0.000 C 
ENDROOT
BRANCH   1   2
ATOM      2  C   UNL     1       0.510  10.541  18.341  0.00  0.00    +0.000 C 
BRANCH   2   3
ATOM      3  N   UNL     1      -0.895  10.543  18.782  0.00  0.00    +0.000 NA
ATOM      4  H   UNL     1      -1.558  10.051  18.160  0.00  0.00    +0.000 HD
BRANCH   3   5
ATOM      5  S   UNL     1      -1.605  12.007  19.224  0.00  0.00    +0.000 S 
ATOM      6  O   UNL     1      -1.040  13.033  18.369  0.00  0.00    +0.000 OA
ATOM      7  O   UNL     1      -1.547  12.146  20.662  0.00  0.00    +0.000 OA
BRANCH   5  13
ATOM      8  C   UNL     1      -3.820  11.256  17.668  0.00  0.00    +0.000 A 
ATOM      9  C   UNL     1      -5.216  11.207  17.449  0.00  0.00    +0.000 A 
ATOM     10  C   UNL     1      -6.115  11.677  18.411  0.00  0.00    +0.000 A 
ATOM     11  C   UNL     1      -5.634  12.242  19.587  0.00  0.00    +0.000 A 
ATOM     12  C   UNL     1      -4.258  12.366  19.789  0.00  0.00    +0.000 A 
ATOM     13  C   UNL     1      -3.344  11.891  18.829  0.00  0.00    +0.000 A 
BRANCH   8  15
ATOM     14  O   UNL     1      -2.717   9.579  16.353  0.00  0.00    +0.000 OA
ATOM     15  C   UNL     1      -2.921  10.759  16.584  0.00  0.00    +0.000 C 
BRANCH  15  16
ATOM     16  O   UNL     1      -2.297  11.744  15.900  0.00  0.00    +0.000 OA
ATOM     17  H   UNL     1      -2.402  12.642  16.259  0.00  0.00    +0.000 HD
ENDBRANCH  15  16
ENDBRANCH   8  15
ENDBRANCH   5  13
ENDBRANCH   3   5
ENDBRANCH   2   3
ENDBRANCH   1   2
BRANCH   1  18
ATOM     18  C   UNL     1       2.245   8.711  18.969  0.00  0.00    +0.000 C 
BRANCH  18  19
ATOM     19  N   UNL     1       2.499   7.270  18.943  0.00  0.00    +0.000 N 
ATOM     20  C   UNL     1       3.313   6.748  17.944  0.00  0.00    +0.000 C 
ATOM     21  O   UNL     1       3.813   7.417  17.045  0.00  0.00    +0.000 OA
ATOM     22  C   UNL     1       3.551   5.284  17.976  0.00  0.00    +0.000 A 
ATOM     23  C   UNL     1       4.478   4.708  17.110  0.00  0.00    +0.000 A 
ATOM     24  C   UNL     1       4.614   3.322  17.067  0.00  0.00    +0.000 A 
ATOM     25  C   UNL     1       3.783   2.509  17.844  0.00  0.00    +0.000 A 
ATOM     26  C   UNL     1       2.833   3.074  18.701  0.00  0.00    +0.000 A 
ATOM     27  C   UNL     1       1.934   2.281  19.437  0.00  0.00    +0.000 A 
ATOM     28  C   UNL     1       1.009   2.870  20.295  0.00  0.00    +0.000 A 
ATOM     29  C   UNL     1       1.023   4.247  20.465  0.00  0.00    +0.000 A 
ATOM     30  C   UNL     1       1.906   5.040  19.733  0.00  0.00    +0.000 A 
ATOM     31  C   UNL     1       2.770   4.480  18.806  0.00  0.00    +0.000 A 
ATOM     32  C   UNL     1       1.942   6.493  19.946  0.00  0.00    +0.000 C 
ATOM     33  O   UNL     1       1.459   6.941  20.978  0.00  0.00    +0.000 OA
ENDBRANCH  18  19
ENDBRANCH   1  18
TORSDOF 8
ENDMDL
MODEL 5
REMARK VINA RESULT:      -8.0      1.959      3.405
REMARK  Name = 
REMARK  8 active torsions:
REMARK  status: ('A' for Active; 'I' for Inactive)
REMARK    1  A    between atoms: C_2  and  O_3
REMARK    2  A    between atoms: C_2  and  C_4
REMARK    3  A    between atoms: C_9  and  S_10
REMARK    4  A    between atoms: S_10  and  N_13
REMARK    5  A    between atoms: N_13  and  C_14
REMARK    6  A    between atoms: C_14  and  C_15
REMARK    7  A    between atoms: C_15  and  C_16
REMARK    8  A    between atoms: C_16  and  N_17
REMARK                            x       y       z     vdW  Elec       q    Type
REMARK                         _______ _______ _______ _____ _____    ______ ____
ROOT
ATOM      1  C   UNL     1       1.454   6.843  20.702  0.00  0.00    +0.000 C 
ENDROOT
BRANCH   1   2
ATOM      2  C   UNL     1       2.347   5.636  20.380  0.00  0.00    +0.000 C 
BRANCH   2   3
ATOM      3  N   UNL     1       2.894   5.734  19.017  0.00  0.00    +0.000 NA
ATOM      4  H   UNL     1       2.194   5.801  18.259  0.00  0.00    +0.000 HD
BRANCH   3   5
ATOM      5  S   UNL     1       4.064   4.623  18.529  0.00  0.00    +0.000 S 
ATOM      6  O   UNL     1       3.711   4.188  17.192  0.00  0.00    +0.000 OA
ATOM      7  O   UNL     1       4.262   3.651  19.581  0.00  0.00    +0.000 OA
BRANCH   5  13
ATOM      8  C   UNL     1       5.816   6.560  17.493  0.00  0.00    +0.000 A 
ATOM      9  C   UNL     1       7.074   7.204  17.477  0.00  0.00    +0.000 A 
ATOM     10  C   UNL     1       8.061   6.886  18.414  0.00  0.00    +0.000 A 
ATOM     11  C   UNL     1       7.824   5.889  19.355  0.00  0.00    +0.000 A 
ATOM     12  C   UNL     1       6.615   5.191  19.340  0.00  0.00    +0.000 A 
ATOM     13  C   UNL     1       5.612   5.507  18.404  0.00  0.00    +0.000 A 
BRANCH   8  15
ATOM     14  O   UNL     1       5.019   6.831  15.246  0.00  0.00    +0.000 OA
ATOM     15  C   UNL     1       4.821   6.935  16.445  0.00  0.00    +0.000 C 
BRANCH  15  16
ATOM     16  O   UNL     1       3.679   7.461  16.942  0.00  0.00    +0.000 OA
ATOM     17  H   UNL     1       3.632   7.534  17.912  0.00  0.00    +0.000 HD
ENDBRANCH  15  16
ENDBRANCH   8  15
ENDBRANCH   5  13
ENDBRANCH   3   5
ENDBRANCH   2   3
ENDBRANCH   1   2
BRANCH   1  18
ATOM     18  C   UNL     1       2.058   8.218  20.376  0.00  0.00    +0.000 C 
BRANCH  18  19
ATOM     19  N   UNL     1       1.036   9.235  20.127  0.00  0.00    +0.000 N 
ATOM     20  C   UNL     1       0.560   9.986  21.195  0.00  0.00    +0.000 C 
ATOM     21  O   UNL     1       0.916   9.830  22.358  0.00  0.00    +0.000 OA
ATOM     22  C   UNL     1      -0.463  11.015  20.883  0.00  0.00    +0.000 A 
ATOM     23  C   UNL     1      -0.873  11.913  21.866  0.00  0.00    +0.000 A 
ATOM     24  C   UNL     1      -1.913  12.801  21.598  0.00  0.00    +0.000 A 
ATOM     25  C   UNL     1      -2.584  12.751  20.373  0.00  0.00    +0.000 A 
ATOM     26  C   UNL     1      -2.198  11.838  19.386  0.00  0.00    +0.000 A 
ATOM     27  C   UNL     1      -2.900  11.713  18.174  0.00  0.00    +0.000 A 
ATOM     28  C   UNL     1      -2.483  10.808  17.202  0.00  0.00    +0.000 A 
ATOM     29  C   UNL     1      -1.327  10.070  17.415  0.00  0.00    +0.000 A 
ATOM     30  C   UNL     1      -0.629  10.182  18.618  0.00  0.00    +0.000 A 
ATOM     31  C   UNL     1      -1.081  11.009  19.633  0.00  0.00    +0.000 A 
ATOM     32  C   UNL     1       0.615   9.427  18.821  0.00  0.00    +0.000 C 
ATOM     33  O   UNL     1       1.195   8.989  17.837  0.00  0.00    +0.000 OA
ENDBRANCH  18  19
ENDBRANCH   1  18
TORSDOF 8
ENDMDL
MODEL 6
REMARK VINA RESULT:      -8.0      3.023      8.996
REMARK  Name = 
REMARK  8 active torsions:
REMARK  status: ('A' for Active; 'I' for Inactive)
REMARK    1  A    between atoms: C_2  and  O_3
REMARK    2  A    between atoms: C_2  and  C_4
REMARK    3  A    between atoms: C_9  and  S_10
REMARK    4  A    between atoms: S_10  and  N_13
REMARK    5  A    between atoms: N_13  and  C_14
REMARK    6  A    between atoms: C_14  and  C_15
REMARK    7  A    between atoms: C_15  and  C_16
REMARK    8  A    between atoms: C_16  and  N_17
REMARK                            x       y       z     vdW  Elec       q    Type
REMARK                         _______ _______ _______ _____ _____    ______ ____
ROOT
ATOM      1  C   UNL     1       1.370   9.144  18.053  0.00  0.00    +0.000 C 
ENDROOT
BRANCH   1   2
ATOM      2  C   UNL     1       1.049  10.486  18.726  0.00  0.00    +0.000 C 
BRANCH   2   3
ATOM      3  N   UNL     1       0.097  10.303  19.835  0.00  0.00    +0.000 NA
ATOM      4  H   UNL     1      -0.903  10.370  19.580  0.00  0.00    +0.000 HD
BRANCH   3   5
ATOM      5  S   UNL     1       0.319  11.190  21.251  0.00  0.00    +0.000 S 
ATOM      6  O   UNL     1       1.161  12.323  20.919  0.00  0.00    +0.000 OA
ATOM      7  O   UNL     1       0.699  10.291  22.318  0.00  0.00    +0.000 OA
BRANCH   5  13
ATOM      8  C   UNL     1      -2.159  12.435  20.805  0.00  0.00    +0.000 A 
ATOM      9  C   UNL     1      -3.405  12.910  21.275  0.00  0.00    +0.000 A 
ATOM     10  C   UNL     1      -3.806  12.699  22.598  0.00  0.00    +0.000 A 
ATOM     11  C   UNL     1      -2.952  12.049  23.482  0.00  0.00    +0.000 A 
ATOM     12  C   UNL     1      -1.688  11.637  23.056  0.00  0.00    +0.000 A 
ATOM     13  C   UNL     1      -1.276  11.840  21.724  0.00  0.00    +0.000 A 
BRANCH   8  15
ATOM     14  O   UNL     1      -2.097  12.011  18.444  0.00  0.00    +0.000 OA
ATOM     15  C   UNL     1      -1.788  12.720  19.387  0.00  0.00    +0.000 C 
BRANCH  15  16
ATOM     16  O   UNL     1      -1.020  13.823  19.236  0.00  0.00    +0.000 OA
ATOM     17  H   UNL     1      -1.477  14.675  19.344  0.00  0.00    +0.000 HD
ENDBRANCH  15  16
ENDBRANCH   8  15
ENDBRANCH   5  13
ENDBRANCH   3   5
ENDBRANCH   2   3
ENDBRANCH   1   2
BRANCH   1  18
ATOM     18  C   UNL     1       2.820   8.657  18.205  0.00  0.00    +0.000 C 
BRANCH  18  19
ATOM     19  N   UNL     1       2.906   7.215  18.434  0.00  0.00    +0.000 N 
ATOM     20  C   UNL     1       3.619   6.432  17.533  0.00  0.00    +0.000 C 
ATOM     21  O   UNL     1       4.161   6.867  16.523  0.00  0.00    +0.000 OA
ATOM     22  C   UNL     1       3.688   4.978  17.823  0.00  0.00    +0.000 A 
ATOM     23  C   UNL     1       4.512   4.153  17.061  0.00  0.00    +0.000 A 
ATOM     24  C   UNL     1       4.486   2.774  17.265  0.00  0.00    +0.000 A 
ATOM     25  C   UNL     1       3.595   2.215  18.186  0.00  0.00    +0.000 A 
ATOM     26  C   UNL     1       2.746   3.031  18.941  0.00  0.00    +0.000 A 
ATOM     27  C   UNL     1       1.787   2.494  19.819  0.00  0.00    +0.000 A 
ATOM     28  C   UNL     1       0.966   3.331  20.571  0.00  0.00    +0.000 A 
ATOM     29  C   UNL     1       1.145   4.705  20.491  0.00  0.00    +0.000 A 
ATOM     30  C   UNL     1       2.087   5.246  19.617  0.00  0.00    +0.000 A 
ATOM     31  C   UNL     1       2.849   4.432  18.794  0.00  0.00    +0.000 A 
ATOM     32  C   UNL     1       2.298   6.699  19.567  0.00  0.00    +0.000 C 
ATOM     33  O   UNL     1       1.905   7.375  20.508  0.00  0.00    +0.000 OA
ENDBRANCH  18  19
ENDBRANCH   1  18
TORSDOF 8
ENDMDL
MODEL 7
REMARK VINA RESULT:      -8.0      3.327      9.397
REMARK  Name = 
REMARK  8 active torsions:
REMARK  status: ('A' for Active; 'I' for Inactive)
REMARK    1  A    between atoms: C_2  and  O_3
REMARK    2  A    between atoms: C_2  and  C_4
REMARK    3  A    between atoms: C_9  and  S_10
REMARK    4  A    between atoms: S_10  and  N_13
REMARK    5  A    between atoms: N_13  and  C_14
REMARK    6  A    between atoms: C_14  and  C_15
REMARK    7  A    between atoms: C_15  and  C_16
REMARK    8  A    between atoms: C_16  and  N_17
REMARK                            x       y       z     vdW  Elec       q    Type
REMARK                         _______ _______ _______ _____ _____    ______ ____
ROOT
ATOM      1  C   UNL     1       0.292   8.512  20.509  0.00  0.00    +0.000 C 
ENDROOT
BRANCH   1   2
ATOM      2  C   UNL     1      -0.133   9.981  20.653  0.00  0.00    +0.000 C 
BRANCH   2   3
ATOM      3  N   UNL     1      -0.796  10.459  19.428  0.00  0.00    +0.000 NA
ATOM      4  H   UNL     1      -0.287  10.282  18.546  0.00  0.00    +0.000 HD
BRANCH   3   5
ATOM      5  S   UNL     1      -1.362  12.046  19.377  0.00  0.00    +0.000 S 
ATOM      6  O   UNL     1      -0.708  12.699  18.260  0.00  0.00    +0.000 OA
ATOM      7  O   UNL     1      -1.282  12.620  20.702  0.00  0.00    +0.000 OA
BRANCH   5  13
ATOM      8  C   UNL     1      -3.611  11.314  17.862  0.00  0.00    +0.000 A 
ATOM      9  C   UNL     1      -5.009  11.303  17.653  0.00  0.00    +0.000 A 
ATOM     10  C   UNL     1      -5.886  11.836  18.603  0.00  0.00    +0.000 A 
ATOM     11  C   UNL     1      -5.379  12.426  19.755  0.00  0.00    +0.000 A 
ATOM     12  C   UNL     1      -3.998  12.512  19.945  0.00  0.00    +0.000 A 
ATOM     13  C   UNL     1      -3.106  11.973  18.997  0.00  0.00    +0.000 A 
BRANCH   8  15
ATOM     14  O   UNL     1      -2.329   9.600  16.777  0.00  0.00    +0.000 OA
ATOM     15  C   UNL     1      -2.737  10.748  16.792  0.00  0.00    +0.000 C 
BRANCH  15  16
ATOM     16  O   UNL     1      -2.381  11.649  15.847  0.00  0.00    +0.000 OA
ATOM     17  H   UNL     1      -2.759  12.540  15.947  0.00  0.00    +0.000 HD
ENDBRANCH  15  16
ENDBRANCH   8  15
ENDBRANCH   5  13
ENDBRANCH   3   5
ENDBRANCH   2   3
ENDBRANCH   1   2
BRANCH   1  18
ATOM     18  C   UNL     1       1.803   8.248  20.609  0.00  0.00    +0.000 C 
BRANCH  18  19
ATOM     19  N   UNL     1       2.245   7.181  19.710  0.00  0.00    +0.000 N 
ATOM     20  C   UNL     1       2.054   5.858  20.091  0.00  0.00    +0.000 C 
ATOM     21  O   UNL     1       1.564   5.515  21.162  0.00  0.00    +0.000 OA
ATOM     22  C   UNL     1       2.506   4.817  19.135  0.00  0.00    +0.000 A 
ATOM     23  C   UNL     1       2.207   3.477  19.369  0.00  0.00    +0.000 A 
ATOM     24  C   UNL     1       2.731   2.497  18.528  0.00  0.00    +0.000 A 
ATOM     25  C   UNL     1       3.600   2.849  17.492  0.00  0.00    +0.000 A 
ATOM     26  C   UNL     1       3.926   4.189  17.260  0.00  0.00    +0.000 A 
ATOM     27  C   UNL     1       4.855   4.568  16.273  0.00  0.00    +0.000 A 
ATOM     28  C   UNL     1       5.148   5.911  16.053  0.00  0.00    +0.000 A 
ATOM     29  C   UNL     1       4.467   6.880  16.776  0.00  0.00    +0.000 A 
ATOM     30  C   UNL     1       3.551   6.513  17.762  0.00  0.00    +0.000 A 
ATOM     31  C   UNL     1       3.315   5.181  18.058  0.00  0.00    +0.000 A 
ATOM     32  C   UNL     1       2.805   7.544  18.496  0.00  0.00    +0.000 C 
ATOM     33  O   UNL     1       2.740   8.668  18.014  0.00  0.00    +0.000 OA
ENDBRANCH  18  19
ENDBRANCH   1  18
TORSDOF 8
ENDMDL
MODEL 8
REMARK VINA RESULT:      -7.9      2.136      3.786
REMARK  Name = 
REMARK  8 active torsions:
REMARK  status: ('A' for Active; 'I' for Inactive)
REMARK    1  A    between atoms: C_2  and  O_3
REMARK    2  A    between atoms: C_2  and  C_4
REMARK    3  A    between atoms: C_9  and  S_10
REMARK    4  A    between atoms: S_10  and  N_13
REMARK    5  A    between atoms: N_13  and  C_14
REMARK    6  A    between atoms: C_14  and  C_15
REMARK    7  A    between atoms: C_15  and  C_16
REMARK    8  A    between atoms: C_16  and  N_17
REMARK                            x       y       z     vdW  Elec       q    Type
REMARK                         _______ _______ _______ _____ _____    ______ ____
ROOT
ATOM      1  C   UNL     1       1.376   8.535  21.537  0.00  0.00    +0.000 C 
ENDROOT
BRANCH   1   2
ATOM      2  C   UNL     1       1.195   7.181  20.836  0.00  0.00    +0.000 C 
BRANCH   2   3
ATOM      3  N   UNL     1       2.351   6.874  19.977  0.00  0.00    +0.000 NA
ATOM      4  H   UNL     1       2.447   7.460  19.132  0.00  0.00    +0.000 HD
BRANCH   3   5
ATOM      5  S   UNL     1       2.619   5.274  19.518  0.00  0.00    +0.000 S 
ATOM      6  O   UNL     1       1.347   4.735  19.077  0.00  0.00    +0.000 OA
ATOM      7  O   UNL     1       3.372   4.603  20.554  0.00  0.00    +0.000 OA
BRANCH   5  13
ATOM      8  C   UNL     1       4.079   4.145  17.400  0.00  0.00    +0.000 A 
ATOM      9  C   UNL     1       4.930   4.276  16.278  0.00  0.00    +0.000 A 
ATOM     10  C   UNL     1       5.301   5.535  15.797  0.00  0.00    +0.000 A 
ATOM     11  C   UNL     1       4.864   6.681  16.452  0.00  0.00    +0.000 A 
ATOM     12  C   UNL     1       4.083   6.570  17.604  0.00  0.00    +0.000 A 
ATOM     13  C   UNL     1       3.699   5.307  18.095  0.00  0.00    +0.000 A 
BRANCH   8  15
ATOM     14  O   UNL     1       2.793   2.121  17.475  0.00  0.00    +0.000 OA
ATOM     15  C   UNL     1       3.747   2.768  17.872  0.00  0.00    +0.000 C 
BRANCH  15  16
ATOM     16  O   UNL     1       4.576   2.308  18.836  0.00  0.00    +0.000 OA
ATOM     17  H   UNL     1       5.374   1.847  18.525  0.00  0.00    +0.000 HD
ENDBRANCH  15  16
ENDBRANCH   8  15
ENDBRANCH   5  13
ENDBRANCH   3   5
ENDBRANCH   2   3
ENDBRANCH   1   2
BRANCH   1  18
ATOM     18  C   UNL     1       1.648   9.729  20.608  0.00  0.00    +0.000 C 
BRANCH  18  19
ATOM     19  N   UNL     1       0.417  10.339  20.104  0.00  0.00    +0.000 N 
ATOM     20  C   UNL     1      -0.333  11.142  20.954  0.00  0.00    +0.000 C 
ATOM     21  O   UNL     1      -0.051  11.352  22.130  0.00  0.00    +0.000 OA
ATOM     22  C   UNL     1      -1.562  11.749  20.386  0.00  0.00    +0.000 A 
ATOM     23  C   UNL     1      -2.281  12.690  21.121  0.00  0.00    +0.000 A 
ATOM     24  C   UNL     1      -3.493  13.170  20.628  0.00  0.00    +0.000 A 
ATOM     25  C   UNL     1      -4.017  12.666  19.434  0.00  0.00    +0.000 A 
ATOM     26  C   UNL     1      -3.317  11.705  18.699  0.00  0.00    +0.000 A 
ATOM     27  C   UNL     1      -3.852  11.125  17.534  0.00  0.00    +0.000 A 
ATOM     28  C   UNL     1      -3.126  10.182  16.812  0.00  0.00    +0.000 A 
ATOM     29  C   UNL     1      -1.838   9.863  17.219  0.00  0.00    +0.000 A 
ATOM     30  C   UNL     1      -1.303  10.426  18.377  0.00  0.00    +0.000 A 
ATOM     31  C   UNL     1      -2.045  11.296  19.158  0.00  0.00    +0.000 A 
ATOM     32  C   UNL     1       0.075  10.114  18.780  0.00  0.00    +0.000 C 
ATOM     33  O   UNL     1       0.835   9.650  17.940  0.00  0.00    +0.000 OA
ENDBRANCH  18  19
ENDBRANCH   1  18
TORSDOF 8
ENDMDL
MODEL 9
REMARK VINA RESULT:      -7.9      0.729      2.578
REMARK  Name = 
REMARK  8 active torsions:
REMARK  status: ('A' for Active; 'I' for Inactive)
REMARK    1  A    between atoms: C_2  and  O_3
REMARK    2  A    between atoms: C_2  and  C_4
REMARK    3  A    between atoms: C_9  and  S_10
REMARK    4  A    between atoms: S_10  and  N_13
REMARK    5  A    between atoms: N_13  and  C_14
REMARK    6  A    between atoms: C_14  and  C_15
REMARK    7  A    between atoms: C_15  and  C_16
REMARK    8  A    between atoms: C_16  and  N_17
REMARK                            x       y       z     vdW  Elec       q    Type
REMARK                         _______ _______ _______ _____ _____    ______ ____
ROOT
ATOM      1  C   UNL     1       1.737   6.077  18.401  0.00  0.00    +0.000 C 
ENDROOT
BRANCH   1   2
ATOM      2  C   UNL     1       2.520   4.933  17.739  0.00  0.00    +0.000 C 
BRANCH   2   3
ATOM      3  N   UNL     1       3.169   4.085  18.752  0.00  0.00    +0.000 NA
ATOM      4  H   UNL     1       2.701   4.050  19.673  0.00  0.00    +0.000 HD
BRANCH   3   5
ATOM      5  S   UNL     1       4.822   4.273  19.031  0.00  0.00    +0.000 S 
ATOM      6  O   UNL     1       5.301   3.036  19.617  0.00  0.00    +0.000 OA
ATOM      7  O   UNL     1       5.048   5.532  19.705  0.00  0.00    +0.000 OA
BRANCH   5  13
ATOM      8  C   UNL     1       6.910   4.955  17.280  0.00  0.00    +0.000 A 
ATOM      9  C   UNL     1       7.451   5.039  15.977  0.00  0.00    +0.000 A 
ATOM     10  C   UNL     1       6.763   4.523  14.875  0.00  0.00    +0.000 A 
ATOM     11  C   UNL     1       5.506   3.954  15.050  0.00  0.00    +0.000 A 
ATOM     12  C   UNL     1       4.924   3.929  16.319  0.00  0.00    +0.000 A 
ATOM     13  C   UNL     1       5.610   4.441  17.436  0.00  0.00    +0.000 A 
BRANCH   8  15
ATOM     14  O   UNL     1       8.272   4.899  19.255  0.00  0.00    +0.000 OA
ATOM     15  C   UNL     1       7.691   5.551  18.405  0.00  0.00    +0.000 C 
BRANCH  15  16
ATOM     16  O   UNL     1       7.656   6.903  18.435  0.00  0.00    +0.000 OA
ATOM     17  H   UNL     1       7.557   7.305  19.316  0.00  0.00    +0.000 HD
ENDBRANCH  15  16
ENDBRANCH   8  15
ENDBRANCH   5  13
ENDBRANCH   3   5
ENDBRANCH   2   3
ENDBRANCH   1   2
BRANCH   1  18
ATOM     18  C   UNL     1       2.500   7.402  18.548  0.00  0.00    +0.000 C 
BRANCH  18  19
ATOM     19  N   UNL     1       1.725   8.420  19.259  0.00  0.00    +0.000 N 
ATOM     20  C   UNL     1       1.366   8.190  20.582  0.00  0.00    +0.000 C 
ATOM     21  O   UNL     1       1.627   7.161  21.197  0.00  0.00    +0.000 OA
ATOM     22  C   UNL     1       0.595   9.262  21.259  0.00  0.00    +0.000 A 
ATOM     23  C   UNL     1       0.336   9.180  22.626  0.00  0.00    +0.000 A 
ATOM     24  C   UNL     1      -0.483  10.131  23.231  0.00  0.00    +0.000 A 
ATOM     25  C   UNL     1      -1.092  11.127  22.463  0.00  0.00    +0.000 A 
ATOM     26  C   UNL     1      -0.858  11.208  21.086  0.00  0.00    +0.000 A 
ATOM     27  C   UNL     1      -1.513  12.153  20.275  0.00  0.00    +0.000 A 
ATOM     28  C   UNL     1      -1.249  12.221  18.910  0.00  0.00    +0.000 A 
ATOM     29  C   UNL     1      -0.283  11.387  18.365  0.00  0.00    +0.000 A 
ATOM     30  C   UNL     1       0.366  10.442  19.159  0.00  0.00    +0.000 A 
ATOM     31  C   UNL     1       0.049  10.297  20.500  0.00  0.00    +0.000 A 
ATOM     32  C   UNL     1       1.414   9.589  18.584  0.00  0.00    +0.000 C 
ATOM     33  O   UNL     1       1.937   9.940  17.534  0.00  0.00    +0.000 OA
ENDBRANCH  18  19
ENDBRANCH   1  18
TORSDOF 8
ENDMDL
