MODEL 1
REMARK VINA RESULT:      -9.2      0.000      0.000
REMARK  Name = 
REMARK  2 active torsions:
REMARK  status: ('A' for Active; 'I' for Inactive)
REMARK    1  A    between atoms: N_3  and  C_4
REMARK    2  A    between atoms: C_7  and  C_8
REMARK                            x       y       z     vdW  Elec       q    Type
REMARK                         _______ _______ _______ _____ _____    ______ ____
ROOT
ATOM      1  C   UNL     1       2.620   7.630  18.603  0.00  0.00    +0.000 A 
ATOM      2  C   UNL     1       1.943   8.759  18.158  0.00  0.00    +0.000 A 
ATOM      3  C   UNL     1       1.042   9.412  19.001  0.00  0.00    +0.000 A 
ATOM      4  C   UNL     1       0.882   9.013  20.328  0.00  0.00    +0.000 A 
ATOM      5  C   UNL     1       1.528   7.846  20.761  0.00  0.00    +0.000 A 
ATOM      6  C   UNL     1       2.384   7.154  19.893  0.00  0.00    +0.000 A 
ENDROOT
BRANCH   1   9
ATOM      7  O   UNL     1       2.852   4.745  18.110  0.00  0.00    +0.000 OA
ATOM      8  C   UNL     1       3.616   5.566  17.632  0.00  0.00    +0.000 C 
ATOM      9  N   UNL     1       3.531   6.928  17.784  0.00  0.00    +0.000 N 
ATOM     10  N   UNL     1       4.641   5.168  16.803  0.00  0.00    +0.000 N 
ATOM     11  C   UNL     1       4.619   3.831  16.227  0.00  0.00    +0.000 C 
ATOM     12  C   UNL     1       5.479   4.017  15.019  0.00  0.00    +0.000 A 
ATOM     13  C   UNL     1       5.349   3.516  13.741  0.00  0.00    +0.000 A 
ATOM     14  C   UNL     1       6.255   3.959  12.777  0.00  0.00    +0.000 A 
ATOM     15  C   UNL     1       7.318   4.806  13.137  0.00  0.00    +0.000 A 
ATOM     16  F   UNL     1       8.206   5.159  12.197  0.00  0.00    +0.000 F 
ATOM     17  C   UNL     1       7.403   5.370  14.392  0.00  0.00    +0.000 A 
ATOM     18  C   UNL     1       6.378   5.062  15.261  0.00  0.00    +0.000 A 
ATOM     19  C   UNL     1       5.718   5.982  16.244  0.00  0.00    +0.000 C 
ATOM     20  H   UNL     1       4.037   7.491  17.124  0.00  0.00    +0.000 HD
ENDBRANCH   1   9
BRANCH   4  21
ATOM     21  C   UNL     1      -0.014   9.743  21.261  0.00  0.00    +0.000 C 
ATOM     22  O   UNL     1      -0.800   9.050  21.910  0.00  0.00    +0.000 OA
ATOM     23  N   UNL     1       0.078  11.132  21.416  0.00  0.00    +0.000 N 
ATOM     24  C   UNL     1      -0.808  11.781  22.378  0.00  0.00    +0.000 C 
ATOM     25  C   UNL     1      -2.005  12.502  21.767  0.00  0.00    +0.000 C 
ATOM     26  C   UNL     1      -1.844  13.132  20.383  0.00  0.00    +0.000 C 
ATOM     27  C   UNL     1      -0.532  13.889  20.086  0.00  0.00    +0.000 C 
ATOM     28  C   UNL     1      -0.130  14.887  21.178  0.00  0.00    +0.000 C 
ATOM     29  C   UNL     1       0.363  16.093  20.407  0.00  0.00    +0.000 C 
ATOM     30  C   UNL     1      -0.595  16.132  19.242  0.00  0.00    +0.000 C 
ATOM     31  N   UNL     1      -0.789  14.728  18.872  0.00  0.00    +0.000 NA
ATOM     32  C   UNL     1       0.604  12.907  19.721  0.00  0.00    +0.000 C 
ATOM     33  C   UNL     1       1.112  11.997  20.841  0.00  0.00    +0.000 C 
ATOM     34  H   UNL     1      -0.132  14.490  18.129  0.00  0.00    +0.000 HD
ENDBRANCH   4  21
TORSDOF 2
ENDMDL
MODEL 2
REMARK VINA RESULT:      -9.1      3.527     10.447
REMARK  Name = 
REMARK  2 active torsions:
REMARK  status: ('A' for Active; 'I' for Inactive)
REMARK    1  A    between atoms: N_3  and  C_4
REMARK    2  A    between atoms: C_7  and  C_8
REMARK                            x       y       z     vdW  Elec       q    Type
REMARK                         _______ _______ _______ _____ _____    ______ ____
ROOT
ATOM      1  C   UNL     1       1.119  10.516  19.752  0.00  0.00    +0.000 A 
ATOM      2  C   UNL     1       0.889   9.843  20.945  0.00  0.00    +0.000 A 
ATOM      3  C   UNL     1       1.128   8.471  21.032  0.00  0.00    +0.000 A 
ATOM      4  C   UNL     1       1.697   7.772  19.967  0.00  0.00    +0.000 A 
ATOM      5  C   UNL     1       1.883   8.441  18.748  0.00  0.00    +0.000 A 
ATOM      6  C   UNL     1       1.583   9.807  18.644  0.00  0.00    +0.000 A 
ENDROOT
BRANCH   1   9
ATOM      7  O   UNL     1       2.436  12.784  21.073  0.00  0.00    +0.000 OA
ATOM      8  C   UNL     1       1.505  12.914  20.297  0.00  0.00    +0.000 C 
ATOM      9  N   UNL     1       0.881  11.901  19.611  0.00  0.00    +0.000 N 
ATOM     10  N   UNL     1       1.026  14.167  19.982  0.00  0.00    +0.000 N 
ATOM     11  C   UNL     1       1.826  15.341  20.301  0.00  0.00    +0.000 C 
ATOM     12  C   UNL     1       1.291  16.335  19.322  0.00  0.00    +0.000 A 
ATOM     13  C   UNL     1       1.941  17.295  18.576  0.00  0.00    +0.000 A 
ATOM     14  C   UNL     1       1.185  18.012  17.647  0.00  0.00    +0.000 A 
ATOM     15  C   UNL     1      -0.205  17.822  17.563  0.00  0.00    +0.000 A 
ATOM     16  F   UNL     1      -0.907  18.576  16.704  0.00  0.00    +0.000 F 
ATOM     17  C   UNL     1      -0.841  16.810  18.249  0.00  0.00    +0.000 A 
ATOM     18  C   UNL     1      -0.030  15.994  19.008  0.00  0.00    +0.000 A 
ATOM     19  C   UNL     1      -0.147  14.510  19.182  0.00  0.00    +0.000 C 
ATOM     20  H   UNL     1       0.335  12.163  18.811  0.00  0.00    +0.000 HD
ENDBRANCH   1   9
BRANCH   4  21
ATOM     21  C   UNL     1       2.030   6.328  20.068  0.00  0.00    +0.000 C 
ATOM     22  O   UNL     1       1.709   5.771  21.120  0.00  0.00    +0.000 OA
ATOM     23  N   UNL     1       2.631   5.647  19.002  0.00  0.00    +0.000 N 
ATOM     24  C   UNL     1       2.896   4.220  19.155  0.00  0.00    +0.000 C 
ATOM     25  C   UNL     1       4.349   3.864  19.453  0.00  0.00    +0.000 C 
ATOM     26  C   UNL     1       5.449   4.752  18.871  0.00  0.00    +0.000 C 
ATOM     27  C   UNL     1       5.287   5.237  17.414  0.00  0.00    +0.000 C 
ATOM     28  C   UNL     1       4.920   4.122  16.427  0.00  0.00    +0.000 C 
ATOM     29  C   UNL     1       5.762   4.425  15.205  0.00  0.00    +0.000 C 
ATOM     30  C   UNL     1       7.052   4.905  15.826  0.00  0.00    +0.000 C 
ATOM     31  N   UNL     1       6.633   5.717  16.971  0.00  0.00    +0.000 NA
ATOM     32  C   UNL     1       4.329   6.448  17.336  0.00  0.00    +0.000 C 
ATOM     33  C   UNL     1       2.857   6.181  17.656  0.00  0.00    +0.000 C 
ATOM     34  H   UNL     1       6.586   6.695  16.682  0.00  0.00    +0.000 HD
ENDBRANCH   4  21
TORSDOF 2
ENDMDL
MODEL 3
REMARK VINA RESULT:      -9.1      3.470      5.292
REMARK  Name = 
REMARK  2 active torsions:
REMARK  status: ('A' for Active; 'I' for Inactive)
REMARK    1  A    between atoms: N_3  and  C_4
REMARK    2  A    between atoms: C_7  and  C_8
REMARK                            x       y       z     vdW  Elec       q    Type
REMARK                         _______ _______ _______ _____ _____    ______ ____
ROOT
ATOM      1  C   UNL     1       0.582   9.858  21.018  0.00  0.00    +0.000 A 
ATOM      2  C   UNL     1       0.732  11.117  20.451  0.00  0.00    +0.000 A 
ATOM      3  C   UNL     1       0.089  12.220  21.014  0.00  0.00    +0.000 A 
ATOM      4  C   UNL     1      -0.625  12.104  22.206  0.00  0.00    +0.000 A 
ATOM      5  C   UNL     1      -0.817  10.826  22.752  0.00  0.00    +0.000 A 
ATOM      6  C   UNL     1      -0.221   9.709  22.149  0.00  0.00    +0.000 A 
ENDROOT
BRANCH   1   9
ATOM      7  O   UNL     1       1.884   9.488  18.413  0.00  0.00    +0.000 OA
ATOM      8  C   UNL     1       1.755   8.589  19.228  0.00  0.00    +0.000 C 
ATOM      9  N   UNL     1       1.203   8.710  20.478  0.00  0.00    +0.000 N 
ATOM     10  N   UNL     1       2.244   7.329  18.962  0.00  0.00    +0.000 N 
ATOM     11  C   UNL     1       3.197   7.143  17.877  0.00  0.00    +0.000 C 
ATOM     12  C   UNL     1       3.881   5.884  18.299  0.00  0.00    +0.000 A 
ATOM     13  C   UNL     1       5.209   5.520  18.230  0.00  0.00    +0.000 A 
ATOM     14  C   UNL     1       5.579   4.308  18.815  0.00  0.00    +0.000 A 
ATOM     15  C   UNL     1       4.603   3.455  19.360  0.00  0.00    +0.000 A 
ATOM     16  F   UNL     1       4.988   2.270  19.855  0.00  0.00    +0.000 F 
ATOM     17  C   UNL     1       3.291   3.852  19.502  0.00  0.00    +0.000 A 
ATOM     18  C   UNL     1       3.002   5.135  19.090  0.00  0.00    +0.000 A 
ATOM     19  C   UNL     1       2.076   6.111  19.751  0.00  0.00    +0.000 C 
ATOM     20  H   UNL     1       1.410   7.984  21.139  0.00  0.00    +0.000 HD
ENDBRANCH   1   9
BRANCH   4  21
ATOM     21  C   UNL     1      -1.251  13.280  22.861  0.00  0.00    +0.000 C 
ATOM     22  O   UNL     1      -0.596  13.812  23.761  0.00  0.00    +0.000 OA
ATOM     23  N   UNL     1      -2.492  13.771  22.436  0.00  0.00    +0.000 N 
ATOM     24  C   UNL     1      -3.032  14.954  23.100  0.00  0.00    +0.000 C 
ATOM     25  C   UNL     1      -4.133  14.675  24.117  0.00  0.00    +0.000 C 
ATOM     26  C   UNL     1      -5.065  13.487  23.872  0.00  0.00    +0.000 C 
ATOM     27  C   UNL     1      -5.570  13.254  22.433  0.00  0.00    +0.000 C 
ATOM     28  C   UNL     1      -6.123  14.515  21.758  0.00  0.00    +0.000 C 
ATOM     29  C   UNL     1      -7.356  14.028  21.027  0.00  0.00    +0.000 C 
ATOM     30  C   UNL     1      -7.916  13.018  21.999  0.00  0.00    +0.000 C 
ATOM     31  N   UNL     1      -6.741  12.327  22.536  0.00  0.00    +0.000 NA
ATOM     32  C   UNL     1      -4.501  12.535  21.579  0.00  0.00    +0.000 C 
ATOM     33  C   UNL     1      -3.234  13.329  21.253  0.00  0.00    +0.000 C 
ATOM     34  H   UNL     1      -6.576  11.482  21.989  0.00  0.00    +0.000 HD
ENDBRANCH   4  21
TORSDOF 2
ENDMDL
MODEL 4
REMARK VINA RESULT:      -9.1      2.082      2.782
REMARK  Name = 
REMARK  2 active torsions:
REMARK  status: ('A' for Active; 'I' for Inactive)
REMARK    1  A    between atoms: N_3  and  C_4
REMARK    2  A    between atoms: C_7  and  C_8
REMARK                            x       y       z     vdW  Elec       q    Type
REMARK                         _______ _______ _______ _____ _____    ______ ____
ROOT
ATOM      1  C   UNL     1       1.344   8.560  20.857  0.00  0.00    +0.000 A 
ATOM      2  C   UNL     1       0.479   9.322  20.082  0.00  0.00    +0.000 A 
ATOM      3  C   UNL     1      -0.381  10.238  20.689  0.00  0.00    +0.000 A 
ATOM      4  C   UNL     1      -0.319  10.482  22.061  0.00  0.00    +0.000 A 
ATOM      5  C   UNL     1       0.519   9.678  22.848  0.00  0.00    +0.000 A 
ATOM      6  C   UNL     1       1.337   8.714  22.243  0.00  0.00    +0.000 A 
ENDROOT
BRANCH   1   9
ATOM      7  O   UNL     1       1.019   5.658  20.547  0.00  0.00    +0.000 OA
ATOM      8  C   UNL     1       2.030   6.255  20.217  0.00  0.00    +0.000 C 
ATOM      9  N   UNL     1       2.224   7.611  20.291  0.00  0.00    +0.000 N 
ATOM     10  N   UNL     1       3.089   5.578  19.654  0.00  0.00    +0.000 N 
ATOM     11  C   UNL     1       2.888   4.229  19.143  0.00  0.00    +0.000 C 
ATOM     12  C   UNL     1       3.999   4.122  18.150  0.00  0.00    +0.000 A 
ATOM     13  C   UNL     1       4.028   3.548  16.897  0.00  0.00    +0.000 A 
ATOM     14  C   UNL     1       5.191   3.703  16.141  0.00  0.00    +0.000 A 
ATOM     15  C   UNL     1       6.318   4.336  16.694  0.00  0.00    +0.000 A 
ATOM     16  F   UNL     1       7.439   4.409  15.961  0.00  0.00    +0.000 F 
ATOM     17  C   UNL     1       6.265   4.978  17.912  0.00  0.00    +0.000 A 
ATOM     18  C   UNL     1       5.039   4.972  18.543  0.00  0.00    +0.000 A 
ATOM     19  C   UNL     1       4.414   6.094  19.316  0.00  0.00    +0.000 C 
ATOM     20  H   UNL     1       2.969   7.995  19.738  0.00  0.00    +0.000 HD
ENDBRANCH   1   9
BRANCH   4  21
ATOM     21  C   UNL     1      -1.173  11.508  22.713  0.00  0.00    +0.000 C 
ATOM     22  O   UNL     1      -2.073  11.080  23.439  0.00  0.00    +0.000 OA
ATOM     23  N   UNL     1      -0.924  12.874  22.538  0.00  0.00    +0.000 N 
ATOM     24  C   UNL     1      -1.779  13.828  23.238  0.00  0.00    +0.000 C 
ATOM     25  C   UNL     1      -2.844  14.495  22.373  0.00  0.00    +0.000 C 
ATOM     26  C   UNL     1      -2.529  14.744  20.897  0.00  0.00    +0.000 C 
ATOM     27  C   UNL     1      -1.121  15.265  20.540  0.00  0.00    +0.000 C 
ATOM     28  C   UNL     1      -0.665  16.455  21.393  0.00  0.00    +0.000 C 
ATOM     29  C   UNL     1       0.013  17.376  20.400  0.00  0.00    +0.000 C 
ATOM     30  C   UNL     1      -0.865  17.224  19.182  0.00  0.00    +0.000 C 
ATOM     31  N   UNL     1      -1.205  15.799  19.144  0.00  0.00    +0.000 NA
ATOM     32  C   UNL     1      -0.091  14.111  20.519  0.00  0.00    +0.000 C 
ATOM     33  C   UNL     1       0.238  13.460  21.864  0.00  0.00    +0.000 C 
ATOM     34  H   UNL     1      -0.540  15.318  18.538  0.00  0.00    +0.000 HD
ENDBRANCH   4  21
TORSDOF 2
ENDMDL
MODEL 5
REMARK VINA RESULT:      -9.0      3.423      5.244
REMARK  Name = 
REMARK  2 active torsions:
REMARK  status: ('A' for Active; 'I' for Inactive)
REMARK    1  A    between atoms: N_3  and  C_4
REMARK    2  A    between atoms: C_7  and  C_8
REMARK                            x       y       z     vdW  Elec       q    Type
REMARK                         _______ _______ _______ _____ _____    ______ ____
ROOT
ATOM      1  C   UNL     1       0.879  10.128  19.358  0.00  0.00    +0.000 A 
ATOM      2  C   UNL     1       1.621  11.112  19.999  0.00  0.00    +0.000 A 
ATOM      3  C   UNL     1       1.167  12.432  20.015  0.00  0.00    +0.000 A 
ATOM      4  C   UNL     1      -0.079  12.769  19.487  0.00  0.00    +0.000 A 
ATOM      5  C   UNL     1      -0.804  11.786  18.798  0.00  0.00    +0.000 A 
ATOM      6  C   UNL     1      -0.316  10.474  18.728  0.00  0.00    +0.000 A 
ENDROOT
BRANCH   1   9
ATOM      7  O   UNL     1       1.255   8.196  21.537  0.00  0.00    +0.000 OA
ATOM      8  C   UNL     1       1.503   7.942  20.370  0.00  0.00    +0.000 C 
ATOM      9  N   UNL     1       1.303   8.782  19.303  0.00  0.00    +0.000 N 
ATOM     10  N   UNL     1       1.967   6.696  20.009  0.00  0.00    +0.000 N 
ATOM     11  C   UNL     1       1.847   5.588  20.945  0.00  0.00    +0.000 C 
ATOM     12  C   UNL     1       1.880   4.416  20.019  0.00  0.00    +0.000 A 
ATOM     13  C   UNL     1       1.163   3.239  20.038  0.00  0.00    +0.000 A 
ATOM     14  C   UNL     1       1.326   2.365  18.962  0.00  0.00    +0.000 A 
ATOM     15  C   UNL     1       2.269   2.643  17.957  0.00  0.00    +0.000 A 
ATOM     16  F   UNL     1       2.444   1.748  16.973  0.00  0.00    +0.000 F 
ATOM     17  C   UNL     1       2.926   3.853  17.895  0.00  0.00    +0.000 A 
ATOM     18  C   UNL     1       2.593   4.771  18.867  0.00  0.00    +0.000 A 
ATOM     19  C   UNL     1       2.432   6.251  18.698  0.00  0.00    +0.000 C 
ATOM     20  H   UNL     1       1.279   8.362  18.392  0.00  0.00    +0.000 HD
ENDBRANCH   1   9
BRANCH   4  21
ATOM     21  C   UNL     1      -0.612  14.153  19.565  0.00  0.00    +0.000 C 
ATOM     22  O   UNL     1      -0.384  14.876  18.592  0.00  0.00    +0.000 OA
ATOM     23  N   UNL     1      -1.367  14.578  20.665  0.00  0.00    +0.000 N 
ATOM     24  C   UNL     1      -1.892  15.940  20.659  0.00  0.00    +0.000 C 
ATOM     25  C   UNL     1      -1.124  16.931  21.528  0.00  0.00    +0.000 C 
ATOM     26  C   UNL     1      -0.455  16.413  22.802  0.00  0.00    +0.000 C 
ATOM     27  C   UNL     1      -1.243  15.410  23.671  0.00  0.00    +0.000 C 
ATOM     28  C   UNL     1      -2.686  15.840  23.962  0.00  0.00    +0.000 C 
ATOM     29  C   UNL     1      -2.889  15.477  25.418  0.00  0.00    +0.000 C 
ATOM     30  C   UNL     1      -1.545  15.817  26.014  0.00  0.00    +0.000 C 
ATOM     31  N   UNL     1      -0.571  15.384  25.009  0.00  0.00    +0.000 NA
ATOM     32  C   UNL     1      -1.147  13.979  23.092  0.00  0.00    +0.000 C 
ATOM     33  C   UNL     1      -1.851  13.730  21.757  0.00  0.00    +0.000 C 
ATOM     34  H   UNL     1      -0.263  14.438  25.235  0.00  0.00    +0.000 HD
ENDBRANCH   4  21
TORSDOF 2
ENDMDL
MODEL 6
REMARK VINA RESULT:      -8.9      5.059     11.878
REMARK  Name = 
REMARK  2 active torsions:
REMARK  status: ('A' for Active; 'I' for Inactive)
REMARK    1  A    between atoms: N_3  and  C_4
REMARK    2  A    between atoms: C_7  and  C_8
REMARK                            x       y       z     vdW  Elec       q    Type
REMARK                         _______ _______ _______ _____ _____    ______ ____
ROOT
ATOM      1  C   UNL     1      -0.861  11.045  20.164  0.00  0.00    +0.000 A 
ATOM      2  C   UNL     1      -1.003  10.717  18.821  0.00  0.00    +0.000 A 
ATOM      3  C   UNL     1      -0.046   9.920  18.191  0.00  0.00    +0.000 A 
ATOM      4  C   UNL     1       1.005   9.354  18.912  0.00  0.00    +0.000 A 
ATOM      5  C   UNL     1       1.174   9.725  20.254  0.00  0.00    +0.000 A 
ATOM      6  C   UNL     1       0.247  10.577  20.869  0.00  0.00    +0.000 A 
ENDROOT
BRANCH   1   9
ATOM      7  O   UNL     1      -1.453  13.901  19.819  0.00  0.00    +0.000 OA
ATOM      8  C   UNL     1      -1.992  13.205  20.664  0.00  0.00    +0.000 C 
ATOM      9  N   UNL     1      -1.796  11.858  20.842  0.00  0.00    +0.000 N 
ATOM     10  N   UNL     1      -2.941  13.739  21.507  0.00  0.00    +0.000 N 
ATOM     11  C   UNL     1      -3.546  15.023  21.184  0.00  0.00    +0.000 C 
ATOM     12  C   UNL     1      -4.837  14.936  21.931  0.00  0.00    +0.000 A 
ATOM     13  C   UNL     1      -6.105  15.347  21.578  0.00  0.00    +0.000 A 
ATOM     14  C   UNL     1      -7.153  15.026  22.443  0.00  0.00    +0.000 A 
ATOM     15  C   UNL     1      -6.892  14.398  23.673  0.00  0.00    +0.000 A 
ATOM     16  F   UNL     1      -7.916  14.164  24.506  0.00  0.00    +0.000 F 
ATOM     17  C   UNL     1      -5.640  13.916  23.990  0.00  0.00    +0.000 A 
ATOM     18  C   UNL     1      -4.670  14.078  23.024  0.00  0.00    +0.000 A 
ATOM     19  C   UNL     1      -3.595  13.103  22.648  0.00  0.00    +0.000 C 
ATOM     20  H   UNL     1      -2.492  11.363  21.369  0.00  0.00    +0.000 HD
ENDBRANCH   1   9
BRANCH   4  21
ATOM     21  C   UNL     1       1.988   8.441  18.275  0.00  0.00    +0.000 C 
ATOM     22  O   UNL     1       2.391   8.774  17.158  0.00  0.00    +0.000 OA
ATOM     23  N   UNL     1       2.453   7.300  18.939  0.00  0.00    +0.000 N 
ATOM     24  C   UNL     1       3.447   6.467  18.270  0.00  0.00    +0.000 C 
ATOM     25  C   UNL     1       2.901   5.185  17.649  0.00  0.00    +0.000 C 
ATOM     26  C   UNL     1       1.712   4.501  18.324  0.00  0.00    +0.000 C 
ATOM     27  C   UNL     1       1.713   4.412  19.865  0.00  0.00    +0.000 C 
ATOM     28  C   UNL     1       3.031   3.899  20.457  0.00  0.00    +0.000 C 
ATOM     29  C   UNL     1       2.595   2.964  21.565  0.00  0.00    +0.000 C 
ATOM     30  C   UNL     1       1.382   2.303  20.955  0.00  0.00    +0.000 C 
ATOM     31  N   UNL     1       0.696   3.377  20.234  0.00  0.00    +0.000 NA
ATOM     32  C   UNL     1       1.248   5.744  20.497  0.00  0.00    +0.000 C 
ATOM     33  C   UNL     1       2.183   6.945  20.335  0.00  0.00    +0.000 C 
ATOM     34  H   UNL     1      -0.018   3.779  20.843  0.00  0.00    +0.000 HD
ENDBRANCH   4  21
TORSDOF 2
ENDMDL
MODEL 7
REMARK VINA RESULT:      -8.9      5.134     11.993
REMARK  Name = 
REMARK  2 active torsions:
REMARK  status: ('A' for Active; 'I' for Inactive)
REMARK    1  A    between atoms: N_3  and  C_4
REMARK    2  A    between atoms: C_7  and  C_8
REMARK                            x       y       z     vdW  Elec       q    Type
REMARK                         _______ _______ _______ _____ _____    ______ ____
ROOT
ATOM      1  C   UNL     1      -0.825  10.979  20.781  0.00  0.00    +0.000 A 
ATOM      2  C   UNL     1      -0.765  11.098  19.399  0.00  0.00    +0.000 A 
ATOM      3  C   UNL     1       0.160  10.347  18.671  0.00  0.00    +0.000 A 
ATOM      4  C   UNL     1       0.963   9.394  19.297  0.00  0.00    +0.000 A 
ATOM      5  C   UNL     1       0.936   9.310  20.697  0.00  0.00    +0.000 A 
ATOM      6  C   UNL     1       0.051  10.110  21.432  0.00  0.00    +0.000 A 
ENDROOT
BRANCH   1   9
ATOM      7  O   UNL     1      -0.303  12.833  22.998  0.00  0.00    +0.000 OA
ATOM      8  C   UNL     1      -1.426  12.544  22.620  0.00  0.00    +0.000 C 
ATOM      9  N   UNL     1      -1.734  11.726  21.562  0.00  0.00    +0.000 N 
ATOM     10  N   UNL     1      -2.532  13.104  23.222  0.00  0.00    +0.000 N 
ATOM     11  C   UNL     1      -2.370  14.277  24.069  0.00  0.00    +0.000 C 
ATOM     12  C   UNL     1      -3.737  14.875  24.007  0.00  0.00    +0.000 A 
ATOM     13  C   UNL     1      -4.136  16.192  23.923  0.00  0.00    +0.000 A 
ATOM     14  C   UNL     1      -5.499  16.446  23.762  0.00  0.00    +0.000 A 
ATOM     15  C   UNL     1      -6.427  15.391  23.793  0.00  0.00    +0.000 A 
ATOM     16  F   UNL     1      -7.733  15.680  23.701  0.00  0.00    +0.000 F 
ATOM     17  C   UNL     1      -6.026  14.072  23.797  0.00  0.00    +0.000 A 
ATOM     18  C   UNL     1      -4.665  13.857  23.757  0.00  0.00    +0.000 A 
ATOM     19  C   UNL     1      -3.940  12.789  22.995  0.00  0.00    +0.000 C 
ATOM     20  H   UNL     1      -2.663  11.796  21.188  0.00  0.00    +0.000 HD
ENDBRANCH   1   9
BRANCH   4  21
ATOM     21  C   UNL     1       1.897   8.532  18.529  0.00  0.00    +0.000 C 
ATOM     22  O   UNL     1       2.227   8.948  17.416  0.00  0.00    +0.000 OA
ATOM     23  N   UNL     1       2.400   7.344  19.073  0.00  0.00    +0.000 N 
ATOM     24  C   UNL     1       3.343   6.564  18.279  0.00  0.00    +0.000 C 
ATOM     25  C   UNL     1       2.751   5.332  17.602  0.00  0.00    +0.000 C 
ATOM     26  C   UNL     1       1.606   4.599  18.302  0.00  0.00    +0.000 C 
ATOM     27  C   UNL     1       1.709   4.395  19.828  0.00  0.00    +0.000 C 
ATOM     28  C   UNL     1       3.062   3.839  20.290  0.00  0.00    +0.000 C 
ATOM     29  C   UNL     1       2.696   2.823  21.351  0.00  0.00    +0.000 C 
ATOM     30  C   UNL     1       1.442   2.209  20.776  0.00  0.00    +0.000 C 
ATOM     31  N   UNL     1       0.714   3.335  20.185  0.00  0.00    +0.000 NA
ATOM     32  C   UNL     1       1.294   5.675  20.588  0.00  0.00    +0.000 C 
ATOM     33  C   UNL     1       2.221   6.885  20.454  0.00  0.00    +0.000 C 
ATOM     34  H   UNL     1       0.045   3.689  20.869  0.00  0.00    +0.000 HD
ENDBRANCH   4  21
TORSDOF 2
ENDMDL
MODEL 8
REMARK VINA RESULT:      -8.9      5.065     11.885
REMARK  Name = 
REMARK  2 active torsions:
REMARK  status: ('A' for Active; 'I' for Inactive)
REMARK    1  A    between atoms: N_3  and  C_4
REMARK    2  A    between atoms: C_7  and  C_8
REMARK                            x       y       z     vdW  Elec       q    Type
REMARK                         _______ _______ _______ _____ _____    ______ ____
ROOT
ATOM      1  C   UNL     1      -0.874  11.410  20.272  0.00  0.00    +0.000 A 
ATOM      2  C   UNL     1      -1.317  10.547  19.278  0.00  0.00    +0.000 A 
ATOM      3  C   UNL     1      -0.408   9.725  18.609  0.00  0.00    +0.000 A 
ATOM      4  C   UNL     1       0.931   9.674  18.992  0.00  0.00    +0.000 A 
ATOM      5  C   UNL     1       1.387  10.580  19.961  0.00  0.00    +0.000 A 
ATOM      6  C   UNL     1       0.484  11.450  20.588  0.00  0.00    +0.000 A 
ENDROOT
BRANCH   1   9
ATOM      7  O   UNL     1      -1.840  11.252  23.041  0.00  0.00    +0.000 OA
ATOM      8  C   UNL     1      -2.202  12.113  22.256  0.00  0.00    +0.000 C 
ATOM      9  N   UNL     1      -1.751  12.270  20.969  0.00  0.00    +0.000 N 
ATOM     10  N   UNL     1      -3.093  13.087  22.649  0.00  0.00    +0.000 N 
ATOM     11  C   UNL     1      -3.344  13.299  24.068  0.00  0.00    +0.000 C 
ATOM     12  C   UNL     1      -3.825  14.713  24.074  0.00  0.00    +0.000 A 
ATOM     13  C   UNL     1      -3.575  15.741  24.958  0.00  0.00    +0.000 A 
ATOM     14  C   UNL     1      -4.076  17.004  24.641  0.00  0.00    +0.000 A 
ATOM     15  C   UNL     1      -4.890  17.181  23.509  0.00  0.00    +0.000 A 
ATOM     16  F   UNL     1      -5.407  18.396  23.272  0.00  0.00    +0.000 F 
ATOM     17  C   UNL     1      -5.075  16.177  22.583  0.00  0.00    +0.000 A 
ATOM     18  C   UNL     1      -4.403  14.999  22.831  0.00  0.00    +0.000 A 
ATOM     19  C   UNL     1      -3.730  14.113  21.826  0.00  0.00    +0.000 C 
ATOM     20  H   UNL     1      -1.910  13.161  20.537  0.00  0.00    +0.000 HD
ENDBRANCH   1   9
BRANCH   4  21
ATOM     21  C   UNL     1       1.896   8.750  18.343  0.00  0.00    +0.000 C 
ATOM     22  O   UNL     1       2.285   9.075  17.219  0.00  0.00    +0.000 OA
ATOM     23  N   UNL     1       2.360   7.607  19.005  0.00  0.00    +0.000 N 
ATOM     24  C   UNL     1       3.336   6.761  18.324  0.00  0.00    +0.000 C 
ATOM     25  C   UNL     1       2.768   5.482  17.717  0.00  0.00    +0.000 C 
ATOM     26  C   UNL     1       1.583   4.812  18.414  0.00  0.00    +0.000 C 
ATOM     27  C   UNL     1       1.607   4.730  19.955  0.00  0.00    +0.000 C 
ATOM     28  C   UNL     1       2.930   4.207  20.528  0.00  0.00    +0.000 C 
ATOM     29  C   UNL     1       2.502   3.280  21.646  0.00  0.00    +0.000 C 
ATOM     30  C   UNL     1       1.274   2.628  21.059  0.00  0.00    +0.000 C 
ATOM     31  N   UNL     1       0.586   3.706  20.344  0.00  0.00    +0.000 NA
ATOM     32  C   UNL     1       1.165   6.069  20.588  0.00  0.00    +0.000 C 
ATOM     33  C   UNL     1       2.109   7.260  20.406  0.00  0.00    +0.000 C 
ATOM     34  H   UNL     1      -0.114   4.118  20.962  0.00  0.00    +0.000 HD
ENDBRANCH   4  21
TORSDOF 2
ENDMDL
MODEL 9
REMARK VINA RESULT:      -8.8      3.317      5.612
REMARK  Name = 
REMARK  2 active torsions:
REMARK  status: ('A' for Active; 'I' for Inactive)
REMARK    1  A    between atoms: N_3  and  C_4
REMARK    2  A    between atoms: C_7  and  C_8
REMARK                            x       y       z     vdW  Elec       q    Type
REMARK                         _______ _______ _______ _____ _____    ______ ____
ROOT
ATOM      1  C   UNL     1       0.398  10.736  19.967  0.00  0.00    +0.000 A 
ATOM      2  C   UNL     1       0.416  11.357  21.209  0.00  0.00    +0.000 A 
ATOM      3  C   UNL     1      -0.238  12.577  21.391  0.00  0.00    +0.000 A 
ATOM      4  C   UNL     1      -1.004  13.140  20.370  0.00  0.00    +0.000 A 
ATOM      5  C   UNL     1      -0.982  12.538  19.104  0.00  0.00    +0.000 A 
ATOM      6  C   UNL     1      -0.272  11.346  18.906  0.00  0.00    +0.000 A 
ENDROOT
BRANCH   1   9
ATOM      7  O   UNL     1       0.477   8.309  21.618  0.00  0.00    +0.000 OA
ATOM      8  C   UNL     1       1.089   8.422  20.570  0.00  0.00    +0.000 C 
ATOM      9  N   UNL     1       1.054   9.508  19.730  0.00  0.00    +0.000 N 
ATOM     10  N   UNL     1       1.854   7.381  20.090  0.00  0.00    +0.000 N 
ATOM     11  C   UNL     1       1.673   6.046  20.642  0.00  0.00    +0.000 C 
ATOM     12  C   UNL     1       2.180   5.195  19.523  0.00  0.00    +0.000 A 
ATOM     13  C   UNL     1       1.711   3.998  19.025  0.00  0.00    +0.000 A 
ATOM     14  C   UNL     1       2.329   3.486  17.883  0.00  0.00    +0.000 A 
ATOM     15  C   UNL     1       3.454   4.129  17.336  0.00  0.00    +0.000 A 
ATOM     16  F   UNL     1       4.061   3.572  16.277  0.00  0.00    +0.000 F 
ATOM     17  C   UNL     1       3.873   5.363  17.783  0.00  0.00    +0.000 A 
ATOM     18  C   UNL     1       3.116   5.930  18.785  0.00  0.00    +0.000 A 
ATOM     19  C   UNL     1       2.746   7.375  18.934  0.00  0.00    +0.000 C 
ATOM     20  H   UNL     1       1.368   9.364  18.788  0.00  0.00    +0.000 HD
ENDBRANCH   1   9
BRANCH   4  21
ATOM     21  C   UNL     1      -1.769  14.398  20.570  0.00  0.00    +0.000 C 
ATOM     22  O   UNL     1      -1.128  15.445  20.455  0.00  0.00    +0.000 OA
ATOM     23  N   UNL     1      -3.146  14.375  20.825  0.00  0.00    +0.000 N 
ATOM     24  C   UNL     1      -3.843  15.649  20.974  0.00  0.00    +0.000 C 
ATOM     25  C   UNL     1      -4.161  16.045  22.412  0.00  0.00    +0.000 C 
ATOM     26  C   UNL     1      -4.447  14.935  23.424  0.00  0.00    +0.000 C 
ATOM     27  C   UNL     1      -5.329  13.754  22.968  0.00  0.00    +0.000 C 
ATOM     28  C   UNL     1      -6.623  14.182  22.264  0.00  0.00    +0.000 C 
ATOM     29  C   UNL     1      -7.669  13.236  22.815  0.00  0.00    +0.000 C 
ATOM     30  C   UNL     1      -7.243  13.106  24.258  0.00  0.00    +0.000 C 
ATOM     31  N   UNL     1      -5.780  13.053  24.211  0.00  0.00    +0.000 NA
ATOM     32  C   UNL     1      -4.508  12.733  22.147  0.00  0.00    +0.000 C 
ATOM     33  C   UNL     1      -4.012  13.195  20.775  0.00  0.00    +0.000 C 
ATOM     34  H   UNL     1      -5.487  12.075  24.195  0.00  0.00    +0.000 HD
ENDBRANCH   4  21
TORSDOF 2
ENDMDL
