MODEL 1
REMARK VINA RESULT:      -8.3      0.000      0.000
REMARK  Name = 
REMARK  5 active torsions:
REMARK  status: ('A' for Active; 'I' for Inactive)
REMARK    1  A    between atoms: C_1  and  C_2
REMARK    2  A    between atoms: C_5  and  C_6
REMARK    3  A    between atoms: C_7  and  N_8
REMARK    4  A    between atoms: C_12  and  C_14
REMARK    5  A    between atoms: C_21  and  C_22
REMARK                            x       y       z     vdW  Elec       q    Type
REMARK                         _______ _______ _______ _____ _____    ______ ____
ROOT
ATOM      1  N   UNL     1      -1.361  12.703  21.541  0.00  0.00    +0.000 N 
ATOM      2  C   UNL     1      -2.213  12.439  20.363  0.00  0.00    +0.000 C 
ATOM      3  C   UNL     1      -1.319  12.376  19.110  0.00  0.00    +0.000 C 
ATOM      4  N   UNL     1      -0.229  11.394  19.263  0.00  0.00    +0.000 N 
ATOM      5  C   UNL     1      -0.109  10.376  18.321  0.00  0.00    +0.000 C 
ATOM      6  O   UNL     1      -0.974  10.246  17.453  0.00  0.00    +0.000 OA
ATOM      7  C   UNL     1       0.555  11.543  20.498  0.00  0.00    +0.000 C 
ATOM      8  C   UNL     1      -0.361  11.628  21.741  0.00  0.00    +0.000 C 
ENDROOT
BRANCH   5   9
ATOM      9  C   UNL     1       0.999   9.439  18.370  0.00  0.00    +0.000 A 
ATOM     10  C   UNL     1       1.210   8.460  19.319  0.00  0.00    +0.000 A 
ATOM     11  C   UNL     1       2.310   7.696  18.887  0.00  0.00    +0.000 A 
ATOM     12  C   UNL     1       2.974   6.565  19.363  0.00  0.00    +0.000 A 
ATOM     13  C   UNL     1       4.003   6.043  18.580  0.00  0.00    +0.000 A 
ATOM     14  C   UNL     1       4.635   4.865  18.992  0.00  0.00    +0.000 A 
ATOM     15  C   UNL     1       5.638   4.297  18.219  0.00  0.00    +0.000 A 
ATOM     16  C   UNL     1       6.033   4.917  17.036  0.00  0.00    +0.000 A 
ATOM     17  C   UNL     1       7.117   4.302  16.198  0.00  0.00    +0.000 C 
ATOM     18  C   UNL     1       5.404   6.118  16.644  0.00  0.00    +0.000 A 
ATOM     19  C   UNL     1       4.370   6.702  17.380  0.00  0.00    +0.000 A 
ATOM     20  N   UNL     1       3.764   7.821  16.927  0.00  0.00    +0.000 NA
ATOM     21  C   UNL     1       2.742   8.254  17.692  0.00  0.00    +0.000 A 
ATOM     22  O   UNL     1       1.940   9.323  17.376  0.00  0.00    +0.000 OA
ENDBRANCH   5   9
BRANCH   1  29
ATOM     23  C   UNL     1      -4.935  12.443  24.989  0.00  0.00    +0.000 C 
ATOM     24  C   UNL     1      -3.715  13.112  24.430  0.00  0.00    +0.000 A 
ATOM     25  C   UNL     1      -3.183  14.247  25.037  0.00  0.00    +0.000 A 
ATOM     26  C   UNL     1      -2.063  14.868  24.491  0.00  0.00    +0.000 A 
ATOM     27  C   UNL     1      -1.456  14.374  23.323  0.00  0.00    +0.000 A 
ATOM     28  C   UNL     1      -0.311  15.163  22.740  0.00  0.00    +0.000 C 
ATOM     29  C   UNL     1      -1.955  13.202  22.707  0.00  0.00    +0.000 A 
ATOM     30  C   UNL     1      -3.094  12.600  23.278  0.00  0.00    +0.000 A 
ENDBRANCH   1  29
TORSDOF 2
ENDMDL
MODEL 2
REMARK VINA RESULT:      -8.1      2.579     11.143
REMARK  Name = 
REMARK  5 active torsions:
REMARK  status: ('A' for Active; 'I' for Inactive)
REMARK    1  A    between atoms: C_1  and  C_2
REMARK    2  A    between atoms: C_5  and  C_6
REMARK    3  A    between atoms: C_7  and  N_8
REMARK    4  A    between atoms: C_12  and  C_14
REMARK    5  A    between atoms: C_21  and  C_22
REMARK                            x       y       z     vdW  Elec       q    Type
REMARK                         _______ _______ _______ _____ _____    ______ ____
ROOT
ATOM      1  N   UNL     1       5.117   4.716  16.081  0.00  0.00    +0.000 N 
ATOM      2  C   UNL     1       4.322   3.656  16.737  0.00  0.00    +0.000 C 
ATOM      3  C   UNL     1       4.274   3.940  18.251  0.00  0.00    +0.000 C 
ATOM      4  N   UNL     1       3.772   5.297  18.538  0.00  0.00    +0.000 N 
ATOM      5  C   UNL     1       2.665   5.438  19.370  0.00  0.00    +0.000 C 
ATOM      6  O   UNL     1       2.060   4.435  19.751  0.00  0.00    +0.000 OA
ATOM      7  C   UNL     1       4.451   6.368  17.793  0.00  0.00    +0.000 C 
ATOM      8  C   UNL     1       4.511   6.053  16.281  0.00  0.00    +0.000 C 
ENDROOT
BRANCH   5   9
ATOM      9  C   UNL     1       2.185   6.751  19.761  0.00  0.00    +0.000 A 
ATOM     10  C   UNL     1       2.117   7.876  18.965  0.00  0.00    +0.000 A 
ATOM     11  C   UNL     1       1.451   8.869  19.707  0.00  0.00    +0.000 A 
ATOM     12  C   UNL     1       1.035  10.176  19.457  0.00  0.00    +0.000 A 
ATOM     13  C   UNL     1       0.306  10.825  20.452  0.00  0.00    +0.000 A 
ATOM     14  C   UNL     1      -0.192  12.107  20.199  0.00  0.00    +0.000 A 
ATOM     15  C   UNL     1      -0.953  12.767  21.154  0.00  0.00    +0.000 A 
ATOM     16  C   UNL     1      -1.204  12.157  22.381  0.00  0.00    +0.000 A 
ATOM     17  C   UNL     1      -2.028  12.870  23.414  0.00  0.00    +0.000 C 
ATOM     18  C   UNL     1      -0.675  10.873  22.632  0.00  0.00    +0.000 A 
ATOM     19  C   UNL     1       0.068  10.166  21.684  0.00  0.00    +0.000 A 
ATOM     20  N   UNL     1       0.499   8.914  21.957  0.00  0.00    +0.000 NA
ATOM     21  C   UNL     1       1.153   8.312  20.943  0.00  0.00    +0.000 A 
ATOM     22  O   UNL     1       1.604   7.016  20.977  0.00  0.00    +0.000 OA
ENDBRANCH   5   9
BRANCH   1  29
ATOM     23  C   UNL     1       4.555   2.947  11.467  0.00  0.00    +0.000 C 
ATOM     24  C   UNL     1       5.407   3.600  12.513  0.00  0.00    +0.000 A 
ATOM     25  C   UNL     1       6.731   3.941  12.244  0.00  0.00    +0.000 A 
ATOM     26  C   UNL     1       7.514   4.527  13.235  0.00  0.00    +0.000 A 
ATOM     27  C   UNL     1       6.995   4.777  14.517  0.00  0.00    +0.000 A 
ATOM     28  C   UNL     1       7.937   5.319  15.562  0.00  0.00    +0.000 C 
ATOM     29  C   UNL     1       5.643   4.474  14.806  0.00  0.00    +0.000 A 
ATOM     30  C   UNL     1       4.878   3.875  13.786  0.00  0.00    +0.000 A 
ENDBRANCH   1  29
TORSDOF 2
ENDMDL
MODEL 3
REMARK VINA RESULT:      -7.9      2.901      4.190
REMARK  Name = 
REMARK  5 active torsions:
REMARK  status: ('A' for Active; 'I' for Inactive)
REMARK    1  A    between atoms: C_1  and  C_2
REMARK    2  A    between atoms: C_5  and  C_6
REMARK    3  A    between atoms: C_7  and  N_8
REMARK    4  A    between atoms: C_12  and  C_14
REMARK    5  A    between atoms: C_21  and  C_22
REMARK                            x       y       z     vdW  Elec       q    Type
REMARK                         _______ _______ _______ _____ _____    ______ ____
ROOT
ATOM      1  N   UNL     1      -0.904  13.520  20.622  0.00  0.00    +0.000 N 
ATOM      2  C   UNL     1      -0.398  13.320  21.996  0.00  0.00    +0.000 C 
ATOM      3  C   UNL     1      -0.765  11.896  22.455  0.00  0.00    +0.000 C 
ATOM      4  N   UNL     1      -0.281  10.873  21.509  0.00  0.00    +0.000 N 
ATOM      5  C   UNL     1       0.550   9.862  21.985  0.00  0.00    +0.000 C 
ATOM      6  O   UNL     1       0.957   9.907  23.147  0.00  0.00    +0.000 OA
ATOM      7  C   UNL     1      -0.651  11.117  20.107  0.00  0.00    +0.000 C 
ATOM      8  C   UNL     1      -0.297  12.558  19.673  0.00  0.00    +0.000 C 
ENDROOT
BRANCH   5   9
ATOM      9  C   UNL     1       0.980   8.779  21.119  0.00  0.00    +0.000 A 
ATOM     10  C   UNL     1       1.661   8.896  19.925  0.00  0.00    +0.000 A 
ATOM     11  C   UNL     1       2.003   7.595  19.514  0.00  0.00    +0.000 A 
ATOM     12  C   UNL     1       2.717   7.053  18.446  0.00  0.00    +0.000 A 
ATOM     13  C   UNL     1       2.915   5.673  18.434  0.00  0.00    +0.000 A 
ATOM     14  C   UNL     1       3.695   5.110  17.418  0.00  0.00    +0.000 A 
ATOM     15  C   UNL     1       3.942   3.744  17.396  0.00  0.00    +0.000 A 
ATOM     16  C   UNL     1       3.392   2.926  18.381  0.00  0.00    +0.000 A 
ATOM     17  C   UNL     1       3.661   1.449  18.358  0.00  0.00    +0.000 C 
ATOM     18  C   UNL     1       2.588   3.504  19.386  0.00  0.00    +0.000 A 
ATOM     19  C   UNL     1       2.343   4.877  19.458  0.00  0.00    +0.000 A 
ATOM     20  N   UNL     1       1.614   5.383  20.477  0.00  0.00    +0.000 NA
ATOM     21  C   UNL     1       1.497   6.726  20.471  0.00  0.00    +0.000 A 
ATOM     22  O   UNL     1       0.869   7.451  21.453  0.00  0.00    +0.000 OA
ENDBRANCH   5   9
BRANCH   1  29
ATOM     23  C   UNL     1       0.817  17.351  17.959  0.00  0.00    +0.000 C 
ATOM     24  C   UNL     1      -0.236  16.751  18.841  0.00  0.00    +0.000 A 
ATOM     25  C   UNL     1      -1.355  17.490  19.220  0.00  0.00    +0.000 A 
ATOM     26  C   UNL     1      -2.311  16.923  20.057  0.00  0.00    +0.000 A 
ATOM     27  C   UNL     1      -2.168  15.611  20.541  0.00  0.00    +0.000 A 
ATOM     28  C   UNL     1      -3.195  15.110  21.524  0.00  0.00    +0.000 C 
ATOM     29  C   UNL     1      -1.059  14.827  20.143  0.00  0.00    +0.000 A 
ATOM     30  C   UNL     1      -0.104  15.430  19.300  0.00  0.00    +0.000 A 
ENDBRANCH   1  29
TORSDOF 2
ENDMDL
MODEL 4
REMARK VINA RESULT:      -7.9      7.413      9.707
REMARK  Name = 
REMARK  5 active torsions:
REMARK  status: ('A' for Active; 'I' for Inactive)
REMARK    1  A    between atoms: C_1  and  C_2
REMARK    2  A    between atoms: C_5  and  C_6
REMARK    3  A    between atoms: C_7  and  N_8
REMARK    4  A    between atoms: C_12  and  C_14
REMARK    5  A    between atoms: C_21  and  C_22
REMARK                            x       y       z     vdW  Elec       q    Type
REMARK                         _______ _______ _______ _____ _____    ______ ____
ROOT
ATOM      1  N   UNL     1       3.608   5.005  18.216  0.00  0.00    +0.000 N 
ATOM      2  C   UNL     1       4.615   4.362  17.346  0.00  0.00    +0.000 C 
ATOM      3  C   UNL     1       5.202   5.426  16.400  0.00  0.00    +0.000 C 
ATOM      4  N   UNL     1       5.739   6.583  17.142  0.00  0.00    +0.000 N 
ATOM      5  C   UNL     1       7.068   6.945  16.946  0.00  0.00    +0.000 C 
ATOM      6  O   UNL     1       7.797   6.231  16.256  0.00  0.00    +0.000 OA
ATOM      7  C   UNL     1       4.806   7.163  18.121  0.00  0.00    +0.000 C 
ATOM      8  C   UNL     1       4.209   6.076  19.045  0.00  0.00    +0.000 C 
ENDROOT
BRANCH   5   9
ATOM      9  C   UNL     1       7.621   8.130  17.579  0.00  0.00    +0.000 A 
ATOM     10  C   UNL     1       8.464   8.165  18.671  0.00  0.00    +0.000 A 
ATOM     11  C   UNL     1       8.867   9.502  18.839  0.00  0.00    +0.000 A 
ATOM     12  C   UNL     1       9.728  10.172  19.708  0.00  0.00    +0.000 A 
ATOM     13  C   UNL     1       9.932  11.534  19.494  0.00  0.00    +0.000 A 
ATOM     14  C   UNL     1      10.850  12.216  20.300  0.00  0.00    +0.000 A 
ATOM     15  C   UNL     1      11.105  13.564  20.091  0.00  0.00    +0.000 A 
ATOM     16  C   UNL     1      10.425  14.248  19.085  0.00  0.00    +0.000 A 
ATOM     17  C   UNL     1      10.702  15.706  18.858  0.00  0.00    +0.000 C 
ATOM     18  C   UNL     1       9.484  13.555  18.296  0.00  0.00    +0.000 A 
ATOM     19  C   UNL     1       9.225  12.191  18.456  0.00  0.00    +0.000 A 
ATOM     20  N   UNL     1       8.356  11.565  17.632  0.00  0.00    +0.000 NA
ATOM     21  C   UNL     1       8.235  10.240  17.847  0.00  0.00    +0.000 A 
ATOM     22  O   UNL     1       7.471   9.399  17.076  0.00  0.00    +0.000 OA
ENDBRANCH   5   9
BRANCH   1  29
ATOM     23  C   UNL     1       2.307   2.166  22.087  0.00  0.00    +0.000 C 
ATOM     24  C   UNL     1       1.982   2.779  20.758  0.00  0.00    +0.000 A 
ATOM     25  C   UNL     1       0.759   2.531  20.138  0.00  0.00    +0.000 A 
ATOM     26  C   UNL     1       0.484   3.092  18.895  0.00  0.00    +0.000 A 
ATOM     27  C   UNL     1       1.425   3.903  18.239  0.00  0.00    +0.000 A 
ATOM     28  C   UNL     1       1.089   4.387  16.851  0.00  0.00    +0.000 C 
ATOM     29  C   UNL     1       2.661   4.200  18.862  0.00  0.00    +0.000 A 
ATOM     30  C   UNL     1       2.914   3.613  20.118  0.00  0.00    +0.000 A 
ENDBRANCH   1  29
TORSDOF 2
ENDMDL
MODEL 5
REMARK VINA RESULT:      -7.9      3.270      4.689
REMARK  Name = 
REMARK  5 active torsions:
REMARK  status: ('A' for Active; 'I' for Inactive)
REMARK    1  A    between atoms: C_1  and  C_2
REMARK    2  A    between atoms: C_5  and  C_6
REMARK    3  A    between atoms: C_7  and  N_8
REMARK    4  A    between atoms: C_12  and  C_14
REMARK    5  A    between atoms: C_21  and  C_22
REMARK                            x       y       z     vdW  Elec       q    Type
REMARK                         _______ _______ _______ _____ _____    ______ ____
ROOT
ATOM      1  N   UNL     1       0.605  13.758  19.566  0.00  0.00    +0.000 N 
ATOM      2  C   UNL     1       0.754  13.544  21.020  0.00  0.00    +0.000 C 
ATOM      3  C   UNL     1       0.011  12.251  21.408  0.00  0.00    +0.000 C 
ATOM      4  N   UNL     1       0.466  11.097  20.608  0.00  0.00    +0.000 N 
ATOM      5  C   UNL     1       0.949   9.973  21.271  0.00  0.00    +0.000 C 
ATOM      6  O   UNL     1       1.098  10.005  22.493  0.00  0.00    +0.000 OA
ATOM      7  C   UNL     1       0.462  11.326  19.155  0.00  0.00    +0.000 C 
ATOM      8  C   UNL     1       1.190  12.640  18.789  0.00  0.00    +0.000 C 
ENDROOT
BRANCH   5   9
ATOM      9  C   UNL     1       1.322   8.776  20.538  0.00  0.00    +0.000 A 
ATOM     10  C   UNL     1       1.911   8.721  19.291  0.00  0.00    +0.000 A 
ATOM     11  C   UNL     1       2.231   7.373  19.045  0.00  0.00    +0.000 A 
ATOM     12  C   UNL     1       2.868   6.683  18.014  0.00  0.00    +0.000 A 
ATOM     13  C   UNL     1       3.074   5.314  18.183  0.00  0.00    +0.000 A 
ATOM     14  C   UNL     1       3.781   4.610  17.202  0.00  0.00    +0.000 A 
ATOM     15  C   UNL     1       4.036   3.255  17.355  0.00  0.00    +0.000 A 
ATOM     16  C   UNL     1       3.567   2.587  18.484  0.00  0.00    +0.000 A 
ATOM     17  C   UNL     1       3.845   1.120  18.652  0.00  0.00    +0.000 C 
ATOM     18  C   UNL     1       2.836   3.303  19.455  0.00  0.00    +0.000 A 
ATOM     19  C   UNL     1       2.586   4.674  19.350  0.00  0.00    +0.000 A 
ATOM     20  N   UNL     1       1.932   5.321  20.339  0.00  0.00    +0.000 NA
ATOM     21  C   UNL     1       1.805   6.650  20.151  0.00  0.00    +0.000 A 
ATOM     22  O   UNL     1       1.246   7.510  21.064  0.00  0.00    +0.000 OA
ENDBRANCH   5   9
BRANCH   1  29
ATOM     23  C   UNL     1      -1.184  18.072  17.856  0.00  0.00    +0.000 C 
ATOM     24  C   UNL     1      -0.019  17.187  18.183  0.00  0.00    +0.000 A 
ATOM     25  C   UNL     1       1.287  17.608  17.942  0.00  0.00    +0.000 A 
ATOM     26  C   UNL     1       2.355  16.764  18.231  0.00  0.00    +0.000 A 
ATOM     27  C   UNL     1       2.142  15.478  18.757  0.00  0.00    +0.000 A 
ATOM     28  C   UNL     1       3.346  14.590  18.945  0.00  0.00    +0.000 C 
ATOM     29  C   UNL     1       0.828  15.039  19.045  0.00  0.00    +0.000 A 
ATOM     30  C   UNL     1      -0.233  15.913  18.735  0.00  0.00    +0.000 A 
ENDBRANCH   1  29
TORSDOF 2
ENDMDL
MODEL 6
REMARK VINA RESULT:      -7.8      2.521      4.054
REMARK  Name = 
REMARK  5 active torsions:
REMARK  status: ('A' for Active; 'I' for Inactive)
REMARK    1  A    between atoms: C_1  and  C_2
REMARK    2  A    between atoms: C_5  and  C_6
REMARK    3  A    between atoms: C_7  and  N_8
REMARK    4  A    between atoms: C_12  and  C_14
REMARK    5  A    between atoms: C_21  and  C_22
REMARK                            x       y       z     vdW  Elec       q    Type
REMARK                         _______ _______ _______ _____ _____    ______ ____
ROOT
ATOM      1  N   UNL     1       0.339  12.467  19.496  0.00  0.00    +0.000 N 
ATOM      2  C   UNL     1       0.096  11.893  20.836  0.00  0.00    +0.000 C 
ATOM      3  C   UNL     1      -0.322  10.419  20.673  0.00  0.00    +0.000 C 
ATOM      4  N   UNL     1       0.667   9.652  19.891  0.00  0.00    +0.000 N 
ATOM      5  C   UNL     1       1.230   8.513  20.458  0.00  0.00    +0.000 C 
ATOM      6  O   UNL     1       0.986   8.235  21.633  0.00  0.00    +0.000 OA
ATOM      7  C   UNL     1       1.038  10.270  18.609  0.00  0.00    +0.000 C 
ATOM      8  C   UNL     1       1.429  11.755  18.789  0.00  0.00    +0.000 C 
ENDROOT
BRANCH   5   9
ATOM      9  C   UNL     1       2.137   7.670  19.699  0.00  0.00    +0.000 A 
ATOM     10  C   UNL     1       2.319   6.310  19.846  0.00  0.00    +0.000 A 
ATOM     11  C   UNL     1       3.170   5.892  18.807  0.00  0.00    +0.000 A 
ATOM     12  C   UNL     1       3.682   4.666  18.384  0.00  0.00    +0.000 A 
ATOM     13  C   UNL     1       4.451   4.652  17.221  0.00  0.00    +0.000 A 
ATOM     14  C   UNL     1       4.912   3.427  16.729  0.00  0.00    +0.000 A 
ATOM     15  C   UNL     1       5.648   3.373  15.554  0.00  0.00    +0.000 A 
ATOM     16  C   UNL     1       5.947   4.549  14.871  0.00  0.00    +0.000 A 
ATOM     17  C   UNL     1       6.743   4.491  13.598  0.00  0.00    +0.000 C 
ATOM     18  C   UNL     1       5.496   5.781  15.390  0.00  0.00    +0.000 A 
ATOM     19  C   UNL     1       4.727   5.871  16.553  0.00  0.00    +0.000 A 
ATOM     20  N   UNL     1       4.271   7.073  16.972  0.00  0.00    +0.000 NA
ATOM     21  C   UNL     1       3.491   7.024  18.071  0.00  0.00    +0.000 A 
ATOM     22  O   UNL     1       2.860   8.114  18.618  0.00  0.00    +0.000 OA
ENDBRANCH   5   9
BRANCH   1  29
ATOM     23  C   UNL     1       2.673  16.665  18.206  0.00  0.00    +0.000 C 
ATOM     24  C   UNL     1       1.455  15.962  18.725  0.00  0.00    +0.000 A 
ATOM     25  C   UNL     1       0.320  16.682  19.094  0.00  0.00    +0.000 A 
ATOM     26  C   UNL     1      -0.794  16.015  19.595  0.00  0.00    +0.000 A 
ATOM     27  C   UNL     1      -0.797  14.617  19.746  0.00  0.00    +0.000 A 
ATOM     28  C   UNL     1      -2.003  13.984  20.391  0.00  0.00    +0.000 C 
ATOM     29  C   UNL     1       0.330  13.859  19.346  0.00  0.00    +0.000 A 
ATOM     30  C   UNL     1       1.445  14.563  18.849  0.00  0.00    +0.000 A 
ENDBRANCH   1  29
TORSDOF 2
ENDMDL
MODEL 7
REMARK VINA RESULT:      -7.7      2.378     10.883
REMARK  Name = 
REMARK  5 active torsions:
REMARK  status: ('A' for Active; 'I' for Inactive)
REMARK    1  A    between atoms: C_1  and  C_2
REMARK    2  A    between atoms: C_5  and  C_6
REMARK    3  A    between atoms: C_7  and  N_8
REMARK    4  A    between atoms: C_12  and  C_14
REMARK    5  A    between atoms: C_21  and  C_22
REMARK                            x       y       z     vdW  Elec       q    Type
REMARK                         _______ _______ _______ _____ _____    ______ ____
ROOT
ATOM      1  N   UNL     1       4.788   5.033  17.097  0.00  0.00    +0.000 N 
ATOM      2  C   UNL     1       3.832   4.005  17.557  0.00  0.00    +0.000 C 
ATOM      3  C   UNL     1       3.586   4.198  19.066  0.00  0.00    +0.000 C 
ATOM      4  N   UNL     1       3.146   5.572  19.377  0.00  0.00    +0.000 N 
ATOM      5  C   UNL     1       1.943   5.751  20.054  0.00  0.00    +0.000 C 
ATOM      6  O   UNL     1       1.219   4.780  20.274  0.00  0.00    +0.000 OA
ATOM      7  C   UNL     1       4.002   6.627  18.814  0.00  0.00    +0.000 C 
ATOM      8  C   UNL     1       4.258   6.401  17.306  0.00  0.00    +0.000 C 
ENDROOT
BRANCH   5   9
ATOM      9  C   UNL     1       1.509   7.074  20.468  0.00  0.00    +0.000 A 
ATOM     10  C   UNL     1       1.684   8.255  19.776  0.00  0.00    +0.000 A 
ATOM     11  C   UNL     1       0.974   9.251  20.471  0.00  0.00    +0.000 A 
ATOM     12  C   UNL     1       0.722  10.607  20.268  0.00  0.00    +0.000 A 
ATOM     13  C   UNL     1      -0.126  11.250  21.169  0.00  0.00    +0.000 A 
ATOM     14  C   UNL     1      -0.460  12.590  20.946  0.00  0.00    +0.000 A 
ATOM     15  C   UNL     1      -1.330  13.250  21.803  0.00  0.00    +0.000 A 
ATOM     16  C   UNL     1      -1.856  12.579  22.905  0.00  0.00    +0.000 A 
ATOM     17  C   UNL     1      -2.799  13.292  23.831  0.00  0.00    +0.000 C 
ATOM     18  C   UNL     1      -1.492  11.235  23.131  0.00  0.00    +0.000 A 
ATOM     19  C   UNL     1      -0.645  10.529  22.274  0.00  0.00    +0.000 A 
ATOM     20  N   UNL     1      -0.377   9.226  22.508  0.00  0.00    +0.000 NA
ATOM     21  C   UNL     1       0.404   8.638  21.579  0.00  0.00    +0.000 A 
ATOM     22  O   UNL     1       0.733   7.305  21.578  0.00  0.00    +0.000 OA
ENDBRANCH   5   9
BRANCH   1  29
ATOM     23  C   UNL     1       4.845   3.351  12.417  0.00  0.00    +0.000 C 
ATOM     24  C   UNL     1       5.546   3.998  13.574  0.00  0.00    +0.000 A 
ATOM     25  C   UNL     1       6.886   4.367  13.480  0.00  0.00    +0.000 A 
ATOM     26  C   UNL     1       7.526   4.946  14.572  0.00  0.00    +0.000 A 
ATOM     27  C   UNL     1       6.846   5.160  15.784  0.00  0.00    +0.000 A 
ATOM     28  C   UNL     1       7.639   5.697  16.948  0.00  0.00    +0.000 C 
ATOM     29  C   UNL     1       5.475   4.828  15.894  0.00  0.00    +0.000 A 
ATOM     30  C   UNL     1       4.856   4.237  14.775  0.00  0.00    +0.000 A 
ENDBRANCH   1  29
TORSDOF 2
ENDMDL
MODEL 8
REMARK VINA RESULT:      -7.7      2.137      2.799
REMARK  Name = 
REMARK  5 active torsions:
REMARK  status: ('A' for Active; 'I' for Inactive)
REMARK    1  A    between atoms: C_1  and  C_2
REMARK    2  A    between atoms: C_5  and  C_6
REMARK    3  A    between atoms: C_7  and  N_8
REMARK    4  A    between atoms: C_12  and  C_14
REMARK    5  A    between atoms: C_21  and  C_22
REMARK                            x       y       z     vdW  Elec       q    Type
REMARK                         _______ _______ _______ _____ _____    ______ ____
ROOT
ATOM      1  N   UNL     1      -1.694  13.615  22.002  0.00  0.00    +0.000 N 
ATOM      2  C   UNL     1      -1.166  14.333  20.823  0.00  0.00    +0.000 C 
ATOM      3  C   UNL     1       0.297  13.905  20.598  0.00  0.00    +0.000 C 
ATOM      4  N   UNL     1       0.428  12.440  20.485  0.00  0.00    +0.000 N 
ATOM      5  C   UNL     1       1.021  11.907  19.344  0.00  0.00    +0.000 C 
ATOM      6  O   UNL     1       1.315  12.652  18.408  0.00  0.00    +0.000 OA
ATOM      7  C   UNL     1      -0.210  11.686  21.575  0.00  0.00    +0.000 C 
ATOM      8  C   UNL     1      -1.669  12.148  21.802  0.00  0.00    +0.000 C 
ENDROOT
BRANCH   5   9
ATOM      9  C   UNL     1       1.259  10.480  19.222  0.00  0.00    +0.000 A 
ATOM     10  C   UNL     1       1.782   9.821  18.128  0.00  0.00    +0.000 A 
ATOM     11  C   UNL     1       1.979   8.481  18.508  0.00  0.00    +0.000 A 
ATOM     12  C   UNL     1       2.508   7.348  17.891  0.00  0.00    +0.000 A 
ATOM     13  C   UNL     1       2.610   6.185  18.653  0.00  0.00    +0.000 A 
ATOM     14  C   UNL     1       3.209   5.055  18.086  0.00  0.00    +0.000 A 
ATOM     15  C   UNL     1       3.361   3.892  18.828  0.00  0.00    +0.000 A 
ATOM     16  C   UNL     1       2.894   3.843  20.140  0.00  0.00    +0.000 A 
ATOM     17  C   UNL     1       3.059   2.585  20.943  0.00  0.00    +0.000 C 
ATOM     18  C   UNL     1       2.270   4.982  20.691  0.00  0.00    +0.000 A 
ATOM     19  C   UNL     1       2.128   6.179  19.986  0.00  0.00    +0.000 A 
ATOM     20  N   UNL     1       1.576   7.257  20.585  0.00  0.00    +0.000 NA
ATOM     21  C   UNL     1       1.549   8.369  19.823  0.00  0.00    +0.000 A 
ATOM     22  O   UNL     1       1.106   9.594  20.260  0.00  0.00    +0.000 OA
ENDBRANCH   5   9
BRANCH   1  29
ATOM     23  C   UNL     1      -6.621  14.279  22.123  0.00  0.00    +0.000 C 
ATOM     24  C   UNL     1      -5.268  14.476  22.738  0.00  0.00    +0.000 A 
ATOM     25  C   UNL     1      -5.122  15.185  23.928  0.00  0.00    +0.000 A 
ATOM     26  C   UNL     1      -3.856  15.377  24.473  0.00  0.00    +0.000 A 
ATOM     27  C   UNL     1      -2.708  14.873  23.837  0.00  0.00    +0.000 A 
ATOM     28  C   UNL     1      -1.367  15.212  24.438  0.00  0.00    +0.000 C 
ATOM     29  C   UNL     1      -2.831  14.119  22.646  0.00  0.00    +0.000 A 
ATOM     30  C   UNL     1      -4.125  13.947  22.115  0.00  0.00    +0.000 A 
ENDBRANCH   1  29
TORSDOF 2
ENDMDL
MODEL 9
REMARK VINA RESULT:      -7.6      2.675      3.474
REMARK  Name = 
REMARK  5 active torsions:
REMARK  status: ('A' for Active; 'I' for Inactive)
REMARK    1  A    between atoms: C_1  and  C_2
REMARK    2  A    between atoms: C_5  and  C_6
REMARK    3  A    between atoms: C_7  and  N_8
REMARK    4  A    between atoms: C_12  and  C_14
REMARK    5  A    between atoms: C_21  and  C_22
REMARK                            x       y       z     vdW  Elec       q    Type
REMARK                         _______ _______ _______ _____ _____    ______ ____
ROOT
ATOM      1  N   UNL     1       1.004  14.675  19.802  0.00  0.00    +0.000 N 
ATOM      2  C   UNL     1      -0.357  14.106  19.892  0.00  0.00    +0.000 C 
ATOM      3  C   UNL     1      -0.549  13.102  18.739  0.00  0.00    +0.000 C 
ATOM      4  N   UNL     1       0.506  12.070  18.729  0.00  0.00    +0.000 N 
ATOM      5  C   UNL     1       0.132  10.731  18.785  0.00  0.00    +0.000 C 
ATOM      6  O   UNL     1      -1.051  10.437  18.960  0.00  0.00    +0.000 OA
ATOM      7  C   UNL     1       1.876  12.602  18.779  0.00  0.00    +0.000 C 
ATOM      8  C   UNL     1       2.042  13.626  19.926  0.00  0.00    +0.000 C 
ENDROOT
BRANCH   5   9
ATOM      9  C   UNL     1       1.122   9.673  18.684  0.00  0.00    +0.000 A 
ATOM     10  C   UNL     1       1.306   8.627  19.565  0.00  0.00    +0.000 A 
ATOM     11  C   UNL     1       2.264   7.769  18.994  0.00  0.00    +0.000 A 
ATOM     12  C   UNL     1       2.833   6.548  19.352  0.00  0.00    +0.000 A 
ATOM     13  C   UNL     1       3.716   5.956  18.450  0.00  0.00    +0.000 A 
ATOM     14  C   UNL     1       4.241   4.694  18.747  0.00  0.00    +0.000 A 
ATOM     15  C   UNL     1       5.094   4.059  17.854  0.00  0.00    +0.000 A 
ATOM     16  C   UNL     1       5.446   4.694  16.665  0.00  0.00    +0.000 A 
ATOM     17  C   UNL     1       6.367   4.007  15.698  0.00  0.00    +0.000 C 
ATOM     18  C   UNL     1       4.928   5.977  16.389  0.00  0.00    +0.000 A 
ATOM     19  C   UNL     1       4.043   6.633  17.248  0.00  0.00    +0.000 A 
ATOM     20  N   UNL     1       3.531   7.835  16.905  0.00  0.00    +0.000 NA
ATOM     21  C   UNL     1       2.644   8.339  17.787  0.00  0.00    +0.000 A 
ATOM     22  O   UNL     1       1.946   9.506  17.598  0.00  0.00    +0.000 OA
ENDBRANCH   5   9
BRANCH   1  29
ATOM     23  C   UNL     1       1.094  17.348  23.995  0.00  0.00    +0.000 C 
ATOM     24  C   UNL     1       1.329  17.239  22.518  0.00  0.00    +0.000 A 
ATOM     25  C   UNL     1       1.784  18.333  21.786  0.00  0.00    +0.000 A 
ATOM     26  C   UNL     1       1.975  18.220  20.412  0.00  0.00    +0.000 A 
ATOM     27  C   UNL     1       1.707  17.016  19.738  0.00  0.00    +0.000 A 
ATOM     28  C   UNL     1       1.842  17.007  18.237  0.00  0.00    +0.000 C 
ATOM     29  C   UNL     1       1.278  15.879  20.463  0.00  0.00    +0.000 A 
ATOM     30  C   UNL     1       1.087  16.026  21.851  0.00  0.00    +0.000 A 
ENDBRANCH   1  29
TORSDOF 2
ENDMDL
