MODEL 1
REMARK VINA RESULT:      -7.8      0.000      0.000
REMARK  Name = 
REMARK  8 active torsions:
REMARK  status: ('A' for Active; 'I' for Inactive)
REMARK    1  A    between atoms: C_1  and  O_2
REMARK    2  A    between atoms: O_2  and  C_3
REMARK    3  A    between atoms: C_6  and  C_7
REMARK    4  A    between atoms: C_7  and  N_8
REMARK    5  A    between atoms: C_12  and  C_13
REMARK    6  A    between atoms: C_13  and  C_15
REMARK    7  A    between atoms: C_23  and  O_24
REMARK    8  A    between atoms: O_24  and  C_25
REMARK                            x       y       z     vdW  Elec       q    Type
REMARK                         _______ _______ _______ _____ _____    ______ ____
ROOT
ATOM      1  N   UNL     1       3.352   3.568  17.468  0.00  0.00    +0.000 NA
ATOM      2  C   UNL     1       2.733   2.293  17.836  0.00  0.00    +0.000 C 
ATOM      3  C   UNL     1       1.363   2.413  18.496  0.00  0.00    +0.000 C 
ATOM      4  C   UNL     1       1.361   3.440  19.618  0.00  0.00    +0.000 C 
ATOM      5  C   UNL     1       1.789   4.802  19.077  0.00  0.00    +0.000 C 
ATOM      6  C   UNL     1       3.122   4.740  18.318  0.00  0.00    +0.000 C 
ENDROOT
BRANCH   5   7
ATOM      7  C   UNL     1       1.949   5.819  20.213  0.00  0.00    +0.000 C 
ATOM      8  O   UNL     1       2.349   5.506  21.334  0.00  0.00    +0.000 OA
BRANCH   7   9
ATOM      9  C   UNL     1       1.718   7.264  19.920  0.00  0.00    +0.000 A 
ATOM     10  C   UNL     1       1.142   8.117  20.868  0.00  0.00    +0.000 A 
ATOM     11  C   UNL     1       0.910   9.458  20.555  0.00  0.00    +0.000 A 
ATOM     12  C   UNL     1       1.259   9.951  19.298  0.00  0.00    +0.000 A 
ATOM     13 CL   UNL     1       0.955  11.600  18.921  0.00  0.00    +0.000 Cl
ATOM     14  C   UNL     1       1.847   9.115  18.352  0.00  0.00    +0.000 A 
ATOM     15  C   UNL     1       2.083   7.771  18.664  0.00  0.00    +0.000 A 
ENDBRANCH   7   9
ENDBRANCH   5   7
BRANCH   1  16
ATOM     16  C   UNL     1       4.787   3.420  17.103  0.00  0.00    +0.000 C 
BRANCH  16  20
ATOM     17  C   UNL     1       7.549   6.661  18.082  0.00  0.00    +0.000 A 
ATOM     18  C   UNL     1       7.178   5.747  19.054  0.00  0.00    +0.000 A 
ATOM     19  C   UNL     1       6.284   4.729  18.748  0.00  0.00    +0.000 A 
ATOM     20  C   UNL     1       5.756   4.555  17.455  0.00  0.00    +0.000 A 
ATOM     21  C   UNL     1       6.161   5.475  16.465  0.00  0.00    +0.000 A 
ATOM     22  C   UNL     1       7.030   6.531  16.794  0.00  0.00    +0.000 A 
BRANCH  17  24
ATOM     23  C   UNL     1       8.224   8.931  18.016  0.00  0.00    +0.000 C 
ATOM     24  O   UNL     1       8.420   7.619  18.518  0.00  0.00    +0.000 OA
ENDBRANCH  17  24
BRANCH  21  25
ATOM     25  O   UNL     1       5.644   5.297  15.202  0.00  0.00    +0.000 OA
ATOM     26  C   UNL     1       6.528   4.721  14.241  0.00  0.00    +0.000 C 
ENDBRANCH  21  25
ENDBRANCH  16  20
ENDBRANCH   1  16
TORSDOF 6
ENDMDL
MODEL 2
REMARK VINA RESULT:      -7.7      0.358      1.013
REMARK  Name = 
REMARK  8 active torsions:
REMARK  status: ('A' for Active; 'I' for Inactive)
REMARK    1  A    between atoms: C_1  and  O_2
REMARK    2  A    between atoms: O_2  and  C_3
REMARK    3  A    between atoms: C_6  and  C_7
REMARK    4  A    between atoms: C_7  and  N_8
REMARK    5  A    between atoms: C_12  and  C_13
REMARK    6  A    between atoms: C_13  and  C_15
REMARK    7  A    between atoms: C_23  and  O_24
REMARK    8  A    between atoms: O_24  and  C_25
REMARK                            x       y       z     vdW  Elec       q    Type
REMARK                         _______ _______ _______ _____ _____    ______ ____
ROOT
ATOM      1  N   UNL     1       3.000   3.506  17.529  0.00  0.00    +0.000 NA
ATOM      2  C   UNL     1       2.357   2.249  17.917  0.00  0.00    +0.000 C 
ATOM      3  C   UNL     1       1.028   2.408  18.649  0.00  0.00    +0.000 C 
ATOM      4  C   UNL     1       1.121   3.421  19.779  0.00  0.00    +0.000 C 
ATOM      5  C   UNL     1       1.566   4.775  19.229  0.00  0.00    +0.000 C 
ATOM      6  C   UNL     1       2.855   4.675  18.401  0.00  0.00    +0.000 C 
ENDROOT
BRANCH   5   7
ATOM      7  C   UNL     1       1.821   5.773  20.365  0.00  0.00    +0.000 C 
ATOM      8  O   UNL     1       2.322   5.443  21.440  0.00  0.00    +0.000 OA
BRANCH   7   9
ATOM      9  C   UNL     1       1.553   7.220  20.121  0.00  0.00    +0.000 A 
ATOM     10  C   UNL     1       1.830   7.815  18.885  0.00  0.00    +0.000 A 
ATOM     11  C   UNL     1       1.599   9.179  18.696  0.00  0.00    +0.000 A 
ATOM     12  C   UNL     1       1.083   9.949  19.737  0.00  0.00    +0.000 A 
ATOM     13 CL   UNL     1       0.814  11.630  19.495  0.00  0.00    +0.000 Cl
ATOM     14  C   UNL     1       0.788   9.365  20.967  0.00  0.00    +0.000 A 
ATOM     15  C   UNL     1       1.018   7.998  21.158  0.00  0.00    +0.000 A 
ENDBRANCH   7   9
ENDBRANCH   5   7
BRANCH   1  16
ATOM     16  C   UNL     1       4.408   3.313  17.088  0.00  0.00    +0.000 C 
BRANCH  16  20
ATOM     17  C   UNL     1       7.362   6.376  18.080  0.00  0.00    +0.000 A 
ATOM     18  C   UNL     1       6.840   5.566  19.074  0.00  0.00    +0.000 A 
ATOM     19  C   UNL     1       5.886   4.607  18.762  0.00  0.00    +0.000 A 
ATOM     20  C   UNL     1       5.443   4.387  17.444  0.00  0.00    +0.000 A 
ATOM     21  C   UNL     1       6.000   5.198  16.434  0.00  0.00    +0.000 A 
ATOM     22  C   UNL     1       6.932   6.199  16.765  0.00  0.00    +0.000 A 
BRANCH  17  24
ATOM     23  C   UNL     1       8.197   8.591  17.970  0.00  0.00    +0.000 C 
ATOM     24  O   UNL     1       8.278   7.287  18.523  0.00  0.00    +0.000 OA
ENDBRANCH  17  24
BRANCH  21  25
ATOM     25  O   UNL     1       5.567   4.975  15.147  0.00  0.00    +0.000 OA
ATOM     26  C   UNL     1       6.543   4.468  14.238  0.00  0.00    +0.000 C 
ENDBRANCH  21  25
ENDBRANCH  16  20
ENDBRANCH   1  16
TORSDOF 6
ENDMDL
MODEL 3
REMARK VINA RESULT:      -7.7      2.000      3.333
REMARK  Name = 
REMARK  8 active torsions:
REMARK  status: ('A' for Active; 'I' for Inactive)
REMARK    1  A    between atoms: C_1  and  O_2
REMARK    2  A    between atoms: O_2  and  C_3
REMARK    3  A    between atoms: C_6  and  C_7
REMARK    4  A    between atoms: C_7  and  N_8
REMARK    5  A    between atoms: C_12  and  C_13
REMARK    6  A    between atoms: C_13  and  C_15
REMARK    7  A    between atoms: C_23  and  O_24
REMARK    8  A    between atoms: O_24  and  C_25
REMARK                            x       y       z     vdW  Elec       q    Type
REMARK                         _______ _______ _______ _____ _____    ______ ____
ROOT
ATOM      1  N   UNL     1       2.939   4.414  18.757  0.00  0.00    +0.000 NA
ATOM      2  C   UNL     1       2.780   4.490  20.210  0.00  0.00    +0.000 C 
ATOM      3  C   UNL     1       1.822   5.574  20.695  0.00  0.00    +0.000 C 
ATOM      4  C   UNL     1       2.108   6.917  20.040  0.00  0.00    +0.000 C 
ATOM      5  C   UNL     1       2.007   6.787  18.521  0.00  0.00    +0.000 C 
ATOM      6  C   UNL     1       2.880   5.650  17.971  0.00  0.00    +0.000 C 
ENDROOT
BRANCH   5   7
ATOM      7  C   UNL     1       2.444   8.084  17.829  0.00  0.00    +0.000 C 
ATOM      8  O   UNL     1       3.348   8.120  16.995  0.00  0.00    +0.000 OA
BRANCH   7   9
ATOM      9  C   UNL     1       1.670   9.332  18.092  0.00  0.00    +0.000 A 
ATOM     10  C   UNL     1       0.272   9.326  18.151  0.00  0.00    +0.000 A 
ATOM     11  C   UNL     1      -0.426  10.515  18.368  0.00  0.00    +0.000 A 
ATOM     12  C   UNL     1       0.270  11.711  18.534  0.00  0.00    +0.000 A 
ATOM     13 CL   UNL     1      -0.602  13.171  18.787  0.00  0.00    +0.000 Cl
ATOM     14  C   UNL     1       1.663  11.728  18.493  0.00  0.00    +0.000 A 
ATOM     15  C   UNL     1       2.364  10.537  18.277  0.00  0.00    +0.000 A 
ENDBRANCH   7   9
ENDBRANCH   5   7
BRANCH   1  16
ATOM     16  C   UNL     1       4.085   3.555  18.353  0.00  0.00    +0.000 C 
BRANCH  16  20
ATOM     17  C   UNL     1       6.924   5.095  15.411  0.00  0.00    +0.000 A 
ATOM     18  C   UNL     1       5.712   4.568  14.997  0.00  0.00    +0.000 A 
ATOM     19  C   UNL     1       4.819   4.060  15.931  0.00  0.00    +0.000 A 
ATOM     20  C   UNL     1       5.077   4.092  17.314  0.00  0.00    +0.000 A 
ATOM     21  C   UNL     1       6.302   4.654  17.728  0.00  0.00    +0.000 A 
ATOM     22  C   UNL     1       7.222   5.125  16.773  0.00  0.00    +0.000 A 
BRANCH  17  24
ATOM     23  C   UNL     1       7.514   4.951  13.121  0.00  0.00    +0.000 C 
ATOM     24  O   UNL     1       7.715   5.545  14.393  0.00  0.00    +0.000 OA
ENDBRANCH  17  24
BRANCH  21  25
ATOM     25  O   UNL     1       6.546   4.687  19.081  0.00  0.00    +0.000 OA
ATOM     26  C   UNL     1       7.490   5.661  19.523  0.00  0.00    +0.000 C 
ENDBRANCH  21  25
ENDBRANCH  16  20
ENDBRANCH   1  16
TORSDOF 6
ENDMDL
MODEL 4
REMARK VINA RESULT:      -7.6      1.809      3.041
REMARK  Name = 
REMARK  8 active torsions:
REMARK  status: ('A' for Active; 'I' for Inactive)
REMARK    1  A    between atoms: C_1  and  O_2
REMARK    2  A    between atoms: O_2  and  C_3
REMARK    3  A    between atoms: C_6  and  C_7
REMARK    4  A    between atoms: C_7  and  N_8
REMARK    5  A    between atoms: C_12  and  C_13
REMARK    6  A    between atoms: C_13  and  C_15
REMARK    7  A    between atoms: C_23  and  O_24
REMARK    8  A    between atoms: O_24  and  C_25
REMARK                            x       y       z     vdW  Elec       q    Type
REMARK                         _______ _______ _______ _____ _____    ______ ____
ROOT
ATOM      1  N   UNL     1       3.081   3.634  18.544  0.00  0.00    +0.000 NA
ATOM      2  C   UNL     1       2.796   3.334  19.948  0.00  0.00    +0.000 C 
ATOM      3  C   UNL     1       1.766   4.248  20.604  0.00  0.00    +0.000 C 
ATOM      4  C   UNL     1       2.063   5.717  20.341  0.00  0.00    +0.000 C 
ATOM      5  C   UNL     1       2.097   5.979  18.837  0.00  0.00    +0.000 C 
ATOM      6  C   UNL     1       3.049   5.029  18.096  0.00  0.00    +0.000 C 
ENDROOT
BRANCH   5   7
ATOM      7  C   UNL     1       2.549   7.414  18.540  0.00  0.00    +0.000 C 
ATOM      8  O   UNL     1       3.582   7.671  17.922  0.00  0.00    +0.000 OA
BRANCH   7   9
ATOM      9  C   UNL     1       1.647   8.542  18.915  0.00  0.00    +0.000 A 
ATOM     10  C   UNL     1       1.184   9.455  17.961  0.00  0.00    +0.000 A 
ATOM     11  C   UNL     1       0.366  10.519  18.347  0.00  0.00    +0.000 A 
ATOM     12  C   UNL     1       0.004  10.669  19.684  0.00  0.00    +0.000 A 
ATOM     13 CL   UNL     1      -0.992  11.991  20.149  0.00  0.00    +0.000 Cl
ATOM     14  C   UNL     1       0.446   9.758  20.642  0.00  0.00    +0.000 A 
ATOM     15  C   UNL     1       1.264   8.690  20.256  0.00  0.00    +0.000 A 
ENDBRANCH   7   9
ENDBRANCH   5   7
BRANCH   1  16
ATOM     16  C   UNL     1       4.284   2.917  18.040  0.00  0.00    +0.000 C 
BRANCH  16  20
ATOM     17  C   UNL     1       6.988   5.022  15.330  0.00  0.00    +0.000 A 
ATOM     18  C   UNL     1       5.973   4.230  14.821  0.00  0.00    +0.000 A 
ATOM     19  C   UNL     1       5.126   3.545  15.683  0.00  0.00    +0.000 A 
ATOM     20  C   UNL     1       5.230   3.652  17.082  0.00  0.00    +0.000 A 
ATOM     21  C   UNL     1       6.250   4.482  17.591  0.00  0.00    +0.000 A 
ATOM     22  C   UNL     1       7.133   5.136  16.712  0.00  0.00    +0.000 A 
BRANCH  17  24
ATOM     23  C   UNL     1       7.633   5.133  13.053  0.00  0.00    +0.000 C 
ATOM     24  O   UNL     1       7.757   5.627  14.377  0.00  0.00    +0.000 OA
ENDBRANCH  17  24
BRANCH  21  25
ATOM     25  O   UNL     1       6.343   4.586  18.960  0.00  0.00    +0.000 OA
ATOM     26  C   UNL     1       7.285   5.538  19.452  0.00  0.00    +0.000 C 
ENDBRANCH  21  25
ENDBRANCH  16  20
ENDBRANCH   1  16
TORSDOF 6
ENDMDL
MODEL 5
REMARK VINA RESULT:      -7.5      2.394      5.889
REMARK  Name = 
REMARK  8 active torsions:
REMARK  status: ('A' for Active; 'I' for Inactive)
REMARK    1  A    between atoms: C_1  and  O_2
REMARK    2  A    between atoms: O_2  and  C_3
REMARK    3  A    between atoms: C_6  and  C_7
REMARK    4  A    between atoms: C_7  and  N_8
REMARK    5  A    between atoms: C_12  and  C_13
REMARK    6  A    between atoms: C_13  and  C_15
REMARK    7  A    between atoms: C_23  and  O_24
REMARK    8  A    between atoms: O_24  and  C_25
REMARK                            x       y       z     vdW  Elec       q    Type
REMARK                         _______ _______ _______ _____ _____    ______ ____
ROOT
ATOM      1  N   UNL     1       2.751   4.291  20.133  0.00  0.00    +0.000 NA
ATOM      2  C   UNL     1       1.830   3.234  19.712  0.00  0.00    +0.000 C 
ATOM      3  C   UNL     1       2.471   2.107  18.908  0.00  0.00    +0.000 C 
ATOM      4  C   UNL     1       3.344   2.641  17.782  0.00  0.00    +0.000 C 
ATOM      5  C   UNL     1       4.434   3.545  18.353  0.00  0.00    +0.000 C 
ATOM      6  C   UNL     1       3.866   4.653  19.252  0.00  0.00    +0.000 C 
ENDROOT
BRANCH   5   7
ATOM      7  C   UNL     1       5.231   4.222  17.231  0.00  0.00    +0.000 C 
ATOM      8  O   UNL     1       5.122   3.895  16.049  0.00  0.00    +0.000 OA
BRANCH   7   9
ATOM      9  C   UNL     1       6.089   5.395  17.567  0.00  0.00    +0.000 A 
ATOM     10  C   UNL     1       5.894   6.639  16.959  0.00  0.00    +0.000 A 
ATOM     11  C   UNL     1       6.733   7.711  17.271  0.00  0.00    +0.000 A 
ATOM     12  C   UNL     1       7.762   7.544  18.196  0.00  0.00    +0.000 A 
ATOM     13 CL   UNL     1       8.796   8.868  18.561  0.00  0.00    +0.000 Cl
ATOM     14  C   UNL     1       7.956   6.314  18.821  0.00  0.00    +0.000 A 
ATOM     15  C   UNL     1       7.115   5.239  18.511  0.00  0.00    +0.000 A 
ENDBRANCH   7   9
ENDBRANCH   5   7
BRANCH   1  16
ATOM     16  C   UNL     1       2.042   5.492  20.652  0.00  0.00    +0.000 C 
BRANCH  16  20
ATOM     17  C   UNL     1       2.058   9.153  18.267  0.00  0.00    +0.000 A 
ATOM     18  C   UNL     1       2.498   7.963  17.715  0.00  0.00    +0.000 A 
ATOM     19  C   UNL     1       2.512   6.803  18.479  0.00  0.00    +0.000 A 
ATOM     20  C   UNL     1       2.052   6.773  19.809  0.00  0.00    +0.000 A 
ATOM     21  C   UNL     1       1.581   7.985  20.355  0.00  0.00    +0.000 A 
ATOM     22  C   UNL     1       1.613   9.165  19.589  0.00  0.00    +0.000 A 
BRANCH  17  24
ATOM     23  C   UNL     1       2.219  11.503  18.008  0.00  0.00    +0.000 C 
ATOM     24  O   UNL     1       2.110  10.219  17.415  0.00  0.00    +0.000 OA
ENDBRANCH  17  24
BRANCH  21  25
ATOM     25  O   UNL     1       1.129   7.948  21.654  0.00  0.00    +0.000 OA
ATOM     26  C   UNL     1       0.236   8.994  22.034  0.00  0.00    +0.000 C 
ENDBRANCH  21  25
ENDBRANCH  16  20
ENDBRANCH   1  16
TORSDOF 6
ENDMDL
MODEL 6
REMARK VINA RESULT:      -7.4      2.817      5.006
REMARK  Name = 
REMARK  8 active torsions:
REMARK  status: ('A' for Active; 'I' for Inactive)
REMARK    1  A    between atoms: C_1  and  O_2
REMARK    2  A    between atoms: O_2  and  C_3
REMARK    3  A    between atoms: C_6  and  C_7
REMARK    4  A    between atoms: C_7  and  N_8
REMARK    5  A    between atoms: C_12  and  C_13
REMARK    6  A    between atoms: C_13  and  C_15
REMARK    7  A    between atoms: C_23  and  O_24
REMARK    8  A    between atoms: O_24  and  C_25
REMARK                            x       y       z     vdW  Elec       q    Type
REMARK                         _______ _______ _______ _____ _____    ______ ____
ROOT
ATOM      1  N   UNL     1       2.404   7.661  19.270  0.00  0.00    +0.000 NA
ATOM      2  C   UNL     1       2.029   8.112  17.929  0.00  0.00    +0.000 C 
ATOM      3  C   UNL     1       1.516   9.547  17.855  0.00  0.00    +0.000 C 
ATOM      4  C   UNL     1       0.457   9.825  18.911  0.00  0.00    +0.000 C 
ATOM      5  C   UNL     1       1.026   9.556  20.302  0.00  0.00    +0.000 C 
ATOM      6  C   UNL     1       1.645   8.156  20.422  0.00  0.00    +0.000 C 
ENDROOT
BRANCH   5   7
ATOM      7  C   UNL     1      -0.063   9.676  21.374  0.00  0.00    +0.000 C 
ATOM      8  O   UNL     1      -0.589   8.694  21.900  0.00  0.00    +0.000 OA
BRANCH   7   9
ATOM      9  C   UNL     1      -0.425  11.031  21.882  0.00  0.00    +0.000 A 
ATOM     10  C   UNL     1       0.179  12.186  21.372  0.00  0.00    +0.000 A 
ATOM     11  C   UNL     1      -0.157  13.439  21.888  0.00  0.00    +0.000 A 
ATOM     12  C   UNL     1      -1.101  13.542  22.908  0.00  0.00    +0.000 A 
ATOM     13 CL   UNL     1      -1.495  15.090  23.545  0.00  0.00    +0.000 Cl
ATOM     14  C   UNL     1      -1.720  12.401  23.414  0.00  0.00    +0.000 A 
ATOM     15  C   UNL     1      -1.386  11.144  22.897  0.00  0.00    +0.000 A 
ENDBRANCH   7   9
ENDBRANCH   5   7
BRANCH   1  16
ATOM     16  C   UNL     1       2.616   6.189  19.337  0.00  0.00    +0.000 C 
BRANCH  16  20
ATOM     17  C   UNL     1       5.309   4.309  16.456  0.00  0.00    +0.000 A 
ATOM     18  C   UNL     1       5.623   5.544  16.997  0.00  0.00    +0.000 A 
ATOM     19  C   UNL     1       4.757   6.151  17.897  0.00  0.00    +0.000 A 
ATOM     20  C   UNL     1       3.566   5.537  18.326  0.00  0.00    +0.000 A 
ATOM     21  C   UNL     1       3.268   4.267  17.790  0.00  0.00    +0.000 A 
ATOM     22  C   UNL     1       4.127   3.678  16.843  0.00  0.00    +0.000 A 
BRANCH  17  24
ATOM     23  C   UNL     1       6.843   4.782  14.714  0.00  0.00    +0.000 C 
ATOM     24  O   UNL     1       6.236   3.832  15.574  0.00  0.00    +0.000 OA
ENDBRANCH  17  24
BRANCH  21  25
ATOM     25  O   UNL     1       2.104   3.669  18.217  0.00  0.00    +0.000 OA
ATOM     26  C   UNL     1       2.036   2.252  18.064  0.00  0.00    +0.000 C 
ENDBRANCH  21  25
ENDBRANCH  16  20
ENDBRANCH   1  16
TORSDOF 6
ENDMDL
MODEL 7
REMARK VINA RESULT:      -7.3      1.395      2.606
REMARK  Name = 
REMARK  8 active torsions:
REMARK  status: ('A' for Active; 'I' for Inactive)
REMARK    1  A    between atoms: C_1  and  O_2
REMARK    2  A    between atoms: O_2  and  C_3
REMARK    3  A    between atoms: C_6  and  C_7
REMARK    4  A    between atoms: C_7  and  N_8
REMARK    5  A    between atoms: C_12  and  C_13
REMARK    6  A    between atoms: C_13  and  C_15
REMARK    7  A    between atoms: C_23  and  O_24
REMARK    8  A    between atoms: O_24  and  C_25
REMARK                            x       y       z     vdW  Elec       q    Type
REMARK                         _______ _______ _______ _____ _____    ______ ____
ROOT
ATOM      1  N   UNL     1       3.122   3.396  17.503  0.00  0.00    +0.000 NA
ATOM      2  C   UNL     1       2.178   2.389  17.990  0.00  0.00    +0.000 C 
ATOM      3  C   UNL     1       0.867   2.948  18.535  0.00  0.00    +0.000 C 
ATOM      4  C   UNL     1       1.101   4.090  19.513  0.00  0.00    +0.000 C 
ATOM      5  C   UNL     1       1.889   5.206  18.830  0.00  0.00    +0.000 C 
ATOM      6  C   UNL     1       3.182   4.696  18.177  0.00  0.00    +0.000 C 
ENDROOT
BRANCH   5   7
ATOM      7  C   UNL     1       2.276   6.299  19.834  0.00  0.00    +0.000 C 
ATOM      8  O   UNL     1       2.980   6.077  20.819  0.00  0.00    +0.000 OA
BRANCH   7   9
ATOM      9  C   UNL     1       1.877   7.708  19.549  0.00  0.00    +0.000 A 
ATOM     10  C   UNL     1       1.194   8.479  20.496  0.00  0.00    +0.000 A 
ATOM     11  C   UNL     1       0.807   9.785  20.190  0.00  0.00    +0.000 A 
ATOM     12  C   UNL     1       1.108  10.326  18.942  0.00  0.00    +0.000 A 
ATOM     13 CL   UNL     1       0.613  11.931  18.572  0.00  0.00    +0.000 Cl
ATOM     14  C   UNL     1       1.801   9.574  17.995  0.00  0.00    +0.000 A 
ATOM     15  C   UNL     1       2.192   8.265  18.301  0.00  0.00    +0.000 A 
ENDBRANCH   7   9
ENDBRANCH   5   7
BRANCH   1  16
ATOM     16  C   UNL     1       4.478   2.835  17.258  0.00  0.00    +0.000 C 
BRANCH  16  20
ATOM     17  C   UNL     1       7.219   5.034  14.662  0.00  0.00    +0.000 A 
ATOM     18  C   UNL     1       6.166   4.321  14.115  0.00  0.00    +0.000 A 
ATOM     19  C   UNL     1       5.307   3.605  14.939  0.00  0.00    +0.000 A 
ATOM     20  C   UNL     1       5.436   3.603  16.340  0.00  0.00    +0.000 A 
ATOM     21  C   UNL     1       6.496   4.354  16.890  0.00  0.00    +0.000 A 
ATOM     22  C   UNL     1       7.390   5.038  16.047  0.00  0.00    +0.000 A 
BRANCH  17  24
ATOM     23  C   UNL     1       7.845   5.279  12.390  0.00  0.00    +0.000 C 
ATOM     24  O   UNL     1       7.996   5.679  13.743  0.00  0.00    +0.000 OA
ENDBRANCH  17  24
BRANCH  21  25
ATOM     25  O   UNL     1       6.614   4.351  18.261  0.00  0.00    +0.000 OA
ATOM     26  C   UNL     1       7.269   5.482  18.834  0.00  0.00    +0.000 C 
ENDBRANCH  21  25
ENDBRANCH  16  20
ENDBRANCH   1  16
TORSDOF 6
ENDMDL
MODEL 8
REMARK VINA RESULT:      -7.3      2.412      6.222
REMARK  Name = 
REMARK  8 active torsions:
REMARK  status: ('A' for Active; 'I' for Inactive)
REMARK    1  A    between atoms: C_1  and  O_2
REMARK    2  A    between atoms: O_2  and  C_3
REMARK    3  A    between atoms: C_6  and  C_7
REMARK    4  A    between atoms: C_7  and  N_8
REMARK    5  A    between atoms: C_12  and  C_13
REMARK    6  A    between atoms: C_13  and  C_15
REMARK    7  A    between atoms: C_23  and  O_24
REMARK    8  A    between atoms: O_24  and  C_25
REMARK                            x       y       z     vdW  Elec       q    Type
REMARK                         _______ _______ _______ _____ _____    ______ ____
ROOT
ATOM      1  N   UNL     1       2.770   4.746  19.818  0.00  0.00    +0.000 NA
ATOM      2  C   UNL     1       1.510   4.351  19.186  0.00  0.00    +0.000 C 
ATOM      3  C   UNL     1       1.632   3.232  18.155  0.00  0.00    +0.000 C 
ATOM      4  C   UNL     1       2.756   3.495  17.165  0.00  0.00    +0.000 C 
ATOM      5  C   UNL     1       4.080   3.651  17.910  0.00  0.00    +0.000 C 
ATOM      6  C   UNL     1       4.004   4.701  19.028  0.00  0.00    +0.000 C 
ENDROOT
BRANCH   5   7
ATOM      7  C   UNL     1       5.202   4.072  16.953  0.00  0.00    +0.000 C 
ATOM      8  O   UNL     1       5.360   3.558  15.846  0.00  0.00    +0.000 OA
BRANCH   7   9
ATOM      9  C   UNL     1       6.071   5.226  17.330  0.00  0.00    +0.000 A 
ATOM     10  C   UNL     1       7.140   5.073  18.220  0.00  0.00    +0.000 A 
ATOM     11  C   UNL     1       7.917   6.177  18.578  0.00  0.00    +0.000 A 
ATOM     12  C   UNL     1       7.633   7.432  18.043  0.00  0.00    +0.000 A 
ATOM     13 CL   UNL     1       8.589   8.785  18.502  0.00  0.00    +0.000 Cl
ATOM     14  C   UNL     1       6.581   7.594  17.144  0.00  0.00    +0.000 A 
ATOM     15  C   UNL     1       5.802   6.488  16.783  0.00  0.00    +0.000 A 
ENDBRANCH   7   9
ENDBRANCH   5   7
BRANCH   1  16
ATOM     16  C   UNL     1       2.649   6.016  20.585  0.00  0.00    +0.000 C 
BRANCH  16  20
ATOM     17  C   UNL     1       1.218   9.596  18.531  0.00  0.00    +0.000 A 
ATOM     18  C   UNL     1       1.919   8.628  17.832  0.00  0.00    +0.000 A 
ATOM     19  C   UNL     1       2.391   7.500  18.489  0.00  0.00    +0.000 A 
ATOM     20  C   UNL     1       2.151   7.270  19.857  0.00  0.00    +0.000 A 
ATOM     21  C   UNL     1       1.413   8.249  20.554  0.00  0.00    +0.000 A 
ATOM     22  C   UNL     1       0.977   9.411  19.892  0.00  0.00    +0.000 A 
BRANCH  17  24
ATOM     23  C   UNL     1      -0.194  11.487  18.311  0.00  0.00    +0.000 C 
ATOM     24  O   UNL     1       0.824  10.660  17.770  0.00  0.00    +0.000 OA
ENDBRANCH  17  24
BRANCH  21  25
ATOM     25  O   UNL     1       1.178   8.016  21.890  0.00  0.00    +0.000 OA
ATOM     26  C   UNL     1       0.840   9.159  22.673  0.00  0.00    +0.000 C 
ENDBRANCH  21  25
ENDBRANCH  16  20
ENDBRANCH   1  16
TORSDOF 6
ENDMDL
MODEL 9
REMARK VINA RESULT:      -7.3      2.065      3.559
REMARK  Name = 
REMARK  8 active torsions:
REMARK  status: ('A' for Active; 'I' for Inactive)
REMARK    1  A    between atoms: C_1  and  O_2
REMARK    2  A    between atoms: O_2  and  C_3
REMARK    3  A    between atoms: C_6  and  C_7
REMARK    4  A    between atoms: C_7  and  N_8
REMARK    5  A    between atoms: C_12  and  C_13
REMARK    6  A    between atoms: C_13  and  C_15
REMARK    7  A    between atoms: C_23  and  O_24
REMARK    8  A    between atoms: O_24  and  C_25
REMARK                            x       y       z     vdW  Elec       q    Type
REMARK                         _______ _______ _______ _____ _____    ______ ____
ROOT
ATOM      1  N   UNL     1       3.578   5.298  18.849  0.00  0.00    +0.000 NA
ATOM      2  C   UNL     1       3.123   5.062  20.221  0.00  0.00    +0.000 C 
ATOM      3  C   UNL     1       1.772   5.682  20.564  0.00  0.00    +0.000 C 
ATOM      4  C   UNL     1       1.691   7.139  20.136  0.00  0.00    +0.000 C 
ATOM      5  C   UNL     1       1.941   7.255  18.633  0.00  0.00    +0.000 C 
ATOM      6  C   UNL     1       3.245   6.570  18.200  0.00  0.00    +0.000 C 
ENDROOT
BRANCH   5   7
ATOM      7  C   UNL     1       2.022   8.723  18.201  0.00  0.00    +0.000 C 
ATOM      8  O   UNL     1       2.908   9.150  17.460  0.00  0.00    +0.000 OA
BRANCH   7   9
ATOM      9  C   UNL     1       0.924   9.651  18.601  0.00  0.00    +0.000 A 
ATOM     10  C   UNL     1       1.075  10.541  19.670  0.00  0.00    +0.000 A 
ATOM     11  C   UNL     1       0.020  11.376  20.042  0.00  0.00    +0.000 A 
ATOM     12  C   UNL     1      -1.185  11.329  19.343  0.00  0.00    +0.000 A 
ATOM     13 CL   UNL     1      -2.482  12.352  19.819  0.00  0.00    +0.000 Cl
ATOM     14  C   UNL     1      -1.343  10.458  18.267  0.00  0.00    +0.000 A 
ATOM     15  C   UNL     1      -0.285   9.621  17.892  0.00  0.00    +0.000 A 
ENDBRANCH   7   9
ENDBRANCH   5   7
BRANCH   1  16
ATOM     16  C   UNL     1       5.007   4.933  18.653  0.00  0.00    +0.000 C 
BRANCH  16  20
ATOM     17  C   UNL     1       6.573   4.672  14.582  0.00  0.00    +0.000 A 
ATOM     18  C   UNL     1       5.392   4.030  14.915  0.00  0.00    +0.000 A 
ATOM     19  C   UNL     1       4.906   4.096  16.214  0.00  0.00    +0.000 A 
ATOM     20  C   UNL     1       5.551   4.835  17.222  0.00  0.00    +0.000 A 
ATOM     21  C   UNL     1       6.739   5.508  16.867  0.00  0.00    +0.000 A 
ATOM     22  C   UNL     1       7.250   5.398  15.561  0.00  0.00    +0.000 A 
BRANCH  17  24
ATOM     23  C   UNL     1       8.032   5.309  12.827  0.00  0.00    +0.000 C 
ATOM     24  O   UNL     1       6.948   4.514  13.278  0.00  0.00    +0.000 OA
ENDBRANCH  17  24
BRANCH  21  25
ATOM     25  O   UNL     1       7.362   6.233  17.856  0.00  0.00    +0.000 OA
ATOM     26  C   UNL     1       7.617   7.605  17.559  0.00  0.00    +0.000 C 
ENDBRANCH  21  25
ENDBRANCH  16  20
ENDBRANCH   1  16
TORSDOF 6
ENDMDL
