MODEL 1
REMARK VINA RESULT:      -6.7      0.000      0.000
REMARK  Name = 
REMARK  9 active torsions:
REMARK  status: ('A' for Active; 'I' for Inactive)
REMARK    1  A    between atoms: C_2  and  C_3
REMARK    2  A    between atoms: C_3  and  N_4
REMARK    3  A    between atoms: C_5  and  C_7
REMARK    4  A    between atoms: C_13  and  C_14
REMARK    5  A    between atoms: C_14  and  C_15
REMARK    6  A    between atoms: C_15  and  C_16
REMARK    7  A    between atoms: C_16  and  C_17
REMARK    8  A    between atoms: C_17  and  C_18
REMARK    9  A    between atoms: C_18  and  C_19
REMARK                            x       y       z     vdW  Elec       q    Type
REMARK                         _______ _______ _______ _____ _____    ______ ____
ROOT
ATOM      1  C   UNL     1       3.751   3.936  17.816  0.00  0.00    +0.000 C 
ATOM      2  C   UNL     1       4.679   3.681  18.953  0.00  0.00    +0.000 C 
ATOM      3  C   UNL     1       4.767   2.626  19.777  0.00  0.00    +0.000 C 
ATOM      4  C   UNL     1       5.675   4.767  18.985  0.00  0.00    +0.000 C 
ATOM      5  O   UNL     1       6.392   5.059  19.921  0.00  0.00    +0.000 OA
ATOM      6  O   UNL     1       5.643   5.368  17.769  0.00  0.00    +0.000 OA
ATOM      7  C   UNL     1       4.725   4.678  16.891  0.00  0.00    +0.000 C 
ENDROOT
BRANCH   1   9
ATOM      8  N   UNL     1       1.289   4.286  18.403  0.00  0.00    +0.000 N 
ATOM      9  C   UNL     1       2.495   4.822  18.049  0.00  0.00    +0.000 C 
ATOM     10  O   UNL     1       2.512   6.031  17.794  0.00  0.00    +0.000 OA
ATOM     11  H   UNL     1       0.550   4.969  18.520  0.00  0.00    +0.000 HD
BRANCH   8  12
ATOM     12  C   UNL     1       1.042   2.926  18.759  0.00  0.00    +0.000 C 
BRANCH  12  14
ATOM     13  C   UNL     1       1.407   3.653  21.082  0.00  0.00    +0.000 C 
ATOM     14  C   UNL     1       1.067   2.683  20.225  0.00  0.00    +0.000 C 
ENDBRANCH  12  14
ENDBRANCH   8  12
ENDBRANCH   1   9
BRANCH   7  15
ATOM     15  C   UNL     1       5.543   3.779  15.944  0.00  0.00    +0.000 C 
BRANCH  15  16
ATOM     16  C   UNL     1       6.729   4.528  15.349  0.00  0.00    +0.000 C 
BRANCH  16  17
ATOM     17  C   UNL     1       6.811   4.399  13.831  0.00  0.00    +0.000 C 
BRANCH  17  18
ATOM     18  C   UNL     1       5.444   3.982  13.288  0.00  0.00    +0.000 C 
BRANCH  18  19
ATOM     19  C   UNL     1       5.548   3.169  12.003  0.00  0.00    +0.000 C 
ATOM     20  C   UNL     1       4.209   3.138  11.280  0.00  0.00    +0.000 C 
ENDBRANCH  18  19
ENDBRANCH  17  18
ENDBRANCH  16  17
ENDBRANCH  15  16
ENDBRANCH   7  15
TORSDOF 8
ENDMDL
MODEL 2
REMARK VINA RESULT:      -6.6      2.117      6.189
REMARK  Name = 
REMARK  9 active torsions:
REMARK  status: ('A' for Active; 'I' for Inactive)
REMARK    1  A    between atoms: C_2  and  C_3
REMARK    2  A    between atoms: C_3  and  N_4
REMARK    3  A    between atoms: C_5  and  C_7
REMARK    4  A    between atoms: C_13  and  C_14
REMARK    5  A    between atoms: C_14  and  C_15
REMARK    6  A    between atoms: C_15  and  C_16
REMARK    7  A    between atoms: C_16  and  C_17
REMARK    8  A    between atoms: C_17  and  C_18
REMARK    9  A    between atoms: C_18  and  C_19
REMARK                            x       y       z     vdW  Elec       q    Type
REMARK                         _______ _______ _______ _____ _____    ______ ____
ROOT
ATOM      1  C   UNL     1       4.984   4.723  16.316  0.00  0.00    +0.000 C 
ATOM      2  C   UNL     1       4.911   5.703  17.435  0.00  0.00    +0.000 C 
ATOM      3  C   UNL     1       4.539   6.992  17.434  0.00  0.00    +0.000 C 
ATOM      4  C   UNL     1       5.194   4.986  18.691  0.00  0.00    +0.000 C 
ATOM      5  O   UNL     1       5.512   5.488  19.751  0.00  0.00    +0.000 OA
ATOM      6  O   UNL     1       5.022   3.665  18.439  0.00  0.00    +0.000 OA
ATOM      7  C   UNL     1       4.554   3.467  17.086  0.00  0.00    +0.000 C 
ENDROOT
BRANCH   1   9
ATOM      8  N   UNL     1       6.442   3.979  14.353  0.00  0.00    +0.000 N 
ATOM      9  C   UNL     1       6.354   4.456  15.631  0.00  0.00    +0.000 C 
ATOM     10  O   UNL     1       7.410   4.542  16.265  0.00  0.00    +0.000 OA
ATOM     11  H   UNL     1       7.390   3.843  14.025  0.00  0.00    +0.000 HD
BRANCH   8  12
ATOM     12  C   UNL     1       5.359   3.818  13.436  0.00  0.00    +0.000 C 
BRANCH  12  14
ATOM     13  C   UNL     1       7.055   3.259  11.742  0.00  0.00    +0.000 C 
ATOM     14  C   UNL     1       5.772   3.253  12.126  0.00  0.00    +0.000 C 
ENDBRANCH  12  14
ENDBRANCH   8  12
ENDBRANCH   1   9
BRANCH   7  15
ATOM     15  C   UNL     1       3.035   3.214  17.130  0.00  0.00    +0.000 C 
BRANCH  15  16
ATOM     16  C   UNL     1       2.686   2.072  18.077  0.00  0.00    +0.000 C 
BRANCH  16  17
ATOM     17  C   UNL     1       1.296   2.213  18.690  0.00  0.00    +0.000 C 
BRANCH  17  18
ATOM     18  C   UNL     1       1.047   3.681  19.036  0.00  0.00    +0.000 C 
BRANCH  18  19
ATOM     19  C   UNL     1       1.283   3.982  20.512  0.00  0.00    +0.000 C 
ATOM     20  C   UNL     1       2.021   5.303  20.676  0.00  0.00    +0.000 C 
ENDBRANCH  18  19
ENDBRANCH  17  18
ENDBRANCH  16  17
ENDBRANCH  15  16
ENDBRANCH   7  15
TORSDOF 8
ENDMDL
MODEL 3
REMARK VINA RESULT:      -6.6      1.868      2.295
REMARK  Name = 
REMARK  9 active torsions:
REMARK  status: ('A' for Active; 'I' for Inactive)
REMARK    1  A    between atoms: C_2  and  C_3
REMARK    2  A    between atoms: C_3  and  N_4
REMARK    3  A    between atoms: C_5  and  C_7
REMARK    4  A    between atoms: C_13  and  C_14
REMARK    5  A    between atoms: C_14  and  C_15
REMARK    6  A    between atoms: C_15  and  C_16
REMARK    7  A    between atoms: C_16  and  C_17
REMARK    8  A    between atoms: C_17  and  C_18
REMARK    9  A    between atoms: C_18  and  C_19
REMARK                            x       y       z     vdW  Elec       q    Type
REMARK                         _______ _______ _______ _____ _____    ______ ____
ROOT
ATOM      1  C   UNL     1       4.930   5.423  17.786  0.00  0.00    +0.000 C 
ATOM      2  C   UNL     1       6.281   5.926  18.162  0.00  0.00    +0.000 C 
ATOM      3  C   UNL     1       7.027   5.673  19.248  0.00  0.00    +0.000 C 
ATOM      4  C   UNL     1       6.812   6.702  17.028  0.00  0.00    +0.000 C 
ATOM      5  O   UNL     1       7.731   7.497  17.066  0.00  0.00    +0.000 OA
ATOM      6  O   UNL     1       6.087   6.354  15.936  0.00  0.00    +0.000 OA
ATOM      7  C   UNL     1       5.142   5.312  16.271  0.00  0.00    +0.000 C 
ENDROOT
BRANCH   1   9
ATOM      8  N   UNL     1       2.506   5.789  18.509  0.00  0.00    +0.000 N 
ATOM      9  C   UNL     1       3.686   6.314  18.062  0.00  0.00    +0.000 C 
ATOM     10  O   UNL     1       3.683   7.513  17.762  0.00  0.00    +0.000 OA
ATOM     11  H   UNL     1       1.772   6.474  18.645  0.00  0.00    +0.000 HD
BRANCH   8  12
ATOM     12  C   UNL     1       2.287   4.443  18.930  0.00  0.00    +0.000 C 
BRANCH  12  14
ATOM     13  C   UNL     1       2.484   2.323  17.696  0.00  0.00    +0.000 C 
ATOM     14  C   UNL     1       1.916   3.529  17.819  0.00  0.00    +0.000 C 
ENDBRANCH  12  14
ENDBRANCH   8  12
ENDBRANCH   1   9
BRANCH   7  15
ATOM     15  C   UNL     1       5.713   3.966  15.786  0.00  0.00    +0.000 C 
BRANCH  15  16
ATOM     16  C   UNL     1       6.479   4.122  14.478  0.00  0.00    +0.000 C 
BRANCH  16  17
ATOM     17  C   UNL     1       5.583   4.010  13.248  0.00  0.00    +0.000 C 
BRANCH  17  18
ATOM     18  C   UNL     1       6.280   3.149  12.195  0.00  0.00    +0.000 C 
BRANCH  18  19
ATOM     19  C   UNL     1       5.296   2.346  11.352  0.00  0.00    +0.000 C 
ATOM     20  C   UNL     1       3.986   3.104  11.192  0.00  0.00    +0.000 C 
ENDBRANCH  18  19
ENDBRANCH  17  18
ENDBRANCH  16  17
ENDBRANCH  15  16
ENDBRANCH   7  15
TORSDOF 8
ENDMDL
MODEL 4
REMARK VINA RESULT:      -6.6      2.193      4.185
REMARK  Name = 
REMARK  9 active torsions:
REMARK  status: ('A' for Active; 'I' for Inactive)
REMARK    1  A    between atoms: C_2  and  C_3
REMARK    2  A    between atoms: C_3  and  N_4
REMARK    3  A    between atoms: C_5  and  C_7
REMARK    4  A    between atoms: C_13  and  C_14
REMARK    5  A    between atoms: C_14  and  C_15
REMARK    6  A    between atoms: C_15  and  C_16
REMARK    7  A    between atoms: C_16  and  C_17
REMARK    8  A    between atoms: C_17  and  C_18
REMARK    9  A    between atoms: C_18  and  C_19
REMARK                            x       y       z     vdW  Elec       q    Type
REMARK                         _______ _______ _______ _____ _____    ______ ____
ROOT
ATOM      1  C   UNL     1       4.643   5.433  17.931  0.00  0.00    +0.000 C 
ATOM      2  C   UNL     1       3.183   5.728  17.931  0.00  0.00    +0.000 C 
ATOM      3  C   UNL     1       2.537   6.903  17.973  0.00  0.00    +0.000 C 
ATOM      4  C   UNL     1       2.460   4.461  17.722  0.00  0.00    +0.000 C 
ATOM      5  O   UNL     1       1.285   4.255  17.953  0.00  0.00    +0.000 OA
ATOM      6  O   UNL     1       3.353   3.575  17.214  0.00  0.00    +0.000 OA
ATOM      7  C   UNL     1       4.630   4.218  16.995  0.00  0.00    +0.000 C 
ENDROOT
BRANCH   1   9
ATOM      8  N   UNL     1       6.696   5.005  19.391  0.00  0.00    +0.000 N 
ATOM      9  C   UNL     1       5.336   5.039  19.266  0.00  0.00    +0.000 C 
ATOM     10  O   UNL     1       4.680   4.618  20.224  0.00  0.00    +0.000 OA
ATOM     11  H   UNL     1       7.022   4.729  20.310  0.00  0.00    +0.000 HD
BRANCH   8  12
ATOM     12  C   UNL     1       7.645   5.459  18.425  0.00  0.00    +0.000 C 
BRANCH  12  14
ATOM     13  C   UNL     1       7.672   7.747  17.520  0.00  0.00    +0.000 C 
ATOM     14  C   UNL     1       7.947   6.910  18.528  0.00  0.00    +0.000 C 
ENDBRANCH  12  14
ENDBRANCH   8  12
ENDBRANCH   1   9
BRANCH   7  15
ATOM     15  C   UNL     1       4.756   4.545  15.495  0.00  0.00    +0.000 C 
BRANCH  15  16
ATOM     16  C   UNL     1       6.014   5.354  15.203  0.00  0.00    +0.000 C 
BRANCH  16  17
ATOM     17  C   UNL     1       6.815   4.802  14.028  0.00  0.00    +0.000 C 
BRANCH  17  18
ATOM     18  C   UNL     1       6.189   3.485  13.568  0.00  0.00    +0.000 C 
BRANCH  18  19
ATOM     19  C   UNL     1       6.058   3.397  12.052  0.00  0.00    +0.000 C 
ATOM     20  C   UNL     1       4.600   3.226  11.651  0.00  0.00    +0.000 C 
ENDBRANCH  18  19
ENDBRANCH  17  18
ENDBRANCH  16  17
ENDBRANCH  15  16
ENDBRANCH   7  15
TORSDOF 8
ENDMDL
MODEL 5
REMARK VINA RESULT:      -6.6      2.801      4.594
REMARK  Name = 
REMARK  9 active torsions:
REMARK  status: ('A' for Active; 'I' for Inactive)
REMARK    1  A    between atoms: C_2  and  C_3
REMARK    2  A    between atoms: C_3  and  N_4
REMARK    3  A    between atoms: C_5  and  C_7
REMARK    4  A    between atoms: C_13  and  C_14
REMARK    5  A    between atoms: C_14  and  C_15
REMARK    6  A    between atoms: C_15  and  C_16
REMARK    7  A    between atoms: C_16  and  C_17
REMARK    8  A    between atoms: C_17  and  C_18
REMARK    9  A    between atoms: C_18  and  C_19
REMARK                            x       y       z     vdW  Elec       q    Type
REMARK                         _______ _______ _______ _____ _____    ______ ____
ROOT
ATOM      1  C   UNL     1       3.937   5.171  18.399  0.00  0.00    +0.000 C 
ATOM      2  C   UNL     1       3.952   6.394  17.549  0.00  0.00    +0.000 C 
ATOM      3  C   UNL     1       3.323   7.568  17.710  0.00  0.00    +0.000 C 
ATOM      4  C   UNL     1       4.942   6.194  16.476  0.00  0.00    +0.000 C 
ATOM      5  O   UNL     1       5.023   6.827  15.442  0.00  0.00    +0.000 OA
ATOM      6  O   UNL     1       5.749   5.176  16.868  0.00  0.00    +0.000 OA
ATOM      7  C   UNL     1       5.395   4.737  18.199  0.00  0.00    +0.000 C 
ENDROOT
BRANCH   1   9
ATOM      8  N   UNL     1       1.902   3.669  18.765  0.00  0.00    +0.000 N 
ATOM      9  C   UNL     1       2.997   3.994  18.015  0.00  0.00    +0.000 C 
ATOM     10  O   UNL     1       3.282   3.228  17.088  0.00  0.00    +0.000 OA
ATOM     11  H   UNL     1       1.375   2.880  18.410  0.00  0.00    +0.000 HD
BRANCH   8  12
ATOM     12  C   UNL     1       1.379   4.417  19.863  0.00  0.00    +0.000 C 
BRANCH  12  14
ATOM     13  C   UNL     1       1.658   2.678  21.582  0.00  0.00    +0.000 C 
ATOM     14  C   UNL     1       1.859   3.941  21.185  0.00  0.00    +0.000 C 
ENDBRANCH  12  14
ENDBRANCH   8  12
ENDBRANCH   1   9
BRANCH   7  15
ATOM     15  C   UNL     1       6.401   5.344  19.195  0.00  0.00    +0.000 C 
BRANCH  15  16
ATOM     16  C   UNL     1       7.738   5.643  18.526  0.00  0.00    +0.000 C 
BRANCH  16  17
ATOM     17  C   UNL     1       8.210   7.075  18.758  0.00  0.00    +0.000 C 
BRANCH  17  18
ATOM     18  C   UNL     1       7.687   7.966  17.630  0.00  0.00    +0.000 C 
BRANCH  18  19
ATOM     19  C   UNL     1       8.148   9.412  17.766  0.00  0.00    +0.000 C 
ATOM     20  C   UNL     1       8.971   9.594  19.033  0.00  0.00    +0.000 C 
ENDBRANCH  18  19
ENDBRANCH  17  18
ENDBRANCH  16  17
ENDBRANCH  15  16
ENDBRANCH   7  15
TORSDOF 8
ENDMDL
MODEL 6
REMARK VINA RESULT:      -6.6      3.393      6.554
REMARK  Name = 
REMARK  9 active torsions:
REMARK  status: ('A' for Active; 'I' for Inactive)
REMARK    1  A    between atoms: C_2  and  C_3
REMARK    2  A    between atoms: C_3  and  N_4
REMARK    3  A    between atoms: C_5  and  C_7
REMARK    4  A    between atoms: C_13  and  C_14
REMARK    5  A    between atoms: C_14  and  C_15
REMARK    6  A    between atoms: C_15  and  C_16
REMARK    7  A    between atoms: C_16  and  C_17
REMARK    8  A    between atoms: C_17  and  C_18
REMARK    9  A    between atoms: C_18  and  C_19
REMARK                            x       y       z     vdW  Elec       q    Type
REMARK                         _______ _______ _______ _____ _____    ______ ____
ROOT
ATOM      1  C   UNL     1       3.130   4.082  19.394  0.00  0.00    +0.000 C 
ATOM      2  C   UNL     1       1.820   3.476  19.765  0.00  0.00    +0.000 C 
ATOM      3  C   UNL     1       1.176   3.462  20.942  0.00  0.00    +0.000 C 
ATOM      4  C   UNL     1       1.189   2.961  18.537  0.00  0.00    +0.000 C 
ATOM      5  O   UNL     1       0.280   2.158  18.477  0.00  0.00    +0.000 OA
ATOM      6  O   UNL     1       1.810   3.563  17.492  0.00  0.00    +0.000 OA
ATOM      7  C   UNL     1       2.779   4.525  17.967  0.00  0.00    +0.000 C 
ENDROOT
BRANCH   1   9
ATOM      8  N   UNL     1       5.650   3.703  19.202  0.00  0.00    +0.000 N 
ATOM      9  C   UNL     1       4.396   3.180  19.350  0.00  0.00    +0.000 C 
ATOM     10  O   UNL     1       4.300   1.949  19.318  0.00  0.00    +0.000 OA
ATOM     11  H   UNL     1       6.388   3.010  19.184  0.00  0.00    +0.000 HD
BRANCH   8  12
ATOM     12  C   UNL     1       5.996   5.088  19.228  0.00  0.00    +0.000 C 
BRANCH  12  14
ATOM     13  C   UNL     1       7.503   6.597  18.001  0.00  0.00    +0.000 C 
ATOM     14  C   UNL     1       6.662   5.556  17.986  0.00  0.00    +0.000 C 
ENDBRANCH  12  14
ENDBRANCH   8  12
ENDBRANCH   1   9
BRANCH   7  15
ATOM     15  C   UNL     1       2.162   5.932  17.851  0.00  0.00    +0.000 C 
BRANCH  15  16
ATOM     16  C   UNL     1       2.881   6.933  18.748  0.00  0.00    +0.000 C 
BRANCH  16  17
ATOM     17  C   UNL     1       1.938   7.965  19.359  0.00  0.00    +0.000 C 
BRANCH  17  18
ATOM     18  C   UNL     1       1.573   7.531  20.780  0.00  0.00    +0.000 C 
BRANCH  18  19
ATOM     19  C   UNL     1       0.424   8.346  21.363  0.00  0.00    +0.000 C 
ATOM     20  C   UNL     1       0.948   9.371  22.359  0.00  0.00    +0.000 C 
ENDBRANCH  18  19
ENDBRANCH  17  18
ENDBRANCH  16  17
ENDBRANCH  15  16
ENDBRANCH   7  15
TORSDOF 8
ENDMDL
MODEL 7
REMARK VINA RESULT:      -6.5      1.657      2.085
REMARK  Name = 
REMARK  9 active torsions:
REMARK  status: ('A' for Active; 'I' for Inactive)
REMARK    1  A    between atoms: C_2  and  C_3
REMARK    2  A    between atoms: C_3  and  N_4
REMARK    3  A    between atoms: C_5  and  C_7
REMARK    4  A    between atoms: C_13  and  C_14
REMARK    5  A    between atoms: C_14  and  C_15
REMARK    6  A    between atoms: C_15  and  C_16
REMARK    7  A    between atoms: C_16  and  C_17
REMARK    8  A    between atoms: C_17  and  C_18
REMARK    9  A    between atoms: C_18  and  C_19
REMARK                            x       y       z     vdW  Elec       q    Type
REMARK                         _______ _______ _______ _____ _____    ______ ____
ROOT
ATOM      1  C   UNL     1       4.970   4.959  17.286  0.00  0.00    +0.000 C 
ATOM      2  C   UNL     1       6.190   5.651  17.789  0.00  0.00    +0.000 C 
ATOM      3  C   UNL     1       6.960   5.383  18.854  0.00  0.00    +0.000 C 
ATOM      4  C   UNL     1       6.568   6.684  16.808  0.00  0.00    +0.000 C 
ATOM      5  O   UNL     1       7.310   7.626  17.003  0.00  0.00    +0.000 OA
ATOM      6  O   UNL     1       5.938   6.375  15.647  0.00  0.00    +0.000 OA
ATOM      7  C   UNL     1       5.216   5.130  15.781  0.00  0.00    +0.000 C 
ENDROOT
BRANCH   1   9
ATOM      8  N   UNL     1       2.449   4.757  17.651  0.00  0.00    +0.000 N 
ATOM      9  C   UNL     1       3.571   5.537  17.642  0.00  0.00    +0.000 C 
ATOM     10  O   UNL     1       3.406   6.750  17.803  0.00  0.00    +0.000 OA
ATOM     11  H   UNL     1       1.601   5.253  17.894  0.00  0.00    +0.000 HD
BRANCH   8  12
ATOM     12  C   UNL     1       2.406   3.337  17.508  0.00  0.00    +0.000 C 
BRANCH  12  14
ATOM     13  C   UNL     1       2.683   2.637  19.850  0.00  0.00    +0.000 C 
ATOM     14  C   UNL     1       1.948   2.631  18.732  0.00  0.00    +0.000 C 
ENDBRANCH  12  14
ENDBRANCH   8  12
ENDBRANCH   1   9
BRANCH   7  15
ATOM     15  C   UNL     1       6.049   4.013  15.123  0.00  0.00    +0.000 C 
BRANCH  15  16
ATOM     16  C   UNL     1       6.715   4.495  13.840  0.00  0.00    +0.000 C 
BRANCH  16  17
ATOM     17  C   UNL     1       6.350   3.643  12.627  0.00  0.00    +0.000 C 
BRANCH  17  18
ATOM     18  C   UNL     1       4.831   3.635  12.458  0.00  0.00    +0.000 C 
BRANCH  18  19
ATOM     19  C   UNL     1       4.387   2.892  11.203  0.00  0.00    +0.000 C 
ATOM     20  C   UNL     1       3.388   3.725  10.414  0.00  0.00    +0.000 C 
ENDBRANCH  18  19
ENDBRANCH  17  18
ENDBRANCH  16  17
ENDBRANCH  15  16
ENDBRANCH   7  15
TORSDOF 8
ENDMDL
MODEL 8
REMARK VINA RESULT:      -6.5      3.382      6.049
REMARK  Name = 
REMARK  9 active torsions:
REMARK  status: ('A' for Active; 'I' for Inactive)
REMARK    1  A    between atoms: C_2  and  C_3
REMARK    2  A    between atoms: C_3  and  N_4
REMARK    3  A    between atoms: C_5  and  C_7
REMARK    4  A    between atoms: C_13  and  C_14
REMARK    5  A    between atoms: C_14  and  C_15
REMARK    6  A    between atoms: C_15  and  C_16
REMARK    7  A    between atoms: C_16  and  C_17
REMARK    8  A    between atoms: C_17  and  C_18
REMARK    9  A    between atoms: C_18  and  C_19
REMARK                            x       y       z     vdW  Elec       q    Type
REMARK                         _______ _______ _______ _____ _____    ______ ____
ROOT
ATOM      1  C   UNL     1       3.036   4.030  19.345  0.00  0.00    +0.000 C 
ATOM      2  C   UNL     1       1.772   3.365  19.768  0.00  0.00    +0.000 C 
ATOM      3  C   UNL     1       1.180   3.317  20.971  0.00  0.00    +0.000 C 
ATOM      4  C   UNL     1       1.114   2.825  18.565  0.00  0.00    +0.000 C 
ATOM      5  O   UNL     1       0.240   1.982  18.539  0.00  0.00    +0.000 OA
ATOM      6  O   UNL     1       1.662   3.457  17.497  0.00  0.00    +0.000 OA
ATOM      7  C   UNL     1       2.606   4.461  17.937  0.00  0.00    +0.000 C 
ENDROOT
BRANCH   1   9
ATOM      8  N   UNL     1       5.570   3.770  19.137  0.00  0.00    +0.000 N 
ATOM      9  C   UNL     1       4.339   3.187  19.244  0.00  0.00    +0.000 C 
ATOM     10  O   UNL     1       4.294   1.958  19.125  0.00  0.00    +0.000 OA
ATOM     11  H   UNL     1       6.337   3.111  19.074  0.00  0.00    +0.000 HD
BRANCH   8  12
ATOM     12  C   UNL     1       5.858   5.163  19.263  0.00  0.00    +0.000 C 
BRANCH  12  14
ATOM     13  C   UNL     1       7.369   6.176  17.605  0.00  0.00    +0.000 C 
ATOM     14  C   UNL     1       6.126   5.831  17.963  0.00  0.00    +0.000 C 
ENDBRANCH  12  14
ENDBRANCH   8  12
ENDBRANCH   1   9
BRANCH   7  15
ATOM     15  C   UNL     1       1.922   5.839  17.854  0.00  0.00    +0.000 C 
BRANCH  15  16
ATOM     16  C   UNL     1       2.689   6.892  18.644  0.00  0.00    +0.000 C 
BRANCH  16  17
ATOM     17  C   UNL     1       3.021   8.130  17.816  0.00  0.00    +0.000 C 
BRANCH  17  18
ATOM     18  C   UNL     1       1.795   9.042  17.763  0.00  0.00    +0.000 C 
BRANCH  18  19
ATOM     19  C   UNL     1       1.215   9.323  19.144  0.00  0.00    +0.000 C 
ATOM     20  C   UNL     1       0.727  10.761  19.236  0.00  0.00    +0.000 C 
ENDBRANCH  18  19
ENDBRANCH  17  18
ENDBRANCH  16  17
ENDBRANCH  15  16
ENDBRANCH   7  15
TORSDOF 8
ENDMDL
MODEL 9
REMARK VINA RESULT:      -6.5      2.135      6.235
REMARK  Name = 
REMARK  9 active torsions:
REMARK  status: ('A' for Active; 'I' for Inactive)
REMARK    1  A    between atoms: C_2  and  C_3
REMARK    2  A    between atoms: C_3  and  N_4
REMARK    3  A    between atoms: C_5  and  C_7
REMARK    4  A    between atoms: C_13  and  C_14
REMARK    5  A    between atoms: C_14  and  C_15
REMARK    6  A    between atoms: C_15  and  C_16
REMARK    7  A    between atoms: C_16  and  C_17
REMARK    8  A    between atoms: C_17  and  C_18
REMARK    9  A    between atoms: C_18  and  C_19
REMARK                            x       y       z     vdW  Elec       q    Type
REMARK                         _______ _______ _______ _____ _____    ______ ____
ROOT
ATOM      1  C   UNL     1       4.982   5.002  16.277  0.00  0.00    +0.000 C 
ATOM      2  C   UNL     1       4.734   5.911  17.431  0.00  0.00    +0.000 C 
ATOM      3  C   UNL     1       4.240   7.158  17.460  0.00  0.00    +0.000 C 
ATOM      4  C   UNL     1       4.994   5.158  18.671  0.00  0.00    +0.000 C 
ATOM      5  O   UNL     1       5.185   5.631  19.774  0.00  0.00    +0.000 OA
ATOM      6  O   UNL     1       4.969   3.841  18.347  0.00  0.00    +0.000 OA
ATOM      7  C   UNL     1       4.621   3.673  16.954  0.00  0.00    +0.000 C 
ENDROOT
BRANCH   1   9
ATOM      8  N   UNL     1       6.659   4.324  14.472  0.00  0.00    +0.000 N 
ATOM      9  C   UNL     1       6.417   4.900  15.688  0.00  0.00    +0.000 C 
ATOM     10  O   UNL     1       7.404   5.221  16.357  0.00  0.00    +0.000 OA
ATOM     11  H   UNL     1       7.636   4.316  14.204  0.00  0.00    +0.000 HD
BRANCH   8  12
ATOM     12  C   UNL     1       5.676   3.899  13.529  0.00  0.00    +0.000 C 
BRANCH  12  14
ATOM     13  C   UNL     1       5.549   2.440  11.551  0.00  0.00    +0.000 C 
ATOM     14  C   UNL     1       6.255   3.294  12.302  0.00  0.00    +0.000 C 
ENDBRANCH  12  14
ENDBRANCH   8  12
ENDBRANCH   1   9
BRANCH   7  15
ATOM     15  C   UNL     1       3.134   3.278  16.870  0.00  0.00    +0.000 C 
BRANCH  15  16
ATOM     16  C   UNL     1       2.569   2.937  18.244  0.00  0.00    +0.000 C 
BRANCH  16  17
ATOM     17  C   UNL     1       1.339   3.767  18.601  0.00  0.00    +0.000 C 
BRANCH  17  18
ATOM     18  C   UNL     1       1.580   4.472  19.936  0.00  0.00    +0.000 C 
BRANCH  18  19
ATOM     19  C   UNL     1       2.393   3.624  20.907  0.00  0.00    +0.000 C 
ATOM     20  C   UNL     1       1.490   2.654  21.655  0.00  0.00    +0.000 C 
ENDBRANCH  18  19
ENDBRANCH  17  18
ENDBRANCH  16  17
ENDBRANCH  15  16
ENDBRANCH   7  15
TORSDOF 8
ENDMDL
