MODEL 1
REMARK VINA RESULT:      -6.8      0.000      0.000
REMARK  Name = 
REMARK  11 active torsions:
REMARK  status: ('A' for Active; 'I' for Inactive)
REMARK    1  A    between atoms: C_1  and  C_2
REMARK    2  A    between atoms: C_2  and  C_3
REMARK    3  A    between atoms: C_4  and  C_5
REMARK    4  A    between atoms: C_5  and  C_6
REMARK    5  A    between atoms: C_6  and  C_7
REMARK    6  A    between atoms: C_7  and  C_8
REMARK    7  A    between atoms: C_9  and  C_10
REMARK    8  A    between atoms: C_10  and  N_11
REMARK    9  A    between atoms: N_11  and  C_12
REMARK   10  A    between atoms: C_14  and  C_15
REMARK   11  A    between atoms: N_17  and  C_18
REMARK                            x       y       z     vdW  Elec       q    Type
REMARK                         _______ _______ _______ _____ _____    ______ ____
ROOT
ATOM      1  C   UNL     1       5.766   4.383  19.015  0.00  0.00    +0.000 C 
ENDROOT
BRANCH   1   4
ATOM      2  C   UNL     1       3.494   4.492  17.888  0.00  0.00    +0.000 C 
ATOM      3  C   UNL     1       3.553   5.998  17.817  0.00  0.00    +0.000 C 
ATOM      4  C   UNL     1       4.497   3.798  18.474  0.00  0.00    +0.000 C 
BRANCH   2   5
ATOM      5  C   UNL     1       2.319   3.731  17.292  0.00  0.00    +0.000 C 
BRANCH   5   6
ATOM      6  C   UNL     1       1.004   3.796  18.076  0.00  0.00    +0.000 C 
BRANCH   6  10
ATOM      7  C   UNL     1       1.377   2.596  21.765  0.00  0.00    +0.000 C 
ATOM      8  C   UNL     1       1.273   3.512  20.578  0.00  0.00    +0.000 C 
ATOM      9  C   UNL     1       1.456   4.984  20.826  0.00  0.00    +0.000 C 
ATOM     10  C   UNL     1       1.025   3.006  19.354  0.00  0.00    +0.000 C 
ENDBRANCH   6  10
ENDBRANCH   5   6
ENDBRANCH   2   5
ENDBRANCH   1   4
BRANCH   1  11
ATOM     11  N   UNL     1       6.847   4.083  18.098  0.00  0.00    +0.000 N 
ATOM     12  H   UNL     1       7.721   3.785  18.523  0.00  0.00    +0.000 HD
BRANCH  11  13
ATOM     13  C   UNL     1       6.723   4.362  16.775  0.00  0.00    +0.000 A 
ATOM     14  C   UNL     1       6.406   3.553  15.707  0.00  0.00    +0.000 A 
ATOM     15  C   UNL     1       6.452   4.387  14.571  0.00  0.00    +0.000 A 
ATOM     16  C   UNL     1       6.215   4.002  13.161  0.00  0.00    +0.000 C 
ATOM     17  N   UNL     1       6.763   5.648  14.894  0.00  0.00    +0.000 NA
ATOM     18  N   UNL     1       6.921   5.610  16.235  0.00  0.00    +0.000 N 
ATOM     19  C   UNL     1       7.289   6.817  16.934  0.00  0.00    +0.000 C 
ENDBRANCH  11  13
ENDBRANCH   1  11
TORSDOF 6
ENDMDL
MODEL 2
REMARK VINA RESULT:      -6.6      1.371      2.957
REMARK  Name = 
REMARK  11 active torsions:
REMARK  status: ('A' for Active; 'I' for Inactive)
REMARK    1  A    between atoms: C_1  and  C_2
REMARK    2  A    between atoms: C_2  and  C_3
REMARK    3  A    between atoms: C_4  and  C_5
REMARK    4  A    between atoms: C_5  and  C_6
REMARK    5  A    between atoms: C_6  and  C_7
REMARK    6  A    between atoms: C_7  and  C_8
REMARK    7  A    between atoms: C_9  and  C_10
REMARK    8  A    between atoms: C_10  and  N_11
REMARK    9  A    between atoms: N_11  and  C_12
REMARK   10  A    between atoms: C_14  and  C_15
REMARK   11  A    between atoms: N_17  and  C_18
REMARK                            x       y       z     vdW  Elec       q    Type
REMARK                         _______ _______ _______ _____ _____    ______ ____
ROOT
ATOM      1  C   UNL     1       5.488   3.815  18.548  0.00  0.00    +0.000 C 
ENDROOT
BRANCH   1   4
ATOM      2  C   UNL     1       3.696   5.569  18.948  0.00  0.00    +0.000 C 
ATOM      3  C   UNL     1       3.361   5.626  17.479  0.00  0.00    +0.000 C 
ATOM      4  C   UNL     1       4.692   4.766  19.389  0.00  0.00    +0.000 C 
BRANCH   2   5
ATOM      5  C   UNL     1       2.914   6.397  19.957  0.00  0.00    +0.000 C 
BRANCH   5   6
ATOM      6  C   UNL     1       1.834   5.652  20.749  0.00  0.00    +0.000 C 
BRANCH   6  10
ATOM      7  C   UNL     1       0.647   2.273  19.212  0.00  0.00    +0.000 C 
ATOM      8  C   UNL     1       1.310   3.250  20.143  0.00  0.00    +0.000 C 
ATOM      9  C   UNL     1       2.144   2.682  21.258  0.00  0.00    +0.000 C 
ATOM     10  C   UNL     1       1.144   4.575  19.961  0.00  0.00    +0.000 C 
ENDBRANCH   6  10
ENDBRANCH   5   6
ENDBRANCH   2   5
ENDBRANCH   1   4
BRANCH   1  11
ATOM     11  N   UNL     1       6.874   4.237  18.551  0.00  0.00    +0.000 N 
ATOM     12  H   UNL     1       7.528   3.613  19.014  0.00  0.00    +0.000 HD
BRANCH  11  13
ATOM     13  C   UNL     1       7.217   5.475  18.110  0.00  0.00    +0.000 A 
ATOM     14  C   UNL     1       7.632   6.595  18.794  0.00  0.00    +0.000 A 
ATOM     15  C   UNL     1       7.820   7.592  17.814  0.00  0.00    +0.000 A 
ATOM     16  C   UNL     1       8.239   8.996  18.027  0.00  0.00    +0.000 C 
ATOM     17  N   UNL     1       7.559   7.133  16.585  0.00  0.00    +0.000 NA
ATOM     18  N   UNL     1       7.197   5.848  16.787  0.00  0.00    +0.000 N 
ATOM     19  C   UNL     1       6.818   5.037  15.656  0.00  0.00    +0.000 C 
ENDBRANCH  11  13
ENDBRANCH   1  11
TORSDOF 6
ENDMDL
MODEL 3
REMARK VINA RESULT:      -6.5      2.492      6.968
REMARK  Name = 
REMARK  11 active torsions:
REMARK  status: ('A' for Active; 'I' for Inactive)
REMARK    1  A    between atoms: C_1  and  C_2
REMARK    2  A    between atoms: C_2  and  C_3
REMARK    3  A    between atoms: C_4  and  C_5
REMARK    4  A    between atoms: C_5  and  C_6
REMARK    5  A    between atoms: C_6  and  C_7
REMARK    6  A    between atoms: C_7  and  C_8
REMARK    7  A    between atoms: C_9  and  C_10
REMARK    8  A    between atoms: C_10  and  N_11
REMARK    9  A    between atoms: N_11  and  C_12
REMARK   10  A    between atoms: C_14  and  C_15
REMARK   11  A    between atoms: N_17  and  C_18
REMARK                            x       y       z     vdW  Elec       q    Type
REMARK                         _______ _______ _______ _____ _____    ______ ____
ROOT
ATOM      1  C   UNL     1       4.435   3.556  17.223  0.00  0.00    +0.000 C 
ENDROOT
BRANCH   1   4
ATOM      2  C   UNL     1       6.269   4.515  15.752  0.00  0.00    +0.000 C 
ATOM      3  C   UNL     1       7.233   4.565  16.911  0.00  0.00    +0.000 C 
ATOM      4  C   UNL     1       4.999   4.089  15.941  0.00  0.00    +0.000 C 
BRANCH   2   5
ATOM      5  C   UNL     1       6.710   4.924  14.355  0.00  0.00    +0.000 C 
BRANCH   5   6
ATOM      6  C   UNL     1       6.607   3.845  13.271  0.00  0.00    +0.000 C 
BRANCH   6  10
ATOM      7  C   UNL     1       3.643   3.161  10.835  0.00  0.00    +0.000 C 
ATOM      8  C   UNL     1       4.915   2.957  11.611  0.00  0.00    +0.000 C 
ATOM      9  C   UNL     1       5.697   1.703  11.333  0.00  0.00    +0.000 C 
ATOM     10  C   UNL     1       5.311   3.876  12.513  0.00  0.00    +0.000 C 
ENDBRANCH   6  10
ENDBRANCH   5   6
ENDBRANCH   2   5
ENDBRANCH   1   4
BRANCH   1  11
ATOM     11  N   UNL     1       3.478   4.510  17.744  0.00  0.00    +0.000 N 
ATOM     12  H   UNL     1       3.399   5.385  17.234  0.00  0.00    +0.000 HD
BRANCH  11  13
ATOM     13  C   UNL     1       2.869   4.291  18.939  0.00  0.00    +0.000 A 
ATOM     14  C   UNL     1       2.549   3.122  19.589  0.00  0.00    +0.000 A 
ATOM     15  C   UNL     1       1.906   3.512  20.782  0.00  0.00    +0.000 A 
ATOM     16  C   UNL     1       1.338   2.633  21.829  0.00  0.00    +0.000 C 
ATOM     17  N   UNL     1       1.835   4.844  20.892  0.00  0.00    +0.000 NA
ATOM     18  N   UNL     1       2.426   5.296  19.766  0.00  0.00    +0.000 N 
ATOM     19  C   UNL     1       2.509   6.718  19.537  0.00  0.00    +0.000 C 
ENDBRANCH  11  13
ENDBRANCH   1  11
TORSDOF 6
ENDMDL
MODEL 4
REMARK VINA RESULT:      -6.5      1.963      3.772
REMARK  Name = 
REMARK  11 active torsions:
REMARK  status: ('A' for Active; 'I' for Inactive)
REMARK    1  A    between atoms: C_1  and  C_2
REMARK    2  A    between atoms: C_2  and  C_3
REMARK    3  A    between atoms: C_4  and  C_5
REMARK    4  A    between atoms: C_5  and  C_6
REMARK    5  A    between atoms: C_6  and  C_7
REMARK    6  A    between atoms: C_7  and  C_8
REMARK    7  A    between atoms: C_9  and  C_10
REMARK    8  A    between atoms: C_10  and  N_11
REMARK    9  A    between atoms: N_11  and  C_12
REMARK   10  A    between atoms: C_14  and  C_15
REMARK   11  A    between atoms: N_17  and  C_18
REMARK                            x       y       z     vdW  Elec       q    Type
REMARK                         _______ _______ _______ _____ _____    ______ ____
ROOT
ATOM      1  C   UNL     1       4.519   3.538  18.133  0.00  0.00    +0.000 C 
ENDROOT
BRANCH   1   4
ATOM      2  C   UNL     1       2.410   4.497  19.172  0.00  0.00    +0.000 C 
ATOM      3  C   UNL     1       1.654   4.354  17.875  0.00  0.00    +0.000 C 
ATOM      4  C   UNL     1       3.717   4.154  19.240  0.00  0.00    +0.000 C 
BRANCH   2   5
ATOM      5  C   UNL     1       1.717   5.013  20.424  0.00  0.00    +0.000 C 
BRANCH   5   6
ATOM      6  C   UNL     1       1.799   6.524  20.668  0.00  0.00    +0.000 C 
BRANCH   6  10
ATOM      7  C   UNL     1       2.118   9.179  17.834  0.00  0.00    +0.000 C 
ATOM      8  C   UNL     1       1.739   8.543  19.143  0.00  0.00    +0.000 C 
ATOM      9  C   UNL     1       0.858   9.339  20.066  0.00  0.00    +0.000 C 
ATOM     10  C   UNL     1       2.188   7.310  19.450  0.00  0.00    +0.000 C 
ENDBRANCH   6  10
ENDBRANCH   5   6
ENDBRANCH   2   5
ENDBRANCH   1   4
BRANCH   1  11
ATOM     11  N   UNL     1       5.925   3.779  18.385  0.00  0.00    +0.000 N 
ATOM     12  H   UNL     1       6.381   3.128  19.019  0.00  0.00    +0.000 HD
BRANCH  11  13
ATOM     13  C   UNL     1       6.522   4.911  17.929  0.00  0.00    +0.000 A 
ATOM     14  C   UNL     1       6.935   6.044  18.592  0.00  0.00    +0.000 A 
ATOM     15  C   UNL     1       7.462   6.896  17.599  0.00  0.00    +0.000 A 
ATOM     16  C   UNL     1       8.017   8.255  17.780  0.00  0.00    +0.000 C 
ATOM     17  N   UNL     1       7.401   6.336  16.385  0.00  0.00    +0.000 NA
ATOM     18  N   UNL     1       6.831   5.133  16.609  0.00  0.00    +0.000 N 
ATOM     19  C   UNL     1       6.587   4.251  15.494  0.00  0.00    +0.000 C 
ENDBRANCH  11  13
ENDBRANCH   1  11
TORSDOF 6
ENDMDL
MODEL 5
REMARK VINA RESULT:      -6.5      2.162      6.558
REMARK  Name = 
REMARK  11 active torsions:
REMARK  status: ('A' for Active; 'I' for Inactive)
REMARK    1  A    between atoms: C_1  and  C_2
REMARK    2  A    between atoms: C_2  and  C_3
REMARK    3  A    between atoms: C_4  and  C_5
REMARK    4  A    between atoms: C_5  and  C_6
REMARK    5  A    between atoms: C_6  and  C_7
REMARK    6  A    between atoms: C_7  and  C_8
REMARK    7  A    between atoms: C_9  and  C_10
REMARK    8  A    between atoms: C_10  and  N_11
REMARK    9  A    between atoms: N_11  and  C_12
REMARK   10  A    between atoms: C_14  and  C_15
REMARK   11  A    between atoms: N_17  and  C_18
REMARK                            x       y       z     vdW  Elec       q    Type
REMARK                         _______ _______ _______ _____ _____    ______ ____
ROOT
ATOM      1  C   UNL     1       6.136   4.743  18.693  0.00  0.00    +0.000 C 
ENDROOT
BRANCH   1   4
ATOM      2  C   UNL     1       6.059   5.562  16.291  0.00  0.00    +0.000 C 
ATOM      3  C   UNL     1       5.390   6.848  16.705  0.00  0.00    +0.000 C 
ATOM      4  C   UNL     1       6.346   4.615  17.215  0.00  0.00    +0.000 C 
BRANCH   2   5
ATOM      5  C   UNL     1       6.436   5.313  14.838  0.00  0.00    +0.000 C 
BRANCH   5   6
ATOM      6  C   UNL     1       6.269   3.875  14.334  0.00  0.00    +0.000 C 
BRANCH   6  10
ATOM      7  C   UNL     1       4.147   3.240  11.127  0.00  0.00    +0.000 C 
ATOM      8  C   UNL     1       5.315   3.246  12.075  0.00  0.00    +0.000 C 
ATOM      9  C   UNL     1       6.622   2.711  11.560  0.00  0.00    +0.000 C 
ATOM     10  C   UNL     1       5.164   3.715  13.329  0.00  0.00    +0.000 C 
ENDBRANCH   6  10
ENDBRANCH   5   6
ENDBRANCH   2   5
ENDBRANCH   1   4
BRANCH   1  11
ATOM     11  N   UNL     1       5.543   3.517  19.189  0.00  0.00    +0.000 N 
ATOM     12  H   UNL     1       6.164   2.715  19.247  0.00  0.00    +0.000 HD
BRANCH  11  13
ATOM     13  C   UNL     1       4.202   3.432  19.387  0.00  0.00    +0.000 A 
ATOM     14  C   UNL     1       3.317   4.314  19.963  0.00  0.00    +0.000 A 
ATOM     15  C   UNL     1       2.059   3.677  19.913  0.00  0.00    +0.000 A 
ATOM     16  C   UNL     1       0.769   4.190  20.428  0.00  0.00    +0.000 C 
ATOM     17  N   UNL     1       2.135   2.476  19.330  0.00  0.00    +0.000 NA
ATOM     18  N   UNL     1       3.442   2.348  19.016  0.00  0.00    +0.000 N 
ATOM     19  C   UNL     1       3.899   1.137  18.379  0.00  0.00    +0.000 C 
ENDBRANCH  11  13
ENDBRANCH   1  11
TORSDOF 6
ENDMDL
MODEL 6
REMARK VINA RESULT:      -6.4      1.225      1.948
REMARK  Name = 
REMARK  11 active torsions:
REMARK  status: ('A' for Active; 'I' for Inactive)
REMARK    1  A    between atoms: C_1  and  C_2
REMARK    2  A    between atoms: C_2  and  C_3
REMARK    3  A    between atoms: C_4  and  C_5
REMARK    4  A    between atoms: C_5  and  C_6
REMARK    5  A    between atoms: C_6  and  C_7
REMARK    6  A    between atoms: C_7  and  C_8
REMARK    7  A    between atoms: C_9  and  C_10
REMARK    8  A    between atoms: C_10  and  N_11
REMARK    9  A    between atoms: N_11  and  C_12
REMARK   10  A    between atoms: C_14  and  C_15
REMARK   11  A    between atoms: N_17  and  C_18
REMARK                            x       y       z     vdW  Elec       q    Type
REMARK                         _______ _______ _______ _____ _____    ______ ____
ROOT
ATOM      1  C   UNL     1       4.068   3.563  16.859  0.00  0.00    +0.000 C 
ENDROOT
BRANCH   1   4
ATOM      2  C   UNL     1       2.575   5.252  18.029  0.00  0.00    +0.000 C 
ATOM      3  C   UNL     1       1.336   4.639  17.428  0.00  0.00    +0.000 C 
ATOM      4  C   UNL     1       3.798   4.763  17.717  0.00  0.00    +0.000 C 
BRANCH   2   5
ATOM      5  C   UNL     1       2.474   6.415  19.004  0.00  0.00    +0.000 C 
BRANCH   5   6
ATOM      6  C   UNL     1       1.918   6.085  20.394  0.00  0.00    +0.000 C 
BRANCH   6  10
ATOM      7  C   UNL     1       2.508   2.473  21.731  0.00  0.00    +0.000 C 
ATOM      8  C   UNL     1       1.878   3.629  21.004  0.00  0.00    +0.000 C 
ATOM      9  C   UNL     1       0.567   3.376  20.313  0.00  0.00    +0.000 C 
ATOM     10  C   UNL     1       2.489   4.830  20.988  0.00  0.00    +0.000 C 
ENDBRANCH   6  10
ENDBRANCH   5   6
ENDBRANCH   2   5
ENDBRANCH   1   4
BRANCH   1  11
ATOM     11  N   UNL     1       5.501   3.384  16.745  0.00  0.00    +0.000 N 
ATOM     12  H   UNL     1       5.941   2.837  17.479  0.00  0.00    +0.000 HD
BRANCH  11  13
ATOM     13  C   UNL     1       6.206   4.063  15.803  0.00  0.00    +0.000 A 
ATOM     14  C   UNL     1       6.280   3.901  14.439  0.00  0.00    +0.000 A 
ATOM     15  C   UNL     1       7.192   4.878  13.987  0.00  0.00    +0.000 A 
ATOM     16  C   UNL     1       7.646   5.113  12.598  0.00  0.00    +0.000 C 
ATOM     17  N   UNL     1       7.657   5.624  14.996  0.00  0.00    +0.000 NA
ATOM     18  N   UNL     1       7.045   5.114  16.087  0.00  0.00    +0.000 N 
ATOM     19  C   UNL     1       7.335   5.675  17.383  0.00  0.00    +0.000 C 
ENDBRANCH  11  13
ENDBRANCH   1  11
TORSDOF 6
ENDMDL
MODEL 7
REMARK VINA RESULT:      -6.4      1.188      1.897
REMARK  Name = 
REMARK  11 active torsions:
REMARK  status: ('A' for Active; 'I' for Inactive)
REMARK    1  A    between atoms: C_1  and  C_2
REMARK    2  A    between atoms: C_2  and  C_3
REMARK    3  A    between atoms: C_4  and  C_5
REMARK    4  A    between atoms: C_5  and  C_6
REMARK    5  A    between atoms: C_6  and  C_7
REMARK    6  A    between atoms: C_7  and  C_8
REMARK    7  A    between atoms: C_9  and  C_10
REMARK    8  A    between atoms: C_10  and  N_11
REMARK    9  A    between atoms: N_11  and  C_12
REMARK   10  A    between atoms: C_14  and  C_15
REMARK   11  A    between atoms: N_17  and  C_18
REMARK                            x       y       z     vdW  Elec       q    Type
REMARK                         _______ _______ _______ _____ _____    ______ ____
ROOT
ATOM      1  C   UNL     1       4.030   3.673  16.815  0.00  0.00    +0.000 C 
ENDROOT
BRANCH   1   4
ATOM      2  C   UNL     1       3.634   5.439  18.595  0.00  0.00    +0.000 C 
ATOM      3  C   UNL     1       3.689   6.546  17.572  0.00  0.00    +0.000 C 
ATOM      4  C   UNL     1       3.832   4.154  18.220  0.00  0.00    +0.000 C 
BRANCH   2   5
ATOM      5  C   UNL     1       3.340   5.745  20.056  0.00  0.00    +0.000 C 
BRANCH   5   6
ATOM      6  C   UNL     1       1.888   5.554  20.507  0.00  0.00    +0.000 C 
BRANCH   6  10
ATOM      7  C   UNL     1       0.499   2.109  19.330  0.00  0.00    +0.000 C 
ATOM      8  C   UNL     1       1.153   3.152  20.193  0.00  0.00    +0.000 C 
ATOM      9  C   UNL     1       1.758   2.692  21.490  0.00  0.00    +0.000 C 
ATOM     10  C   UNL     1       1.177   4.439  19.795  0.00  0.00    +0.000 C 
ENDBRANCH   6  10
ENDBRANCH   5   6
ENDBRANCH   2   5
ENDBRANCH   1   4
BRANCH   1  11
ATOM     11  N   UNL     1       5.431   3.360  16.621  0.00  0.00    +0.000 N 
ATOM     12  H   UNL     1       5.836   2.704  17.283  0.00  0.00    +0.000 HD
BRANCH  11  13
ATOM     13  C   UNL     1       6.171   4.049  15.714  0.00  0.00    +0.000 A 
ATOM     14  C   UNL     1       6.275   3.921  14.348  0.00  0.00    +0.000 A 
ATOM     15  C   UNL     1       7.214   4.892  13.944  0.00  0.00    +0.000 A 
ATOM     16  C   UNL     1       7.706   5.154  12.573  0.00  0.00    +0.000 C 
ATOM     17  N   UNL     1       7.668   5.603  14.983  0.00  0.00    +0.000 NA
ATOM     18  N   UNL     1       7.021   5.077  16.045  0.00  0.00    +0.000 N 
ATOM     19  C   UNL     1       7.290   5.600  17.362  0.00  0.00    +0.000 C 
ENDBRANCH  11  13
ENDBRANCH   1  11
TORSDOF 6
ENDMDL
MODEL 8
REMARK VINA RESULT:      -6.4      1.588      2.405
REMARK  Name = 
REMARK  11 active torsions:
REMARK  status: ('A' for Active; 'I' for Inactive)
REMARK    1  A    between atoms: C_1  and  C_2
REMARK    2  A    between atoms: C_2  and  C_3
REMARK    3  A    between atoms: C_4  and  C_5
REMARK    4  A    between atoms: C_5  and  C_6
REMARK    5  A    between atoms: C_6  and  C_7
REMARK    6  A    between atoms: C_7  and  C_8
REMARK    7  A    between atoms: C_9  and  C_10
REMARK    8  A    between atoms: C_10  and  N_11
REMARK    9  A    between atoms: N_11  and  C_12
REMARK   10  A    between atoms: C_14  and  C_15
REMARK   11  A    between atoms: N_17  and  C_18
REMARK                            x       y       z     vdW  Elec       q    Type
REMARK                         _______ _______ _______ _____ _____    ______ ____
ROOT
ATOM      1  C   UNL     1       3.808   6.443  18.406  0.00  0.00    +0.000 C 
ENDROOT
BRANCH   1   4
ATOM      2  C   UNL     1       1.846   4.976  19.076  0.00  0.00    +0.000 C 
ATOM      3  C   UNL     1       1.628   4.541  17.649  0.00  0.00    +0.000 C 
ATOM      4  C   UNL     1       2.818   5.870  19.375  0.00  0.00    +0.000 C 
BRANCH   2   5
ATOM      5  C   UNL     1       0.994   4.411  20.201  0.00  0.00    +0.000 C 
BRANCH   5   6
ATOM      6  C   UNL     1       1.285   2.961  20.606  0.00  0.00    +0.000 C 
BRANCH   6  10
ATOM      7  C   UNL     1       5.003   1.794  20.589  0.00  0.00    +0.000 C 
ATOM      8  C   UNL     1       3.610   2.093  20.108  0.00  0.00    +0.000 C 
ATOM      9  C   UNL     1       3.264   1.686  18.702  0.00  0.00    +0.000 C 
ATOM     10  C   UNL     1       2.730   2.704  20.925  0.00  0.00    +0.000 C 
ENDBRANCH   6  10
ENDBRANCH   5   6
ENDBRANCH   2   5
ENDBRANCH   1   4
BRANCH   1  11
ATOM     11  N   UNL     1       4.936   5.540  18.301  0.00  0.00    +0.000 N 
ATOM     12  H   UNL     1       5.315   5.197  19.179  0.00  0.00    +0.000 HD
BRANCH  11  13
ATOM     13  C   UNL     1       5.534   5.324  17.101  0.00  0.00    +0.000 A 
ATOM     14  C   UNL     1       5.204   4.482  16.064  0.00  0.00    +0.000 A 
ATOM     15  C   UNL     1       6.204   4.667  15.088  0.00  0.00    +0.000 A 
ATOM     16  C   UNL     1       6.331   3.976  13.785  0.00  0.00    +0.000 C 
ATOM     17  N   UNL     1       7.105   5.580  15.470  0.00  0.00    +0.000 NA
ATOM     18  N   UNL     1       6.679   5.967  16.691  0.00  0.00    +0.000 N 
ATOM     19  C   UNL     1       7.441   6.948  17.425  0.00  0.00    +0.000 C 
ENDBRANCH  11  13
ENDBRANCH   1  11
TORSDOF 6
ENDMDL
MODEL 9
REMARK VINA RESULT:      -6.4      2.383      6.912
REMARK  Name = 
REMARK  11 active torsions:
REMARK  status: ('A' for Active; 'I' for Inactive)
REMARK    1  A    between atoms: C_1  and  C_2
REMARK    2  A    between atoms: C_2  and  C_3
REMARK    3  A    between atoms: C_4  and  C_5
REMARK    4  A    between atoms: C_5  and  C_6
REMARK    5  A    between atoms: C_6  and  C_7
REMARK    6  A    between atoms: C_7  and  C_8
REMARK    7  A    between atoms: C_9  and  C_10
REMARK    8  A    between atoms: C_10  and  N_11
REMARK    9  A    between atoms: N_11  and  C_12
REMARK   10  A    between atoms: C_14  and  C_15
REMARK   11  A    between atoms: N_17  and  C_18
REMARK                            x       y       z     vdW  Elec       q    Type
REMARK                         _______ _______ _______ _____ _____    ______ ____
ROOT
ATOM      1  C   UNL     1       3.418   6.277  18.121  0.00  0.00    +0.000 C 
ENDROOT
BRANCH   1   4
ATOM      2  C   UNL     1       5.397   5.301  16.865  0.00  0.00    +0.000 C 
ATOM      3  C   UNL     1       5.819   4.496  18.069  0.00  0.00    +0.000 C 
ATOM      4  C   UNL     1       4.327   6.127  16.939  0.00  0.00    +0.000 C 
BRANCH   2   5
ATOM      5  C   UNL     1       6.152   5.188  15.550  0.00  0.00    +0.000 C 
BRANCH   5   6
ATOM      6  C   UNL     1       5.414   4.486  14.405  0.00  0.00    +0.000 C 
BRANCH   6  10
ATOM      7  C   UNL     1       6.941   2.494  11.424  0.00  0.00    +0.000 C 
ATOM      8  C   UNL     1       5.949   3.259  12.256  0.00  0.00    +0.000 C 
ATOM      9  C   UNL     1       4.553   3.391  11.715  0.00  0.00    +0.000 C 
ATOM     10  C   UNL     1       6.327   3.795  13.433  0.00  0.00    +0.000 C 
ENDBRANCH   6  10
ENDBRANCH   5   6
ENDBRANCH   2   5
ENDBRANCH   1   4
BRANCH   1  11
ATOM     11  N   UNL     1       2.318   5.343  17.986  0.00  0.00    +0.000 N 
ATOM     12  H   UNL     1       1.653   5.544  17.245  0.00  0.00    +0.000 HD
BRANCH  11  13
ATOM     13  C   UNL     1       2.122   4.373  18.916  0.00  0.00    +0.000 A 
ATOM     14  C   UNL     1       1.720   4.449  20.230  0.00  0.00    +0.000 A 
ATOM     15  C   UNL     1       1.719   3.121  20.706  0.00  0.00    +0.000 A 
ATOM     16  C   UNL     1       1.387   2.654  22.070  0.00  0.00    +0.000 C 
ATOM     17  N   UNL     1       2.081   2.254  19.753  0.00  0.00    +0.000 NA
ATOM     18  N   UNL     1       2.319   3.034  18.677  0.00  0.00    +0.000 N 
ATOM     19  C   UNL     1       2.761   2.421  17.448  0.00  0.00    +0.000 C 
ENDBRANCH  11  13
ENDBRANCH   1  11
TORSDOF 6
ENDMDL
