MODEL 1
REMARK VINA RESULT:      -5.8      0.000      0.000
REMARK  Name = 
REMARK  12 active torsions:
REMARK  status: ('A' for Active; 'I' for Inactive)
REMARK    1  A    between atoms: C_1  and  C_2
REMARK    2  A    between atoms: C_2  and  C_3
REMARK    3  A    between atoms: C_3  and  C_4
REMARK    4  A    between atoms: C_4  and  C_5
REMARK    5  A    between atoms: C_5  and  O_7
REMARK    6  A    between atoms: O_7  and  C_8
REMARK    7  A    between atoms: C_8  and  C_9
REMARK    8  A    between atoms: C_9  and  C_11
REMARK    9  A    between atoms: C_11  and  O_12
REMARK   10  A    between atoms: C_25  and  C_26
REMARK   11  A    between atoms: C_28  and  O_29
REMARK   12  A    between atoms: C_31  and  C_32
REMARK                            x       y       z     vdW  Elec       q    Type
REMARK                         _______ _______ _______ _____ _____    ______ ____
ROOT
ATOM      1  C   UNL     1       1.320   8.232  19.975  0.00  0.00    +0.000 C 
ATOM      2  C   UNL     1       2.673   8.536  19.344  0.00  0.00    +0.000 C 
ATOM      3  C   UNL     1       2.179   8.158  17.975  0.00  0.00    +0.000 C 
ATOM      4  C   UNL     1       2.159   6.694  18.132  0.00  0.00    +0.000 C 
ATOM      5  C   UNL     1       3.565   6.259  17.752  0.00  0.00    +0.000 C 
ATOM      6  C   UNL     1       4.011   6.822  16.376  0.00  0.00    +0.000 C 
ATOM      7  C   UNL     1       5.456   7.171  16.550  0.00  0.00    +0.000 C 
ATOM      8  C   UNL     1       6.202   5.897  16.820  0.00  0.00    +0.000 C 
ATOM      9  C   UNL     1       7.337   5.760  16.092  0.00  0.00    +0.000 C 
ATOM     10  C   UNL     1       6.977   5.017  14.846  0.00  0.00    +0.000 C 
ATOM     11  O   UNL     1       7.323   5.384  13.736  0.00  0.00    +0.000 OA
ATOM     12  C   UNL     1       6.233   3.728  15.102  0.00  0.00    +0.000 C 
ATOM     13  C   UNL     1       5.606   3.537  16.264  0.00  0.00    +0.000 C 
ATOM     14  C   UNL     1       5.436   4.601  17.368  0.00  0.00    +0.000 C 
ATOM     15  C   UNL     1       6.227   4.207  18.626  0.00  0.00    +0.000 C 
ATOM     16  C   UNL     1       3.810   4.779  17.667  0.00  0.00    +0.000 C 
ATOM     17  C   UNL     1       3.000   4.157  18.846  0.00  0.00    +0.000 C 
ATOM     18  C   UNL     1       1.518   4.866  19.141  0.00  0.00    +0.000 C 
ATOM     19  C   UNL     1       1.460   6.444  19.690  0.00  0.00    +0.000 C 
ATOM     20  C   UNL     1       2.071   6.076  21.096  0.00  0.00    +0.000 C 
ENDROOT
BRANCH   1  21
ATOM     21  C   UNL     1       0.833   9.764  19.523  0.00  0.00    +0.000 C 
ATOM     22  O   UNL     1       1.594  10.733  19.775  0.00  0.00    +0.000 OA
BRANCH  21  23
ATOM     23  C   UNL     1      -0.343  10.171  18.671  0.00  0.00    +0.000 C 
BRANCH  23  24
ATOM     24  O   UNL     1      -0.010  11.482  18.183  0.00  0.00    +0.000 OA
ATOM     25  H   UNL     1       0.283  11.386  17.247  0.00  0.00    +0.000 HD
ENDBRANCH  23  24
ENDBRANCH  21  23
ENDBRANCH   1  21
BRANCH  17  26
ATOM     26  O   UNL     1       3.774   4.082  20.036  0.00  0.00    +0.000 OA
ATOM     27  H   UNL     1       3.361   4.639  20.717  0.00  0.00    +0.000 HD
ENDBRANCH  17  26
BRANCH   1  28
ATOM     28  O   UNL     1       1.302   8.553  21.431  0.00  0.00    +0.000 OA
BRANCH  28  29
ATOM     29  C   UNL     1       0.032   8.630  21.946  0.00  0.00    +0.000 C 
ATOM     30  O   UNL     1      -0.922   8.026  21.452  0.00  0.00    +0.000 OA
BRANCH  29  31
ATOM     31  C   UNL     1      -0.148   9.524  23.153  0.00  0.00    +0.000 C 
BRANCH  31  32
ATOM     32  C   UNL     1      -1.101  10.706  23.081  0.00  0.00    +0.000 C 
BRANCH  32  34
ATOM     33  C   UNL     1      -1.871  12.344  21.225  0.00  0.00    +0.000 C 
ATOM     34  C   UNL     1      -0.742  11.848  22.128  0.00  0.00    +0.000 C 
ENDBRANCH  32  34
ENDBRANCH  31  32
ENDBRANCH  29  31
ENDBRANCH  28  29
ENDBRANCH   1  28
TORSDOF 9
ENDMDL
MODEL 2
REMARK VINA RESULT:      -5.5      3.953     11.159
REMARK  Name = 
REMARK  12 active torsions:
REMARK  status: ('A' for Active; 'I' for Inactive)
REMARK    1  A    between atoms: C_1  and  C_2
REMARK    2  A    between atoms: C_2  and  C_3
REMARK    3  A    between atoms: C_3  and  C_4
REMARK    4  A    between atoms: C_4  and  C_5
REMARK    5  A    between atoms: C_5  and  O_7
REMARK    6  A    between atoms: O_7  and  C_8
REMARK    7  A    between atoms: C_8  and  C_9
REMARK    8  A    between atoms: C_9  and  C_11
REMARK    9  A    between atoms: C_11  and  O_12
REMARK   10  A    between atoms: C_25  and  C_26
REMARK   11  A    between atoms: C_28  and  O_29
REMARK   12  A    between atoms: C_31  and  C_32
REMARK                            x       y       z     vdW  Elec       q    Type
REMARK                         _______ _______ _______ _____ _____    ______ ____
ROOT
ATOM      1  C   UNL     1      -0.688  11.217  20.825  0.00  0.00    +0.000 C 
ATOM      2  C   UNL     1      -2.042  11.434  20.160  0.00  0.00    +0.000 C 
ATOM      3  C   UNL     1      -1.820  12.918  20.070  0.00  0.00    +0.000 C 
ATOM      4  C   UNL     1      -2.035  13.271  21.482  0.00  0.00    +0.000 C 
ATOM      5  C   UNL     1      -3.535  13.495  21.586  0.00  0.00    +0.000 C 
ATOM      6  C   UNL     1      -4.064  14.486  20.515  0.00  0.00    +0.000 C 
ATOM      7  C   UNL     1      -5.387  13.928  20.091  0.00  0.00    +0.000 C 
ATOM      8  C   UNL     1      -6.300  13.964  21.281  0.00  0.00    +0.000 C 
ATOM      9  C   UNL     1      -7.532  14.462  21.013  0.00  0.00    +0.000 C 
ATOM     10  C   UNL     1      -7.487  15.930  21.290  0.00  0.00    +0.000 C 
ATOM     11  O   UNL     1      -7.916  16.762  20.508  0.00  0.00    +0.000 OA
ATOM     12  C   UNL     1      -6.953  16.273  22.661  0.00  0.00    +0.000 C 
ATOM     13  C   UNL     1      -6.212  15.388  23.330  0.00  0.00    +0.000 C 
ATOM     14  C   UNL     1      -5.704  14.045  22.766  0.00  0.00    +0.000 C 
ATOM     15  C   UNL     1      -6.367  12.866  23.496  0.00  0.00    +0.000 C 
ATOM     16  C   UNL     1      -4.047  14.025  22.896  0.00  0.00    +0.000 C 
ATOM     17  C   UNL     1      -3.201  13.306  23.992  0.00  0.00    +0.000 C 
ATOM     18  C   UNL     1      -1.590  13.082  23.613  0.00  0.00    +0.000 C 
ATOM     19  C   UNL     1      -1.180  12.056  22.359  0.00  0.00    +0.000 C 
ATOM     20  C   UNL     1      -1.641  10.766  23.139  0.00  0.00    +0.000 C 
ENDROOT
BRANCH   1  21
ATOM     21  C   UNL     1      -0.009  11.211  19.300  0.00  0.00    +0.000 C 
ATOM     22  O   UNL     1       1.027  11.896  19.103  0.00  0.00    +0.000 OA
BRANCH  21  23
ATOM     23  C   UNL     1      -0.352  10.346  18.113  0.00  0.00    +0.000 C 
BRANCH  23  24
ATOM     24  O   UNL     1       0.916   9.915  17.590  0.00  0.00    +0.000 OA
ATOM     25  H   UNL     1       1.338   9.338  18.269  0.00  0.00    +0.000 HD
ENDBRANCH  23  24
ENDBRANCH  21  23
ENDBRANCH   1  21
BRANCH  17  26
ATOM     26  O   UNL     1      -3.800  12.085  24.404  0.00  0.00    +0.000 OA
ATOM     27  H   UNL     1      -3.394  11.352  23.914  0.00  0.00    +0.000 HD
ENDBRANCH  17  26
BRANCH   1  28
ATOM     28  O   UNL     1      -0.410   9.771  21.059  0.00  0.00    +0.000 OA
BRANCH  28  29
ATOM     29  C   UNL     1       0.906   9.522  21.361  0.00  0.00    +0.000 C 
ATOM     30  O   UNL     1       1.539  10.201  22.171  0.00  0.00    +0.000 OA
BRANCH  29  31
ATOM     31  C   UNL     1       1.556   8.372  20.624  0.00  0.00    +0.000 C 
BRANCH  31  32
ATOM     32  C   UNL     1       1.252   6.941  21.041  0.00  0.00    +0.000 C 
BRANCH  32  34
ATOM     33  C   UNL     1       2.144   4.508  21.022  0.00  0.00    +0.000 C 
ATOM     34  C   UNL     1       1.939   5.817  20.262  0.00  0.00    +0.000 C 
ENDBRANCH  32  34
ENDBRANCH  31  32
ENDBRANCH  29  31
ENDBRANCH  28  29
ENDBRANCH   1  28
TORSDOF 9
ENDMDL
MODEL 3
REMARK VINA RESULT:      -5.3      2.584      4.746
REMARK  Name = 
REMARK  12 active torsions:
REMARK  status: ('A' for Active; 'I' for Inactive)
REMARK    1  A    between atoms: C_1  and  C_2
REMARK    2  A    between atoms: C_2  and  C_3
REMARK    3  A    between atoms: C_3  and  C_4
REMARK    4  A    between atoms: C_4  and  C_5
REMARK    5  A    between atoms: C_5  and  O_7
REMARK    6  A    between atoms: O_7  and  C_8
REMARK    7  A    between atoms: C_8  and  C_9
REMARK    8  A    between atoms: C_9  and  C_11
REMARK    9  A    between atoms: C_11  and  O_12
REMARK   10  A    between atoms: C_25  and  C_26
REMARK   11  A    between atoms: C_28  and  O_29
REMARK   12  A    between atoms: C_31  and  C_32
REMARK                            x       y       z     vdW  Elec       q    Type
REMARK                         _______ _______ _______ _____ _____    ______ ____
ROOT
ATOM      1  C   UNL     1      -0.033  10.253  20.546  0.00  0.00    +0.000 C 
ATOM      2  C   UNL     1      -0.212   8.825  21.046  0.00  0.00    +0.000 C 
ATOM      3  C   UNL     1       1.214   8.755  21.518  0.00  0.00    +0.000 C 
ATOM      4  C   UNL     1       1.883   8.615  20.214  0.00  0.00    +0.000 C 
ATOM      5  C   UNL     1       1.888   7.117  19.957  0.00  0.00    +0.000 C 
ATOM      6  C   UNL     1       2.471   6.310  21.148  0.00  0.00    +0.000 C 
ATOM      7  C   UNL     1       1.621   5.081  21.237  0.00  0.00    +0.000 C 
ATOM      8  C   UNL     1       1.820   4.297  19.973  0.00  0.00    +0.000 C 
ATOM      9  C   UNL     1       2.031   2.973  20.175  0.00  0.00    +0.000 C 
ATOM     10  C   UNL     1       3.509   2.769  20.265  0.00  0.00    +0.000 C 
ATOM     11  O   UNL     1       4.031   2.117  21.154  0.00  0.00    +0.000 OA
ATOM     12  C   UNL     1       4.275   3.359  19.105  0.00  0.00    +0.000 C 
ATOM     13  C   UNL     1       3.722   4.313  18.355  0.00  0.00    +0.000 C 
ATOM     14  C   UNL     1       2.376   5.007  18.649  0.00  0.00    +0.000 C 
ATOM     15  C   UNL     1       1.338   4.651  17.573  0.00  0.00    +0.000 C 
ATOM     16  C   UNL     1       2.651   6.644  18.752  0.00  0.00    +0.000 C 
ATOM     17  C   UNL     1       2.383   7.712  17.647  0.00  0.00    +0.000 C 
ATOM     18  C   UNL     1       2.325   9.291  18.185  0.00  0.00    +0.000 C 
ATOM     19  C   UNL     1       1.087   9.764  19.203  0.00  0.00    +0.000 C 
ATOM     20  C   UNL     1      -0.013   9.630  18.081  0.00  0.00    +0.000 C 
ENDROOT
BRANCH   1  21
ATOM     21  C   UNL     1      -0.327  10.771  22.106  0.00  0.00    +0.000 C 
ATOM     22  O   UNL     1       0.265  11.802  22.516  0.00  0.00    +0.000 OA
BRANCH  21  23
ATOM     23  C   UNL     1      -1.361  10.281  23.087  0.00  0.00    +0.000 C 
BRANCH  23  24
ATOM     24  O   UNL     1      -2.191  11.424  23.353  0.00  0.00    +0.000 OA
ATOM     25  H   UNL     1      -1.927  11.787  24.230  0.00  0.00    +0.000 HD
ENDBRANCH  23  24
ENDBRANCH  21  23
ENDBRANCH   1  21
BRANCH  17  26
ATOM     26  O   UNL     1       1.232   7.394  16.876  0.00  0.00    +0.000 OA
ATOM     27  H   UNL     1       1.479   7.364  15.937  0.00  0.00    +0.000 HD
ENDBRANCH  17  26
BRANCH   1  28
ATOM     28  O   UNL     1      -1.307  10.819  20.016  0.00  0.00    +0.000 OA
BRANCH  28  29
ATOM     29  C   UNL     1      -1.318  12.192  20.007  0.00  0.00    +0.000 C 
ATOM     30  O   UNL     1      -2.145  12.852  20.639  0.00  0.00    +0.000 OA
BRANCH  29  31
ATOM     31  C   UNL     1      -0.265  12.865  19.154  0.00  0.00    +0.000 C 
BRANCH  31  32
ATOM     32  C   UNL     1       0.791  13.740  19.810  0.00  0.00    +0.000 C 
BRANCH  32  34
ATOM     33  C   UNL     1       2.642  12.998  18.155  0.00  0.00    +0.000 C 
ATOM     34  C   UNL     1       2.257  13.365  19.587  0.00  0.00    +0.000 C 
ENDBRANCH  32  34
ENDBRANCH  31  32
ENDBRANCH  29  31
ENDBRANCH  28  29
ENDBRANCH   1  28
TORSDOF 9
ENDMDL
MODEL 4
REMARK VINA RESULT:      -5.2      0.990      1.106
REMARK  Name = 
REMARK  12 active torsions:
REMARK  status: ('A' for Active; 'I' for Inactive)
REMARK    1  A    between atoms: C_1  and  C_2
REMARK    2  A    between atoms: C_2  and  C_3
REMARK    3  A    between atoms: C_3  and  C_4
REMARK    4  A    between atoms: C_4  and  C_5
REMARK    5  A    between atoms: C_5  and  O_7
REMARK    6  A    between atoms: O_7  and  C_8
REMARK    7  A    between atoms: C_8  and  C_9
REMARK    8  A    between atoms: C_9  and  C_11
REMARK    9  A    between atoms: C_11  and  O_12
REMARK   10  A    between atoms: C_25  and  C_26
REMARK   11  A    between atoms: C_28  and  O_29
REMARK   12  A    between atoms: C_31  and  C_32
REMARK                            x       y       z     vdW  Elec       q    Type
REMARK                         _______ _______ _______ _____ _____    ______ ____
ROOT
ATOM      1  C   UNL     1       1.209   8.966  19.729  0.00  0.00    +0.000 C 
ATOM      2  C   UNL     1       2.539   9.182  19.019  0.00  0.00    +0.000 C 
ATOM      3  C   UNL     1       2.037   8.523  17.764  0.00  0.00    +0.000 C 
ATOM      4  C   UNL     1       2.074   7.120  18.209  0.00  0.00    +0.000 C 
ATOM      5  C   UNL     1       3.489   6.665  17.890  0.00  0.00    +0.000 C 
ATOM      6  C   UNL     1       3.891   6.958  16.419  0.00  0.00    +0.000 C 
ATOM      7  C   UNL     1       5.325   7.382  16.487  0.00  0.00    +0.000 C 
ATOM      8  C   UNL     1       6.123   6.213  16.987  0.00  0.00    +0.000 C 
ATOM      9  C   UNL     1       7.250   5.972  16.274  0.00  0.00    +0.000 C 
ATOM     10  C   UNL     1       6.897   4.984  15.209  0.00  0.00    +0.000 C 
ATOM     11  O   UNL     1       7.211   5.134  14.040  0.00  0.00    +0.000 OA
ATOM     12  C   UNL     1       6.207   3.747  15.733  0.00  0.00    +0.000 C 
ATOM     13  C   UNL     1       5.607   3.771  16.925  0.00  0.00    +0.000 C 
ATOM     14  C   UNL     1       5.415   5.028  17.799  0.00  0.00    +0.000 C 
ATOM     15  C   UNL     1       6.241   4.919  19.091  0.00  0.00    +0.000 C 
ATOM     16  C   UNL     1       3.789   5.207  18.095  0.00  0.00    +0.000 C 
ATOM     17  C   UNL     1       3.022   4.806  19.393  0.00  0.00    +0.000 C 
ATOM     18  C   UNL     1       1.519   5.509  19.576  0.00  0.00    +0.000 C 
ATOM     19  C   UNL     1       1.411   7.162  19.802  0.00  0.00    +0.000 C 
ATOM     20  C   UNL     1       2.058   7.103  21.238  0.00  0.00    +0.000 C 
ENDROOT
BRANCH   1  21
ATOM     21  C   UNL     1       0.658  10.360  18.993  0.00  0.00    +0.000 C 
ATOM     22  O   UNL     1      -0.506  10.366  18.519  0.00  0.00    +0.000 OA
BRANCH  21  23
ATOM     23  C   UNL     1       1.296  11.725  18.955  0.00  0.00    +0.000 C 
BRANCH  23  24
ATOM     24  O   UNL     1       0.447  12.506  18.096  0.00  0.00    +0.000 OA
ATOM     25  H   UNL     1       0.501  12.118  17.192  0.00  0.00    +0.000 HD
ENDBRANCH  23  24
ENDBRANCH  21  23
ENDBRANCH   1  21
BRANCH  17  26
ATOM     26  O   UNL     1       3.817   4.996  20.555  0.00  0.00    +0.000 OA
ATOM     27  H   UNL     1       4.130   5.915  20.578  0.00  0.00    +0.000 HD
ENDBRANCH  17  26
BRANCH   1  28
ATOM     28  O   UNL     1       1.204   9.569  21.093  0.00  0.00    +0.000 OA
BRANCH  28  29
ATOM     29  C   UNL     1      -0.059   9.686  21.620  0.00  0.00    +0.000 C 
ATOM     30  O   UNL     1      -0.873   8.762  21.602  0.00  0.00    +0.000 OA
BRANCH  29  31
ATOM     31  C   UNL     1      -0.415  11.032  22.212  0.00  0.00    +0.000 C 
BRANCH  31  32
ATOM     32  C   UNL     1      -1.616  11.157  23.135  0.00  0.00    +0.000 C 
BRANCH  32  34
ATOM     33  C   UNL     1      -3.747  12.613  22.897  0.00  0.00    +0.000 C 
ATOM     34  C   UNL     1      -2.267  12.535  23.267  0.00  0.00    +0.000 C 
ENDBRANCH  32  34
ENDBRANCH  31  32
ENDBRANCH  29  31
ENDBRANCH  28  29
ENDBRANCH   1  28
TORSDOF 9
ENDMDL
MODEL 5
REMARK VINA RESULT:      -5.2      7.198     11.381
REMARK  Name = 
REMARK  12 active torsions:
REMARK  status: ('A' for Active; 'I' for Inactive)
REMARK    1  A    between atoms: C_1  and  C_2
REMARK    2  A    between atoms: C_2  and  C_3
REMARK    3  A    between atoms: C_3  and  C_4
REMARK    4  A    between atoms: C_4  and  C_5
REMARK    5  A    between atoms: C_5  and  O_7
REMARK    6  A    between atoms: O_7  and  C_8
REMARK    7  A    between atoms: C_8  and  C_9
REMARK    8  A    between atoms: C_9  and  C_11
REMARK    9  A    between atoms: C_11  and  O_12
REMARK   10  A    between atoms: C_25  and  C_26
REMARK   11  A    between atoms: C_28  and  O_29
REMARK   12  A    between atoms: C_31  and  C_32
REMARK                            x       y       z     vdW  Elec       q    Type
REMARK                         _______ _______ _______ _____ _____    ______ ____
ROOT
ATOM      1  C   UNL     1       7.876  14.635  20.087  0.00  0.00    +0.000 C 
ATOM      2  C   UNL     1       6.691  14.393  19.160  0.00  0.00    +0.000 C 
ATOM      3  C   UNL     1       6.456  15.868  18.988  0.00  0.00    +0.000 C 
ATOM      4  C   UNL     1       5.852  16.161  20.298  0.00  0.00    +0.000 C 
ATOM      5  C   UNL     1       4.369  15.893  20.094  0.00  0.00    +0.000 C 
ATOM      6  C   UNL     1       3.795  16.641  18.861  0.00  0.00    +0.000 C 
ATOM      7  C   UNL     1       2.829  15.680  18.240  0.00  0.00    +0.000 C 
ATOM      8  C   UNL     1       1.723  15.444  19.226  0.00  0.00    +0.000 C 
ATOM      9  C   UNL     1       0.482  15.514  18.687  0.00  0.00    +0.000 C 
ATOM     10  C   UNL     1       0.011  16.924  18.842  0.00  0.00    +0.000 C 
ATOM     11  O   UNL     1      -0.483  17.559  17.924  0.00  0.00    +0.000 OA
ATOM     12  C   UNL     1       0.114  17.447  20.255  0.00  0.00    +0.000 C 
ATOM     13  C   UNL     1       0.936  16.860  21.127  0.00  0.00    +0.000 C 
ATOM     14  C   UNL     1       1.941  15.740  20.786  0.00  0.00    +0.000 C 
ATOM     15  C   UNL     1       1.540  14.425  21.473  0.00  0.00    +0.000 C 
ATOM     16  C   UNL     1       3.458  16.256  21.232  0.00  0.00    +0.000 C 
ATOM     17  C   UNL     1       4.238  15.868  22.526  0.00  0.00    +0.000 C 
ATOM     18  C   UNL     1       5.879  16.166  22.483  0.00  0.00    +0.000 C 
ATOM     19  C   UNL     1       6.840  15.301  21.422  0.00  0.00    +0.000 C 
ATOM     20  C   UNL     1       6.649  13.947  22.206  0.00  0.00    +0.000 C 
ENDROOT
BRANCH   1  21
ATOM     21  C   UNL     1       8.826  14.819  18.726  0.00  0.00    +0.000 C 
ATOM     22  O   UNL     1       8.753  13.946  17.824  0.00  0.00    +0.000 OA
BRANCH  21  23
ATOM     23  C   UNL     1       9.665  16.000  18.310  0.00  0.00    +0.000 C 
BRANCH  23  24
ATOM     24  O   UNL     1      10.988  15.699  18.784  0.00  0.00    +0.000 OA
ATOM     25  H   UNL     1      10.976  15.768  19.767  0.00  0.00    +0.000 HD
ENDBRANCH  23  24
ENDBRANCH  21  23
ENDBRANCH   1  21
BRANCH  17  26
ATOM     26  O   UNL     1       3.974  14.527  22.918  0.00  0.00    +0.000 OA
ATOM     27  H   UNL     1       4.246  14.409  23.843  0.00  0.00    +0.000 HD
ENDBRANCH  17  26
BRANCH   1  28
ATOM     28  O   UNL     1       8.533  13.360  20.492  0.00  0.00    +0.000 OA
BRANCH  28  29
ATOM     29  C   UNL     1       9.818  13.541  20.942  0.00  0.00    +0.000 C 
ATOM     30  O   UNL     1      10.185  14.576  21.500  0.00  0.00    +0.000 OA
BRANCH  29  31
ATOM     31  C   UNL     1      10.780  12.400  20.696  0.00  0.00    +0.000 C 
BRANCH  31  32
ATOM     32  C   UNL     1      10.589  11.500  19.485  0.00  0.00    +0.000 C 
BRANCH  32  34
ATOM     33  C   UNL     1       8.751  10.110  18.299  0.00  0.00    +0.000 C 
ATOM     34  C   UNL     1       9.528  10.402  19.582  0.00  0.00    +0.000 C 
ENDBRANCH  32  34
ENDBRANCH  31  32
ENDBRANCH  29  31
ENDBRANCH  28  29
ENDBRANCH   1  28
TORSDOF 9
ENDMDL
MODEL 6
REMARK VINA RESULT:      -5.2      6.290      9.340
REMARK  Name = 
REMARK  12 active torsions:
REMARK  status: ('A' for Active; 'I' for Inactive)
REMARK    1  A    between atoms: C_1  and  C_2
REMARK    2  A    between atoms: C_2  and  C_3
REMARK    3  A    between atoms: C_3  and  C_4
REMARK    4  A    between atoms: C_4  and  C_5
REMARK    5  A    between atoms: C_5  and  O_7
REMARK    6  A    between atoms: O_7  and  C_8
REMARK    7  A    between atoms: C_8  and  C_9
REMARK    8  A    between atoms: C_9  and  C_11
REMARK    9  A    between atoms: C_11  and  O_12
REMARK   10  A    between atoms: C_25  and  C_26
REMARK   11  A    between atoms: C_28  and  O_29
REMARK   12  A    between atoms: C_31  and  C_32
REMARK                            x       y       z     vdW  Elec       q    Type
REMARK                         _______ _______ _______ _____ _____    ______ ____
ROOT
ATOM      1  C   UNL     1       0.994  13.300  19.877  0.00  0.00    +0.000 C 
ATOM      2  C   UNL     1       2.044  13.369  20.979  0.00  0.00    +0.000 C 
ATOM      3  C   UNL     1       1.846  14.850  21.148  0.00  0.00    +0.000 C 
ATOM      4  C   UNL     1       2.542  15.317  19.937  0.00  0.00    +0.000 C 
ATOM      5  C   UNL     1       3.993  15.454  20.370  0.00  0.00    +0.000 C 
ATOM      6  C   UNL     1       4.151  16.308  21.657  0.00  0.00    +0.000 C 
ATOM      7  C   UNL     1       5.232  15.631  22.441  0.00  0.00    +0.000 C 
ATOM      8  C   UNL     1       6.498  15.717  21.639  0.00  0.00    +0.000 C 
ATOM      9  C   UNL     1       7.578  16.109  22.359  0.00  0.00    +0.000 C 
ATOM     10  C   UNL     1       7.672  17.596  22.243  0.00  0.00    +0.000 C 
ATOM     11  O   UNL     1       7.831  18.324  23.208  0.00  0.00    +0.000 OA
ATOM     12  C   UNL     1       7.649  18.096  20.817  0.00  0.00    +0.000 C 
ATOM     13  C   UNL     1       7.158  17.325  19.846  0.00  0.00    +0.000 C 
ATOM     14  C   UNL     1       6.449  15.971  20.058  0.00  0.00    +0.000 C 
ATOM     15  C   UNL     1       7.288  14.824  19.473  0.00  0.00    +0.000 C 
ATOM     16  C   UNL     1       4.936  16.067  19.375  0.00  0.00    +0.000 C 
ATOM     17  C   UNL     1       4.496  15.506  17.988  0.00  0.00    +0.000 C 
ATOM     18  C   UNL     1       2.848  15.352  17.775  0.00  0.00    +0.000 C 
ATOM     19  C   UNL     1       2.004  14.243  18.698  0.00  0.00    +0.000 C 
ATOM     20  C   UNL     1       2.668  13.003  17.986  0.00  0.00    +0.000 C 
ENDROOT
BRANCH   1  21
ATOM     21  C   UNL     1      -0.167  13.199  21.074  0.00  0.00    +0.000 C 
ATOM     22  O   UNL     1       0.033  12.415  22.036  0.00  0.00    +0.000 OA
BRANCH  21  23
ATOM     23  C   UNL     1      -1.389  14.057  21.283  0.00  0.00    +0.000 C 
BRANCH  23  24
ATOM     24  O   UNL     1      -1.588  14.730  20.028  0.00  0.00    +0.000 OA
ATOM     25  H   UNL     1      -2.229  15.462  20.181  0.00  0.00    +0.000 HD
ENDBRANCH  23  24
ENDBRANCH  21  23
ENDBRANCH   1  21
BRANCH  17  26
ATOM     26  O   UNL     1       5.166  14.292  17.673  0.00  0.00    +0.000 OA
ATOM     27  H   UNL     1       4.877  13.603  18.293  0.00  0.00    +0.000 HD
ENDBRANCH  17  26
BRANCH   1  28
ATOM     28  O   UNL     1       0.772  11.902  19.409  0.00  0.00    +0.000 OA
BRANCH  28  29
ATOM     29  C   UNL     1      -0.355  11.771  18.634  0.00  0.00    +0.000 C 
ATOM     30  O   UNL     1      -0.855  12.718  18.027  0.00  0.00    +0.000 OA
BRANCH  29  31
ATOM     31  C   UNL     1      -0.972  10.391  18.580  0.00  0.00    +0.000 C 
BRANCH  31  32
ATOM     32  C   UNL     1      -1.762   9.965  17.353  0.00  0.00    +0.000 C 
BRANCH  32  34
ATOM     33  C   UNL     1      -4.000  11.246  17.090  0.00  0.00    +0.000 C 
ATOM     34  C   UNL     1      -3.288   9.947  17.465  0.00  0.00    +0.000 C 
ENDBRANCH  32  34
ENDBRANCH  31  32
ENDBRANCH  29  31
ENDBRANCH  28  29
ENDBRANCH   1  28
TORSDOF 9
ENDMDL
MODEL 7
REMARK VINA RESULT:      -5.2      2.064      8.519
REMARK  Name = 
REMARK  12 active torsions:
REMARK  status: ('A' for Active; 'I' for Inactive)
REMARK    1  A    between atoms: C_1  and  C_2
REMARK    2  A    between atoms: C_2  and  C_3
REMARK    3  A    between atoms: C_3  and  C_4
REMARK    4  A    between atoms: C_4  and  C_5
REMARK    5  A    between atoms: C_5  and  O_7
REMARK    6  A    between atoms: O_7  and  C_8
REMARK    7  A    between atoms: C_8  and  C_9
REMARK    8  A    between atoms: C_9  and  C_11
REMARK    9  A    between atoms: C_11  and  O_12
REMARK   10  A    between atoms: C_25  and  C_26
REMARK   11  A    between atoms: C_28  and  O_29
REMARK   12  A    between atoms: C_31  and  C_32
REMARK                            x       y       z     vdW  Elec       q    Type
REMARK                         _______ _______ _______ _____ _____    ______ ____
ROOT
ATOM      1  C   UNL     1       2.776   5.862  19.557  0.00  0.00    +0.000 C 
ATOM      2  C   UNL     1       2.387   6.635  20.812  0.00  0.00    +0.000 C 
ATOM      3  C   UNL     1       0.923   6.528  20.489  0.00  0.00    +0.000 C 
ATOM      4  C   UNL     1       0.852   7.519  19.402  0.00  0.00    +0.000 C 
ATOM      5  C   UNL     1       0.606   8.838  20.115  0.00  0.00    +0.000 C 
ATOM      6  C   UNL     1      -0.596   8.769  21.095  0.00  0.00    +0.000 C 
ATOM      7  C   UNL     1      -0.176   9.583  22.280  0.00  0.00    +0.000 C 
ATOM      8  C   UNL     1      -0.003  11.000  21.821  0.00  0.00    +0.000 C 
ATOM      9  C   UNL     1      -0.583  11.916  22.635  0.00  0.00    +0.000 C 
ATOM     10  C   UNL     1      -1.964  12.158  22.117  0.00  0.00    +0.000 C 
ATOM     11  O   UNL     1      -2.948  12.152  22.837  0.00  0.00    +0.000 OA
ATOM     12  C   UNL     1      -2.009  12.503  20.647  0.00  0.00    +0.000 C 
ATOM     13  C   UNL     1      -0.985  12.184  19.854  0.00  0.00    +0.000 C 
ATOM     14  C   UNL     1       0.234  11.336  20.272  0.00  0.00    +0.000 C 
ATOM     15  C   UNL     1       1.513  12.187  20.268  0.00  0.00    +0.000 C 
ATOM     16  C   UNL     1       0.332  10.032  19.245  0.00  0.00    +0.000 C 
ATOM     17  C   UNL     1       1.283   9.875  18.017  0.00  0.00    +0.000 C 
ATOM     18  C   UNL     1       1.477   8.312  17.465  0.00  0.00    +0.000 C 
ATOM     19  C   UNL     1       2.245   7.190  18.438  0.00  0.00    +0.000 C 
ATOM     20  C   UNL     1       3.649   7.893  18.301  0.00  0.00    +0.000 C 
ENDROOT
BRANCH   1  21
ATOM     21  C   UNL     1       2.498   4.455  20.412  0.00  0.00    +0.000 C 
ATOM     22  O   UNL     1       2.787   4.431  21.636  0.00  0.00    +0.000 OA
BRANCH  21  23
ATOM     23  C   UNL     1       1.768   3.210  19.976  0.00  0.00    +0.000 C 
BRANCH  23  24
ATOM     24  O   UNL     1       0.839   2.934  21.038  0.00  0.00    +0.000 OA
ATOM     25  H   UNL     1       1.294   3.131  21.890  0.00  0.00    +0.000 HD
ENDBRANCH  23  24
ENDBRANCH  21  23
ENDBRANCH   1  21
BRANCH  17  26
ATOM     26  O   UNL     1       2.542  10.495  18.243  0.00  0.00    +0.000 OA
ATOM     27  H   UNL     1       2.547  10.885  19.132  0.00  0.00    +0.000 HD
ENDBRANCH  17  26
BRANCH   1  28
ATOM     28  O   UNL     1       4.247   5.637  19.478  0.00  0.00    +0.000 OA
BRANCH  28  29
ATOM     29  C   UNL     1       4.578   4.514  18.760  0.00  0.00    +0.000 C 
ATOM     30  O   UNL     1       5.241   3.593  19.238  0.00  0.00    +0.000 OA
BRANCH  29  31
ATOM     31  C   UNL     1       4.100   4.474  17.325  0.00  0.00    +0.000 C 
BRANCH  31  32
ATOM     32  C   UNL     1       5.011   4.970  16.212  0.00  0.00    +0.000 C 
BRANCH  32  34
ATOM     33  C   UNL     1       6.016   4.013  14.023  0.00  0.00    +0.000 C 
ATOM     34  C   UNL     1       5.936   3.949  15.548  0.00  0.00    +0.000 C 
ENDBRANCH  32  34
ENDBRANCH  31  32
ENDBRANCH  29  31
ENDBRANCH  28  29
ENDBRANCH   1  28
TORSDOF 9
ENDMDL
MODEL 8
REMARK VINA RESULT:      -5.1      8.767     11.950
REMARK  Name = 
REMARK  12 active torsions:
REMARK  status: ('A' for Active; 'I' for Inactive)
REMARK    1  A    between atoms: C_1  and  C_2
REMARK    2  A    between atoms: C_2  and  C_3
REMARK    3  A    between atoms: C_3  and  C_4
REMARK    4  A    between atoms: C_4  and  C_5
REMARK    5  A    between atoms: C_5  and  O_7
REMARK    6  A    between atoms: O_7  and  C_8
REMARK    7  A    between atoms: C_8  and  C_9
REMARK    8  A    between atoms: C_9  and  C_11
REMARK    9  A    between atoms: C_11  and  O_12
REMARK   10  A    between atoms: C_25  and  C_26
REMARK   11  A    between atoms: C_28  and  O_29
REMARK   12  A    between atoms: C_31  and  C_32
REMARK                            x       y       z     vdW  Elec       q    Type
REMARK                         _______ _______ _______ _____ _____    ______ ____
ROOT
ATOM      1  C   UNL     1       9.600  13.519  20.631  0.00  0.00    +0.000 C 
ATOM      2  C   UNL     1       9.707  12.692  21.906  0.00  0.00    +0.000 C 
ATOM      3  C   UNL     1       8.301  12.182  21.757  0.00  0.00    +0.000 C 
ATOM      4  C   UNL     1       7.570  13.396  22.158  0.00  0.00    +0.000 C 
ATOM      5  C   UNL     1       7.459  13.282  23.670  0.00  0.00    +0.000 C 
ATOM      6  C   UNL     1       6.875  11.916  24.122  0.00  0.00    +0.000 C 
ATOM      7  C   UNL     1       7.648  11.553  25.352  0.00  0.00    +0.000 C 
ATOM      8  C   UNL     1       7.346  12.583  26.400  0.00  0.00    +0.000 C 
ATOM      9  C   UNL     1       7.060  12.060  27.618  0.00  0.00    +0.000 C 
ATOM     10  C   UNL     1       5.577  11.886  27.687  0.00  0.00    +0.000 C 
ATOM     11  O   UNL     1       5.051  10.853  28.066  0.00  0.00    +0.000 OA
ATOM     12  C   UNL     1       4.803  13.136  27.340  0.00  0.00    +0.000 C 
ATOM     13  C   UNL     1       5.384  14.109  26.636  0.00  0.00    +0.000 C 
ATOM     14  C   UNL     1       6.783  14.026  25.991  0.00  0.00    +0.000 C 
ATOM     15  C   UNL     1       7.751  15.008  26.670  0.00  0.00    +0.000 C 
ATOM     16  C   UNL     1       6.618  14.316  24.362  0.00  0.00    +0.000 C 
ATOM     17  C   UNL     1       6.908  15.653  23.614  0.00  0.00    +0.000 C 
ATOM     18  C   UNL     1       7.089  15.517  21.960  0.00  0.00    +0.000 C 
ATOM     19  C   UNL     1       8.396  14.676  21.347  0.00  0.00    +0.000 C 
ATOM     20  C   UNL     1       9.437  15.758  21.826  0.00  0.00    +0.000 C 
ENDROOT
BRANCH   1  21
ATOM     21  C   UNL     1       9.991  12.139  19.775  0.00  0.00    +0.000 C 
ATOM     22  O   UNL     1      10.957  11.441  20.175  0.00  0.00    +0.000 OA
BRANCH  21  23
ATOM     23  C   UNL     1       9.234  11.475  18.653  0.00  0.00    +0.000 C 
BRANCH  23  24
ATOM     24  O   UNL     1       9.159  10.089  19.026  0.00  0.00    +0.000 OA
ATOM     25  H   UNL     1       9.977   9.872  19.532  0.00  0.00    +0.000 HD
ENDBRANCH  23  24
ENDBRANCH  21  23
ENDBRANCH   1  21
BRANCH  17  26
ATOM     26  O   UNL     1       8.003  16.353  24.190  0.00  0.00    +0.000 OA
ATOM     27  H   UNL     1       8.182  15.989  25.071  0.00  0.00    +0.000 HD
ENDBRANCH  17  26
BRANCH   1  28
ATOM     28  O   UNL     1      10.884  14.202  20.303  0.00  0.00    +0.000 OA
BRANCH  28  29
ATOM     29  C   UNL     1      11.017  14.474  18.963  0.00  0.00    +0.000 C 
ATOM     30  O   UNL     1      11.997  14.117  18.308  0.00  0.00    +0.000 OA
BRANCH  29  31
ATOM     31  C   UNL     1       9.896  15.266  18.327  0.00  0.00    +0.000 C 
BRANCH  31  32
ATOM     32  C   UNL     1      10.012  16.777  18.208  0.00  0.00    +0.000 C 
BRANCH  32  34
ATOM     33  C   UNL     1       7.441  16.897  18.514  0.00  0.00    +0.000 C 
ATOM     34  C   UNL     1       8.789  17.613  18.589  0.00  0.00    +0.000 C 
ENDBRANCH  32  34
ENDBRANCH  31  32
ENDBRANCH  29  31
ENDBRANCH  28  29
ENDBRANCH   1  28
TORSDOF 9
ENDMDL
MODEL 9
REMARK VINA RESULT:      -5.1      6.456      9.212
REMARK  Name = 
REMARK  12 active torsions:
REMARK  status: ('A' for Active; 'I' for Inactive)
REMARK    1  A    between atoms: C_1  and  C_2
REMARK    2  A    between atoms: C_2  and  C_3
REMARK    3  A    between atoms: C_3  and  C_4
REMARK    4  A    between atoms: C_4  and  C_5
REMARK    5  A    between atoms: C_5  and  O_7
REMARK    6  A    between atoms: O_7  and  C_8
REMARK    7  A    between atoms: C_8  and  C_9
REMARK    8  A    between atoms: C_9  and  C_11
REMARK    9  A    between atoms: C_11  and  O_12
REMARK   10  A    between atoms: C_25  and  C_26
REMARK   11  A    between atoms: C_28  and  O_29
REMARK   12  A    between atoms: C_31  and  C_32
REMARK                            x       y       z     vdW  Elec       q    Type
REMARK                         _______ _______ _______ _____ _____    ______ ____
ROOT
ATOM      1  C   UNL     1       0.915  13.185  20.091  0.00  0.00    +0.000 C 
ATOM      2  C   UNL     1       2.262  12.959  20.767  0.00  0.00    +0.000 C 
ATOM      3  C   UNL     1       2.191  14.286  21.470  0.00  0.00    +0.000 C 
ATOM      4  C   UNL     1       2.488  15.168  20.330  0.00  0.00    +0.000 C 
ATOM      5  C   UNL     1       4.006  15.252  20.309  0.00  0.00    +0.000 C 
ATOM      6  C   UNL     1       4.599  15.646  21.688  0.00  0.00    +0.000 C 
ATOM      7  C   UNL     1       5.843  14.823  21.824  0.00  0.00    +0.000 C 
ATOM      8  C   UNL     1       6.793  15.251  20.745  0.00  0.00    +0.000 C 
ATOM      9  C   UNL     1       8.061  15.456  21.178  0.00  0.00    +0.000 C 
ATOM     10  C   UNL     1       8.177  16.902  21.538  0.00  0.00    +0.000 C 
ATOM     11  O   UNL     1       8.664  17.283  22.589  0.00  0.00    +0.000 OA
ATOM     12  C   UNL     1       7.726  17.839  20.442  0.00  0.00    +0.000 C 
ATOM     13  C   UNL     1       6.920  17.397  19.474  0.00  0.00    +0.000 C 
ATOM     14  C   UNL     1       6.258  16.004  19.435  0.00  0.00    +0.000 C 
ATOM     15  C   UNL     1       6.819  15.171  18.272  0.00  0.00    +0.000 C 
ATOM     16  C   UNL     1       4.612  16.219  19.331  0.00  0.00    +0.000 C 
ATOM     17  C   UNL     1       3.733  16.115  18.047  0.00  0.00    +0.000 C 
ATOM     18  C   UNL     1       2.096  15.930  18.320  0.00  0.00    +0.000 C 
ATOM     19  C   UNL     1       1.541  14.526  19.038  0.00  0.00    +0.000 C 
ATOM     20  C   UNL     1       1.892  13.635  17.786  0.00  0.00    +0.000 C 
ENDROOT
BRANCH   1  21
ATOM     21  C   UNL     1       0.189  12.620  21.485  0.00  0.00    +0.000 C 
ATOM     22  O   UNL     1       0.570  11.518  21.954  0.00  0.00    +0.000 OA
BRANCH  21  23
ATOM     23  C   UNL     1      -0.772  13.329  22.406  0.00  0.00    +0.000 C 
BRANCH  23  24
ATOM     24  O   UNL     1      -1.146  12.342  23.381  0.00  0.00    +0.000 OA
ATOM     25  H   UNL     1      -1.083  11.457  22.950  0.00  0.00    +0.000 HD
ENDBRANCH  23  24
ENDBRANCH  21  23
ENDBRANCH   1  21
BRANCH  17  26
ATOM     26  O   UNL     1       4.216  15.118  17.156  0.00  0.00    +0.000 OA
ATOM     27  H   UNL     1       4.035  15.396  16.243  0.00  0.00    +0.000 HD
ENDBRANCH  17  26
BRANCH   1  28
ATOM     28  O   UNL     1       0.497  12.005  19.281  0.00  0.00    +0.000 OA
BRANCH  28  29
ATOM     29  C   UNL     1      -0.845  12.006  18.989  0.00  0.00    +0.000 C 
ATOM     30  O   UNL     1      -1.506  13.043  18.913  0.00  0.00    +0.000 OA
BRANCH  29  31
ATOM     31  C   UNL     1      -1.487  10.651  18.786  0.00  0.00    +0.000 C 
BRANCH  31  32
ATOM     32  C   UNL     1      -1.460  10.002  17.411  0.00  0.00    +0.000 C 
BRANCH  32  34
ATOM     33  C   UNL     1      -2.880  10.633  15.337  0.00  0.00    +0.000 C 
ATOM     34  C   UNL     1      -2.788   9.878  16.662  0.00  0.00    +0.000 C 
ENDBRANCH  32  34
ENDBRANCH  31  32
ENDBRANCH  29  31
ENDBRANCH  28  29
ENDBRANCH   1  28
TORSDOF 9
ENDMDL
