MODEL 1
REMARK VINA RESULT:      -9.5      0.000      0.000
REMARK  Name = 
REMARK  2 active torsions:
REMARK  status: ('A' for Active; 'I' for Inactive)
REMARK    1  A    between atoms: C_2  and  C_3
REMARK    2  A    between atoms: C_11  and  C_12
REMARK                            x       y       z     vdW  Elec       q    Type
REMARK                         _______ _______ _______ _____ _____    ______ ____
ROOT
ATOM      1  O   UNL     1       2.637   9.458  17.145  0.00  0.00    +0.000 OA
ATOM      2  C   UNL     1       2.603   8.562  17.987  0.00  0.00    +0.000 C 
ATOM      3  N   UNL     1       3.425   7.447  17.916  0.00  0.00    +0.000 N 
ATOM      4  C   UNL     1       3.405   6.268  18.734  0.00  0.00    +0.000 C 
ATOM      5  C   UNL     1       4.045   5.166  17.894  0.00  0.00    +0.000 C 
ATOM      6  C   UNL     1       5.110   5.961  17.034  0.00  0.00    +0.000 C 
ATOM      7  C   UNL     1       5.095   5.510  15.554  0.00  0.00    +0.000 C 
ATOM      8  C   UNL     1       5.865   4.222  15.345  0.00  0.00    +0.000 C 
ATOM      9  O   UNL     1       7.226   4.426  15.711  0.00  0.00    +0.000 OA
ATOM     10  C   UNL     1       7.380   4.720  17.100  0.00  0.00    +0.000 C 
ATOM     11  C   UNL     1       6.577   5.953  17.519  0.00  0.00    +0.000 C 
ATOM     12  C   UNL     1       4.581   7.433  17.056  0.00  0.00    +0.000 C 
ENDROOT
BRANCH   5  13
ATOM     13  C   UNL     1       4.380   4.078  18.934  0.00  0.00    +0.000 C 
ATOM     14  O   UNL     1       5.531   3.877  19.314  0.00  0.00    +0.000 OA
ATOM     15  N   UNL     1       3.300   3.444  19.563  0.00  0.00    +0.000 N 
ATOM     16  C   UNL     1       3.538   2.593  20.742  0.00  0.00    +0.000 C 
ATOM     17  C   UNL     1       2.393   2.726  21.758  0.00  0.00    +0.000 C 
ATOM     18  O   UNL     1       1.120   2.454  21.150  0.00  0.00    +0.000 OA
ATOM     19  C   UNL     1       0.872   3.357  20.066  0.00  0.00    +0.000 C 
ATOM     20  C   UNL     1       1.957   3.248  18.988  0.00  0.00    +0.000 C 
ENDBRANCH   5  13
BRANCH   2  21
ATOM     21  C   UNL     1       1.642   8.689  19.120  0.00  0.00    +0.000 A 
ATOM     22  C   UNL     1       0.628   9.653  19.052  0.00  0.00    +0.000 A 
ATOM     23  C   UNL     1      -0.271   9.793  20.113  0.00  0.00    +0.000 A 
ATOM     24  C   UNL     1      -0.171   8.965  21.232  0.00  0.00    +0.000 A 
ATOM     25  C   UNL     1       0.849   8.025  21.317  0.00  0.00    +0.000 A 
ATOM     26  C   UNL     1       1.774   7.920  20.281  0.00  0.00    +0.000 A 
ENDBRANCH   2  21
TORSDOF 2
ENDMDL
MODEL 2
REMARK VINA RESULT:      -8.0      2.085      4.923
REMARK  Name = 
REMARK  2 active torsions:
REMARK  status: ('A' for Active; 'I' for Inactive)
REMARK    1  A    between atoms: C_2  and  C_3
REMARK    2  A    between atoms: C_11  and  C_12
REMARK                            x       y       z     vdW  Elec       q    Type
REMARK                         _______ _______ _______ _____ _____    ______ ____
ROOT
ATOM      1  O   UNL     1       0.269   8.413  21.842  0.00  0.00    +0.000 OA
ATOM      2  C   UNL     1       0.945   8.333  20.817  0.00  0.00    +0.000 C 
ATOM      3  N   UNL     1       1.449   7.127  20.353  0.00  0.00    +0.000 N 
ATOM      4  C   UNL     1       2.357   6.895  19.267  0.00  0.00    +0.000 C 
ATOM      5  C   UNL     1       3.030   5.558  19.563  0.00  0.00    +0.000 C 
ATOM      6  C   UNL     1       1.889   4.754  20.309  0.00  0.00    +0.000 C 
ATOM      7  C   UNL     1       2.436   4.011  21.551  0.00  0.00    +0.000 C 
ATOM      8  C   UNL     1       3.126   2.715  21.179  0.00  0.00    +0.000 C 
ATOM      9  O   UNL     1       2.187   1.850  20.548  0.00  0.00    +0.000 OA
ATOM     10  C   UNL     1       1.707   2.374  19.310  0.00  0.00    +0.000 C 
ATOM     11  C   UNL     1       1.058   3.748  19.482  0.00  0.00    +0.000 C 
ATOM     12  C   UNL     1       0.936   5.873  20.846  0.00  0.00    +0.000 C 
ENDROOT
BRANCH   5  13
ATOM     13  C   UNL     1       3.648   5.165  18.207  0.00  0.00    +0.000 C 
ATOM     14  O   UNL     1       2.958   4.998  17.203  0.00  0.00    +0.000 OA
ATOM     15  N   UNL     1       5.047   5.176  18.117  0.00  0.00    +0.000 N 
ATOM     16  C   UNL     1       5.695   5.070  16.798  0.00  0.00    +0.000 C 
ATOM     17  C   UNL     1       6.965   5.934  16.737  0.00  0.00    +0.000 C 
ATOM     18  O   UNL     1       7.869   5.610  17.806  0.00  0.00    +0.000 OA
ATOM     19  C   UNL     1       7.243   5.812  19.079  0.00  0.00    +0.000 C 
ATOM     20  C   UNL     1       5.987   4.945  19.227  0.00  0.00    +0.000 C 
ENDBRANCH   5  13
BRANCH   2  21
ATOM     21  C   UNL     1       1.229   9.584  20.055  0.00  0.00    +0.000 A 
ATOM     22  C   UNL     1       1.053  10.823  20.684  0.00  0.00    +0.000 A 
ATOM     23  C   UNL     1       1.301  12.003  19.977  0.00  0.00    +0.000 A 
ATOM     24  C   UNL     1       1.738  11.950  18.653  0.00  0.00    +0.000 A 
ATOM     25  C   UNL     1       1.890  10.723  18.016  0.00  0.00    +0.000 A 
ATOM     26  C   UNL     1       1.595   9.550  18.706  0.00  0.00    +0.000 A 
ENDBRANCH   2  21
TORSDOF 2
ENDMDL
MODEL 3
REMARK VINA RESULT:      -7.8      2.198      4.799
REMARK  Name = 
REMARK  2 active torsions:
REMARK  status: ('A' for Active; 'I' for Inactive)
REMARK    1  A    between atoms: C_2  and  C_3
REMARK    2  A    between atoms: C_11  and  C_12
REMARK                            x       y       z     vdW  Elec       q    Type
REMARK                         _______ _______ _______ _____ _____    ______ ____
ROOT
ATOM      1  O   UNL     1      -0.124   8.029  21.884  0.00  0.00    +0.000 OA
ATOM      2  C   UNL     1       0.654   8.217  20.950  0.00  0.00    +0.000 C 
ATOM      3  N   UNL     1       1.337   7.179  20.334  0.00  0.00    +0.000 N 
ATOM      4  C   UNL     1       2.368   7.253  19.340  0.00  0.00    +0.000 C 
ATOM      5  C   UNL     1       3.159   5.953  19.460  0.00  0.00    +0.000 C 
ATOM      6  C   UNL     1       2.051   4.914  19.904  0.00  0.00    +0.000 C 
ATOM      7  C   UNL     1       2.555   3.996  21.042  0.00  0.00    +0.000 C 
ATOM      8  C   UNL     1       3.424   2.870  20.521  0.00  0.00    +0.000 C 
ATOM      9  O   UNL     1       2.658   2.061  19.633  0.00  0.00    +0.000 OA
ATOM     10  C   UNL     1       2.245   2.771  18.466  0.00  0.00    +0.000 C 
ATOM     11  C   UNL     1       1.427   4.017  18.811  0.00  0.00    +0.000 C 
ATOM     12  C   UNL     1       0.927   5.810  20.521  0.00  0.00    +0.000 C 
ENDROOT
BRANCH   5  13
ATOM     13  C   UNL     1       3.949   5.895  18.138  0.00  0.00    +0.000 C 
ATOM     14  O   UNL     1       3.417   6.122  17.054  0.00  0.00    +0.000 OA
ATOM     15  N   UNL     1       5.340   5.747  18.233  0.00  0.00    +0.000 N 
ATOM     16  C   UNL     1       6.178   5.946  17.038  0.00  0.00    +0.000 C 
ATOM     17  C   UNL     1       7.513   6.614  17.407  0.00  0.00    +0.000 C 
ATOM     18  O   UNL     1       8.202   5.874  18.428  0.00  0.00    +0.000 OA
ATOM     19  C   UNL     1       7.401   5.777  19.612  0.00  0.00    +0.000 C 
ATOM     20  C   UNL     1       6.066   5.079  19.327  0.00  0.00    +0.000 C 
ENDBRANCH   5  13
BRANCH   2  21
ATOM     21  C   UNL     1       0.865   9.614  20.473  0.00  0.00    +0.000 A 
ATOM     22  C   UNL     1       1.088   9.845  19.110  0.00  0.00    +0.000 A 
ATOM     23  C   UNL     1       1.303  11.148  18.651  0.00  0.00    +0.000 A 
ATOM     24  C   UNL     1       1.279  12.220  19.544  0.00  0.00    +0.000 A 
ATOM     25  C   UNL     1       1.083  11.994  20.901  0.00  0.00    +0.000 A 
ATOM     26  C   UNL     1       0.919  10.691  21.364  0.00  0.00    +0.000 A 
ENDBRANCH   2  21
TORSDOF 2
ENDMDL
MODEL 4
REMARK VINA RESULT:      -7.7      1.892      5.962
REMARK  Name = 
REMARK  2 active torsions:
REMARK  status: ('A' for Active; 'I' for Inactive)
REMARK    1  A    between atoms: C_2  and  C_3
REMARK    2  A    between atoms: C_11  and  C_12
REMARK                            x       y       z     vdW  Elec       q    Type
REMARK                         _______ _______ _______ _____ _____    ______ ____
ROOT
ATOM      1  O   UNL     1       7.162   4.196  17.300  0.00  0.00    +0.000 OA
ATOM      2  C   UNL     1       6.550   5.080  17.897  0.00  0.00    +0.000 C 
ATOM      3  N   UNL     1       5.296   4.870  18.450  0.00  0.00    +0.000 N 
ATOM      4  C   UNL     1       4.408   5.827  19.045  0.00  0.00    +0.000 C 
ATOM      5  C   UNL     1       3.009   5.231  18.924  0.00  0.00    +0.000 C 
ATOM      6  C   UNL     1       3.283   3.677  19.042  0.00  0.00    +0.000 C 
ATOM      7  C   UNL     1       2.478   2.877  17.990  0.00  0.00    +0.000 C 
ATOM      8  C   UNL     1       1.038   2.670  18.413  0.00  0.00    +0.000 C 
ATOM      9  O   UNL     1       1.009   1.923  19.625  0.00  0.00    +0.000 OA
ATOM     10  C   UNL     1       1.610   2.625  20.713  0.00  0.00    +0.000 C 
ATOM     11  C   UNL     1       3.061   3.010  20.418  0.00  0.00    +0.000 C 
ATOM     12  C   UNL     1       4.790   3.535  18.650  0.00  0.00    +0.000 C 
ENDROOT
BRANCH   5  13
ATOM     13  C   UNL     1       2.182   6.063  19.924  0.00  0.00    +0.000 C 
ATOM     14  O   UNL     1       1.993   5.689  21.079  0.00  0.00    +0.000 OA
ATOM     15  N   UNL     1       1.802   7.351  19.521  0.00  0.00    +0.000 N 
ATOM     16  C   UNL     1       1.245   8.291  20.509  0.00  0.00    +0.000 C 
ATOM     17  C   UNL     1       1.706   9.729  20.221  0.00  0.00    +0.000 C 
ATOM     18  O   UNL     1       1.391  10.119  18.874  0.00  0.00    +0.000 OA
ATOM     19  C   UNL     1       2.022   9.243  17.932  0.00  0.00    +0.000 C 
ATOM     20  C   UNL     1       1.574   7.791  18.133  0.00  0.00    +0.000 C 
ENDBRANCH   5  13
BRANCH   2  21
ATOM     21  C   UNL     1       7.187   6.423  18.023  0.00  0.00    +0.000 A 
ATOM     22  C   UNL     1       6.837   7.434  17.120  0.00  0.00    +0.000 A 
ATOM     23  C   UNL     1       7.437   8.693  17.218  0.00  0.00    +0.000 A 
ATOM     24  C   UNL     1       8.372   8.949  18.221  0.00  0.00    +0.000 A 
ATOM     25  C   UNL     1       8.743   7.941  19.104  0.00  0.00    +0.000 A 
ATOM     26  C   UNL     1       8.181   6.674  18.975  0.00  0.00    +0.000 A 
ENDBRANCH   2  21
TORSDOF 2
ENDMDL
MODEL 5
REMARK VINA RESULT:      -7.5      5.558     10.004
REMARK  Name = 
REMARK  2 active torsions:
REMARK  status: ('A' for Active; 'I' for Inactive)
REMARK    1  A    between atoms: C_2  and  C_3
REMARK    2  A    between atoms: C_11  and  C_12
REMARK                            x       y       z     vdW  Elec       q    Type
REMARK                         _______ _______ _______ _____ _____    ______ ____
ROOT
ATOM      1  O   UNL     1      -1.191  10.881  18.281  0.00  0.00    +0.000 OA
ATOM      2  C   UNL     1      -0.135  11.007  18.900  0.00  0.00    +0.000 C 
ATOM      3  N   UNL     1       0.289  12.229  19.402  0.00  0.00    +0.000 N 
ATOM      4  C   UNL     1       1.544  12.557  20.014  0.00  0.00    +0.000 C 
ATOM      5  C   UNL     1       1.723  14.060  19.820  0.00  0.00    +0.000 C 
ATOM      6  C   UNL     1       0.235  14.596  19.872  0.00  0.00    +0.000 C 
ATOM      7  C   UNL     1      -0.035  15.635  18.757  0.00  0.00    +0.000 C 
ATOM      8  C   UNL     1       0.488  17.009  19.124  0.00  0.00    +0.000 C 
ATOM      9  O   UNL     1      -0.177  17.465  20.297  0.00  0.00    +0.000 OA
ATOM     10  C   UNL     1       0.106  16.653  21.436  0.00  0.00    +0.000 C 
ATOM     11  C   UNL     1      -0.271  15.188  21.206  0.00  0.00    +0.000 C 
ATOM     12  C   UNL     1      -0.625  13.337  19.522  0.00  0.00    +0.000 C 
ENDROOT
BRANCH   5  13
ATOM     13  C   UNL     1       2.829  14.419  20.832  0.00  0.00    +0.000 C 
ATOM     14  O   UNL     1       2.775  14.060  22.006  0.00  0.00    +0.000 OA
ATOM     15  N   UNL     1       3.989  15.019  20.323  0.00  0.00    +0.000 N 
ATOM     16  C   UNL     1       5.181  15.148  21.179  0.00  0.00    +0.000 C 
ATOM     17  C   UNL     1       6.469  14.953  20.362  0.00  0.00    +0.000 C 
ATOM     18  O   UNL     1       6.516  15.848  19.240  0.00  0.00    +0.000 OA
ATOM     19  C   UNL     1       5.394  15.638  18.374  0.00  0.00    +0.000 C 
ATOM     20  C   UNL     1       4.070  15.858  19.114  0.00  0.00    +0.000 C 
ENDBRANCH   5  13
BRANCH   2  21
ATOM     21  C   UNL     1       0.712   9.798  19.111  0.00  0.00    +0.000 A 
ATOM     22  C   UNL     1       1.441   9.277  18.035  0.00  0.00    +0.000 A 
ATOM     23  C   UNL     1       2.227   8.135  18.215  0.00  0.00    +0.000 A 
ATOM     24  C   UNL     1       2.300   7.523  19.466  0.00  0.00    +0.000 A 
ATOM     25  C   UNL     1       1.559   8.020  20.532  0.00  0.00    +0.000 A 
ATOM     26  C   UNL     1       0.738   9.129  20.339  0.00  0.00    +0.000 A 
ENDBRANCH   2  21
TORSDOF 2
ENDMDL
MODEL 6
REMARK VINA RESULT:      -7.4      7.439     12.294
REMARK  Name = 
REMARK  2 active torsions:
REMARK  status: ('A' for Active; 'I' for Inactive)
REMARK    1  A    between atoms: C_2  and  C_3
REMARK    2  A    between atoms: C_11  and  C_12
REMARK                            x       y       z     vdW  Elec       q    Type
REMARK                         _______ _______ _______ _____ _____    ______ ____
ROOT
ATOM      1  O   UNL     1      -1.128  11.078  23.486  0.00  0.00    +0.000 OA
ATOM      2  C   UNL     1      -1.525  11.637  22.464  0.00  0.00    +0.000 C 
ATOM      3  N   UNL     1      -2.728  12.324  22.415  0.00  0.00    +0.000 N 
ATOM      4  C   UNL     1      -3.383  12.901  21.276  0.00  0.00    +0.000 C 
ATOM      5  C   UNL     1      -4.864  12.974  21.637  0.00  0.00    +0.000 C 
ATOM      6  C   UNL     1      -4.827  13.222  23.200  0.00  0.00    +0.000 C 
ATOM      7  C   UNL     1      -5.857  12.337  23.941  0.00  0.00    +0.000 C 
ATOM      8  C   UNL     1      -7.257  12.913  23.868  0.00  0.00    +0.000 C 
ATOM      9  O   UNL     1      -7.270  14.192  24.494  0.00  0.00    +0.000 OA
ATOM     10  C   UNL     1      -6.451  15.141  23.813  0.00  0.00    +0.000 C 
ATOM     11  C   UNL     1      -4.999  14.673  23.702  0.00  0.00    +0.000 C 
ATOM     12  C   UNL     1      -3.412  12.706  23.624  0.00  0.00    +0.000 C 
ENDROOT
BRANCH   5  13
ATOM     13  C   UNL     1      -5.434  13.958  20.597  0.00  0.00    +0.000 C 
ATOM     14  O   UNL     1      -5.152  15.154  20.613  0.00  0.00    +0.000 OA
ATOM     15  N   UNL     1      -6.149  13.407  19.524  0.00  0.00    +0.000 N 
ATOM     16  C   UNL     1      -6.493  14.252  18.367  0.00  0.00    +0.000 C 
ATOM     17  C   UNL     1      -6.417  13.449  17.058  0.00  0.00    +0.000 C 
ATOM     18  O   UNL     1      -7.232  12.268  17.121  0.00  0.00    +0.000 OA
ATOM     19  C   UNL     1      -6.815  11.420  18.198  0.00  0.00    +0.000 C 
ATOM     20  C   UNL     1      -6.907  12.144  19.546  0.00  0.00    +0.000 C 
ENDBRANCH   5  13
BRANCH   2  21
ATOM     21  C   UNL     1      -0.674  11.566  21.241  0.00  0.00    +0.000 A 
ATOM     22  C   UNL     1      -0.740  10.429  20.427  0.00  0.00    +0.000 A 
ATOM     23  C   UNL     1       0.062  10.342  19.286  0.00  0.00    +0.000 A 
ATOM     24  C   UNL     1       0.917  11.392  18.947  0.00  0.00    +0.000 A 
ATOM     25  C   UNL     1       1.006  12.512  19.765  0.00  0.00    +0.000 A 
ATOM     26  C   UNL     1       0.242  12.576  20.928  0.00  0.00    +0.000 A 
ENDBRANCH   2  21
TORSDOF 2
ENDMDL
MODEL 7
REMARK VINA RESULT:      -7.4      9.147     12.788
REMARK  Name = 
REMARK  2 active torsions:
REMARK  status: ('A' for Active; 'I' for Inactive)
REMARK    1  A    between atoms: C_2  and  C_3
REMARK    2  A    between atoms: C_11  and  C_12
REMARK                            x       y       z     vdW  Elec       q    Type
REMARK                         _______ _______ _______ _____ _____    ______ ____
ROOT
ATOM      1  O   UNL     1      -7.127  12.023  17.487  0.00  0.00    +0.000 OA
ATOM      2  C   UNL     1      -6.102  11.899  18.155  0.00  0.00    +0.000 C 
ATOM      3  N   UNL     1      -6.011  12.350  19.464  0.00  0.00    +0.000 N 
ATOM      4  C   UNL     1      -4.856  12.403  20.314  0.00  0.00    +0.000 C 
ATOM      5  C   UNL     1      -5.148  13.487  21.347  0.00  0.00    +0.000 C 
ATOM      6  C   UNL     1      -6.716  13.379  21.530  0.00  0.00    +0.000 C 
ATOM      7  C   UNL     1      -7.383  14.775  21.551  0.00  0.00    +0.000 C 
ATOM      8  C   UNL     1      -7.257  15.445  22.904  0.00  0.00    +0.000 C 
ATOM      9  O   UNL     1      -7.913  14.647  23.884  0.00  0.00    +0.000 OA
ATOM     10  C   UNL     1      -7.297  13.371  24.052  0.00  0.00    +0.000 C 
ATOM     11  C   UNL     1      -7.245  12.581  22.743  0.00  0.00    +0.000 C 
ATOM     12  C   UNL     1      -7.196  12.677  20.217  0.00  0.00    +0.000 C 
ENDROOT
BRANCH   5  13
ATOM     13  C   UNL     1      -4.106  13.214  22.450  0.00  0.00    +0.000 C 
ATOM     14  O   UNL     1      -3.996  12.111  22.979  0.00  0.00    +0.000 OA
ATOM     15  N   UNL     1      -3.168  14.224  22.705  0.00  0.00    +0.000 N 
ATOM     16  C   UNL     1      -1.995  13.935  23.548  0.00  0.00    +0.000 C 
ATOM     17  C   UNL     1      -0.753  14.684  23.039  0.00  0.00    +0.000 C 
ATOM     18  O   UNL     1      -1.000  16.095  22.931  0.00  0.00    +0.000 OA
ATOM     19  C   UNL     1      -2.085  16.352  22.032  0.00  0.00    +0.000 C 
ATOM     20  C   UNL     1      -3.375  15.669  22.502  0.00  0.00    +0.000 C 
ENDBRANCH   5  13
BRANCH   2  21
ATOM     21  C   UNL     1      -4.920  11.241  17.527  0.00  0.00    +0.000 A 
ATOM     22  C   UNL     1      -4.261  10.215  18.215  0.00  0.00    +0.000 A 
ATOM     23  C   UNL     1      -3.143   9.601  17.644  0.00  0.00    +0.000 A 
ATOM     24  C   UNL     1      -2.691   9.995  16.385  0.00  0.00    +0.000 A 
ATOM     25  C   UNL     1      -3.325  11.031  15.708  0.00  0.00    +0.000 A 
ATOM     26  C   UNL     1      -4.409  11.676  16.299  0.00  0.00    +0.000 A 
ENDBRANCH   2  21
TORSDOF 2
ENDMDL
MODEL 8
REMARK VINA RESULT:      -7.4      8.954     12.561
REMARK  Name = 
REMARK  2 active torsions:
REMARK  status: ('A' for Active; 'I' for Inactive)
REMARK    1  A    between atoms: C_2  and  C_3
REMARK    2  A    between atoms: C_11  and  C_12
REMARK                            x       y       z     vdW  Elec       q    Type
REMARK                         _______ _______ _______ _____ _____    ______ ____
ROOT
ATOM      1  O   UNL     1      -6.944  11.777  17.480  0.00  0.00    +0.000 OA
ATOM      2  C   UNL     1      -5.916  11.725  18.153  0.00  0.00    +0.000 C 
ATOM      3  N   UNL     1      -5.858  12.197  19.456  0.00  0.00    +0.000 N 
ATOM      4  C   UNL     1      -4.713  12.332  20.309  0.00  0.00    +0.000 C 
ATOM      5  C   UNL     1      -5.074  13.409  21.328  0.00  0.00    +0.000 C 
ATOM      6  C   UNL     1      -6.634  13.206  21.507  0.00  0.00    +0.000 C 
ATOM      7  C   UNL     1      -7.386  14.558  21.508  0.00  0.00    +0.000 C 
ATOM      8  C   UNL     1      -7.307  15.252  22.853  0.00  0.00    +0.000 C 
ATOM      9  O   UNL     1      -7.917  14.427  23.841  0.00  0.00    +0.000 OA
ATOM     10  C   UNL     1      -7.223  13.194  24.027  0.00  0.00    +0.000 C 
ATOM     11  C   UNL     1      -7.118  12.392  22.728  0.00  0.00    +0.000 C 
ATOM     12  C   UNL     1      -7.064  12.460  20.202  0.00  0.00    +0.000 C 
ENDROOT
BRANCH   5  13
ATOM     13  C   UNL     1      -4.022  13.215  22.437  0.00  0.00    +0.000 C 
ATOM     14  O   UNL     1      -4.028  12.229  23.171  0.00  0.00    +0.000 OA
ATOM     15  N   UNL     1      -2.951  14.119  22.465  0.00  0.00    +0.000 N 
ATOM     16  C   UNL     1      -1.784  13.842  23.321  0.00  0.00    +0.000 C 
ATOM     17  C   UNL     1      -0.483  14.303  22.644  0.00  0.00    +0.000 C 
ATOM     18  O   UNL     1      -0.554  15.688  22.266  0.00  0.00    +0.000 OA
ATOM     19  C   UNL     1      -1.641  15.912  21.360  0.00  0.00    +0.000 C 
ATOM     20  C   UNL     1      -2.982  15.512  21.987  0.00  0.00    +0.000 C 
ENDBRANCH   5  13
BRANCH   2  21
ATOM     21  C   UNL     1      -4.693  11.134  17.537  0.00  0.00    +0.000 A 
ATOM     22  C   UNL     1      -4.329  11.514  16.239  0.00  0.00    +0.000 A 
ATOM     23  C   UNL     1      -3.194  10.956  15.644  0.00  0.00    +0.000 A 
ATOM     24  C   UNL     1      -2.414  10.036  16.344  0.00  0.00    +0.000 A 
ATOM     25  C   UNL     1      -2.785   9.635  17.622  0.00  0.00    +0.000 A 
ATOM     26  C   UNL     1      -3.943  10.154  18.196  0.00  0.00    +0.000 A 
ENDBRANCH   2  21
TORSDOF 2
ENDMDL
MODEL 9
REMARK VINA RESULT:      -7.4      5.348     10.140
REMARK  Name = 
REMARK  2 active torsions:
REMARK  status: ('A' for Active; 'I' for Inactive)
REMARK    1  A    between atoms: C_2  and  C_3
REMARK    2  A    between atoms: C_11  and  C_12
REMARK                            x       y       z     vdW  Elec       q    Type
REMARK                         _______ _______ _______ _____ _____    ______ ____
ROOT
ATOM      1  O   UNL     1      -1.410  10.080  19.267  0.00  0.00    +0.000 OA
ATOM      2  C   UNL     1      -0.233  10.376  19.469  0.00  0.00    +0.000 C 
ATOM      3  N   UNL     1       0.144  11.611  19.975  0.00  0.00    +0.000 N 
ATOM      4  C   UNL     1       1.466  12.148  20.131  0.00  0.00    +0.000 C 
ATOM      5  C   UNL     1       1.302  13.665  20.136  0.00  0.00    +0.000 C 
ATOM      6  C   UNL     1      -0.114  13.859  20.816  0.00  0.00    +0.000 C 
ATOM      7  C   UNL     1      -0.966  14.909  20.065  0.00  0.00    +0.000 C 
ATOM      8  C   UNL     1      -0.578  16.326  20.436  0.00  0.00    +0.000 C 
ATOM      9  O   UNL     1      -0.797  16.521  21.829  0.00  0.00    +0.000 OA
ATOM     10  C   UNL     1       0.039  15.693  22.635  0.00  0.00    +0.000 C 
ATOM     11  C   UNL     1      -0.148  14.207  22.320  0.00  0.00    +0.000 C 
ATOM     12  C   UNL     1      -0.820  12.479  20.602  0.00  0.00    +0.000 C 
ENDROOT
BRANCH   5  13
ATOM     13  C   UNL     1       2.639  14.164  20.718  0.00  0.00    +0.000 C 
ATOM     14  O   UNL     1       3.203  13.580  21.640  0.00  0.00    +0.000 OA
ATOM     15  N   UNL     1       3.280  15.209  20.038  0.00  0.00    +0.000 N 
ATOM     16  C   UNL     1       4.671  15.556  20.377  0.00  0.00    +0.000 C 
ATOM     17  C   UNL     1       5.456  15.975  19.123  0.00  0.00    +0.000 C 
ATOM     18  O   UNL     1       4.793  17.040  18.423  0.00  0.00    +0.000 OA
ATOM     19  C   UNL     1       3.476  16.642  18.023  0.00  0.00    +0.000 C 
ATOM     20  C   UNL     1       2.619  16.251  19.232  0.00  0.00    +0.000 C 
ENDBRANCH   5  13
BRANCH   2  21
ATOM     21  C   UNL     1       0.817   9.365  19.153  0.00  0.00    +0.000 A 
ATOM     22  C   UNL     1       1.209   8.454  20.141  0.00  0.00    +0.000 A 
ATOM     23  C   UNL     1       2.203   7.511  19.863  0.00  0.00    +0.000 A 
ATOM     24  C   UNL     1       2.794   7.465  18.600  0.00  0.00    +0.000 A 
ATOM     25  C   UNL     1       2.428   8.384  17.624  0.00  0.00    +0.000 A 
ATOM     26  C   UNL     1       1.473   9.354  17.917  0.00  0.00    +0.000 A 
ENDBRANCH   2  21
TORSDOF 2
ENDMDL
