MODEL 1
REMARK VINA RESULT:      -8.1      0.000      0.000
REMARK  Name = 
REMARK  8 active torsions:
REMARK  status: ('A' for Active; 'I' for Inactive)
REMARK    1  A    between atoms: C_1  and  C_2
REMARK    2  A    between atoms: C_4  and  C_5
REMARK    3  A    between atoms: C_5  and  S_6
REMARK    4  A    between atoms: S_6  and  C_9
REMARK    5  A    between atoms: C_9  and  C_10
REMARK    6  A    between atoms: C_9  and  C_11
REMARK    7  A    between atoms: N_13  and  C_14
REMARK    8  A    between atoms: C_14  and  C_15
REMARK                            x       y       z     vdW  Elec       q    Type
REMARK                         _______ _______ _______ _____ _____    ______ ____
ROOT
ATOM      1  C   UNL     1       5.116   6.557  18.017  0.00  0.00    +0.000 C 
ATOM      2  C   UNL     1       3.706   7.086  17.696  0.00  0.00    +0.000 C 
ENDROOT
BRANCH   1   3
ATOM      3  C   UNL     1       5.065   5.090  18.384  0.00  0.00    +0.000 C 
ATOM      4  O   UNL     1       5.830   4.580  19.193  0.00  0.00    +0.000 OA
ATOM      5  N   UNL     1       4.133   4.330  17.706  0.00  0.00    +0.000 N 
ATOM      6  H   UNL     1       3.517   4.720  17.012  0.00  0.00    +0.000 HD
BRANCH   5   7
ATOM      7  C   UNL     1       3.859   2.964  18.074  0.00  0.00    +0.000 C 
BRANCH   7   8
ATOM      8  C   UNL     1       2.947   2.903  19.272  0.00  0.00    +0.000 A 
ATOM      9  C   UNL     1       3.440   2.519  20.528  0.00  0.00    +0.000 A 
ATOM     10  C   UNL     1       2.588   2.452  21.633  0.00  0.00    +0.000 A 
ATOM     11  C   UNL     1       1.236   2.760  21.494  0.00  0.00    +0.000 A 
ATOM     12  C   UNL     1       0.735   3.142  20.252  0.00  0.00    +0.000 A 
ATOM     13  C   UNL     1       1.584   3.207  19.145  0.00  0.00    +0.000 A 
ENDBRANCH   7   8
ENDBRANCH   5   7
ENDBRANCH   1   3
BRANCH   1  14
ATOM     14  S   UNL     1       6.201   6.783  16.589  0.00  0.00    +0.000 S 
ATOM     15  O   UNL     1       7.201   7.741  16.989  0.00  0.00    +0.000 OA
ATOM     16  O   UNL     1       5.350   7.062  15.438  0.00  0.00    +0.000 OA
BRANCH  14  17
ATOM     17  C   UNL     1       7.020   5.219  16.300  0.00  0.00    +0.000 C 
BRANCH  17  21
ATOM     18  C   UNL     1       5.762   3.007  11.940  0.00  0.00    +0.000 C 
ATOM     19  C   UNL     1       6.324   3.766  13.060  0.00  0.00    +0.000 A 
ATOM     20  C   UNL     1       6.036   3.794  14.398  0.00  0.00    +0.000 A 
ATOM     21  C   UNL     1       6.894   4.788  14.905  0.00  0.00    +0.000 A 
ATOM     22  N   UNL     1       7.709   5.275  13.962  0.00  0.00    +0.000 NA
ATOM     23  O   UNL     1       7.321   4.647  12.788  0.00  0.00    +0.000 OA
ENDBRANCH  17  21
ENDBRANCH  14  17
ENDBRANCH   1  14
TORSDOF 6
ENDMDL
MODEL 2
REMARK VINA RESULT:      -7.8      1.812      2.275
REMARK  Name = 
REMARK  8 active torsions:
REMARK  status: ('A' for Active; 'I' for Inactive)
REMARK    1  A    between atoms: C_1  and  C_2
REMARK    2  A    between atoms: C_4  and  C_5
REMARK    3  A    between atoms: C_5  and  S_6
REMARK    4  A    between atoms: S_6  and  C_9
REMARK    5  A    between atoms: C_9  and  C_10
REMARK    6  A    between atoms: C_9  and  C_11
REMARK    7  A    between atoms: N_13  and  C_14
REMARK    8  A    between atoms: C_14  and  C_15
REMARK                            x       y       z     vdW  Elec       q    Type
REMARK                         _______ _______ _______ _____ _____    ______ ____
ROOT
ATOM      1  C   UNL     1       6.644   5.836  18.034  0.00  0.00    +0.000 C 
ATOM      2  C   UNL     1       6.961   7.245  17.500  0.00  0.00    +0.000 C 
ENDROOT
BRANCH   1   3
ATOM      3  C   UNL     1       5.332   5.835  18.788  0.00  0.00    +0.000 C 
ATOM      4  O   UNL     1       5.215   5.377  19.918  0.00  0.00    +0.000 OA
ATOM      5  N   UNL     1       4.241   6.333  18.103  0.00  0.00    +0.000 N 
ATOM      6  H   UNL     1       4.306   6.683  17.162  0.00  0.00    +0.000 HD
BRANCH   5   7
ATOM      7  C   UNL     1       2.974   6.549  18.755  0.00  0.00    +0.000 C 
BRANCH   7   8
ATOM      8  C   UNL     1       2.247   5.246  18.962  0.00  0.00    +0.000 A 
ATOM      9  C   UNL     1       1.742   4.900  20.224  0.00  0.00    +0.000 A 
ATOM     10  C   UNL     1       1.080   3.684  20.414  0.00  0.00    +0.000 A 
ATOM     11  C   UNL     1       0.921   2.801  19.349  0.00  0.00    +0.000 A 
ATOM     12  C   UNL     1       1.418   3.133  18.091  0.00  0.00    +0.000 A 
ATOM     13  C   UNL     1       2.083   4.346  17.898  0.00  0.00    +0.000 A 
ENDBRANCH   7   8
ENDBRANCH   5   7
ENDBRANCH   1   3
BRANCH   1  14
ATOM     14  S   UNL     1       6.551   4.662  16.663  0.00  0.00    +0.000 S 
ATOM     15  O   UNL     1       5.445   3.785  16.956  0.00  0.00    +0.000 OA
ATOM     16  O   UNL     1       7.887   4.107  16.477  0.00  0.00    +0.000 OA
BRANCH  14  17
ATOM     17  C   UNL     1       6.138   5.599  15.196  0.00  0.00    +0.000 C 
BRANCH  17  21
ATOM     18  C   UNL     1       6.002   2.278  11.398  0.00  0.00    +0.000 C 
ATOM     19  C   UNL     1       6.266   3.332  12.380  0.00  0.00    +0.000 A 
ATOM     20  C   UNL     1       5.660   3.676  13.558  0.00  0.00    +0.000 A 
ATOM     21  C   UNL     1       6.360   4.824  13.974  0.00  0.00    +0.000 A 
ATOM     22  N   UNL     1       7.377   5.114  13.154  0.00  0.00    +0.000 NA
ATOM     23  O   UNL     1       7.293   4.185  12.129  0.00  0.00    +0.000 OA
ENDBRANCH  17  21
ENDBRANCH  14  17
ENDBRANCH   1  14
TORSDOF 6
ENDMDL
MODEL 3
REMARK VINA RESULT:      -7.8      1.327      1.569
REMARK  Name = 
REMARK  8 active torsions:
REMARK  status: ('A' for Active; 'I' for Inactive)
REMARK    1  A    between atoms: C_1  and  C_2
REMARK    2  A    between atoms: C_4  and  C_5
REMARK    3  A    between atoms: C_5  and  S_6
REMARK    4  A    between atoms: S_6  and  C_9
REMARK    5  A    between atoms: C_9  and  C_10
REMARK    6  A    between atoms: C_9  and  C_11
REMARK    7  A    between atoms: N_13  and  C_14
REMARK    8  A    between atoms: C_14  and  C_15
REMARK                            x       y       z     vdW  Elec       q    Type
REMARK                         _______ _______ _______ _____ _____    ______ ____
ROOT
ATOM      1  C   UNL     1       5.433   6.463  17.682  0.00  0.00    +0.000 C 
ATOM      2  C   UNL     1       4.951   7.065  16.348  0.00  0.00    +0.000 C 
ENDROOT
BRANCH   1   3
ATOM      3  C   UNL     1       4.758   5.135  17.942  0.00  0.00    +0.000 C 
ATOM      4  O   UNL     1       3.968   4.625  17.157  0.00  0.00    +0.000 OA
ATOM      5  N   UNL     1       5.037   4.542  19.158  0.00  0.00    +0.000 N 
ATOM      6  H   UNL     1       5.656   4.959  19.834  0.00  0.00    +0.000 HD
BRANCH   5   7
ATOM      7  C   UNL     1       4.601   3.204  19.465  0.00  0.00    +0.000 C 
BRANCH   7   8
ATOM      8  C   UNL     1       3.101   3.143  19.591  0.00  0.00    +0.000 A 
ATOM      9  C   UNL     1       2.427   3.957  20.515  0.00  0.00    +0.000 A 
ATOM     10  C   UNL     1       1.037   3.888  20.637  0.00  0.00    +0.000 A 
ATOM     11  C   UNL     1       0.308   3.003  19.845  0.00  0.00    +0.000 A 
ATOM     12  C   UNL     1       0.966   2.190  18.925  0.00  0.00    +0.000 A 
ATOM     13  C   UNL     1       2.356   2.254  18.803  0.00  0.00    +0.000 A 
ENDBRANCH   7   8
ENDBRANCH   5   7
ENDBRANCH   1   3
BRANCH   1  14
ATOM     14  S   UNL     1       7.225   6.230  17.642  0.00  0.00    +0.000 S 
ATOM     15  O   UNL     1       7.659   6.196  19.016  0.00  0.00    +0.000 OA
ATOM     16  O   UNL     1       7.772   7.230  16.733  0.00  0.00    +0.000 OA
BRANCH  14  17
ATOM     17  C   UNL     1       7.529   4.617  16.929  0.00  0.00    +0.000 C 
BRANCH  17  21
ATOM     18  C   UNL     1       5.605   3.577  12.380  0.00  0.00    +0.000 C 
ATOM     19  C   UNL     1       6.325   4.048  13.564  0.00  0.00    +0.000 A 
ATOM     20  C   UNL     1       6.280   3.684  14.883  0.00  0.00    +0.000 A 
ATOM     21  C   UNL     1       7.174   4.574  15.508  0.00  0.00    +0.000 A 
ATOM     22  N   UNL     1       7.787   5.370  14.625  0.00  0.00    +0.000 NA
ATOM     23  O   UNL     1       7.222   5.054  13.399  0.00  0.00    +0.000 OA
ENDBRANCH  17  21
ENDBRANCH  14  17
ENDBRANCH   1  14
TORSDOF 6
ENDMDL
MODEL 4
REMARK VINA RESULT:      -7.7      2.613      4.309
REMARK  Name = 
REMARK  8 active torsions:
REMARK  status: ('A' for Active; 'I' for Inactive)
REMARK    1  A    between atoms: C_1  and  C_2
REMARK    2  A    between atoms: C_4  and  C_5
REMARK    3  A    between atoms: C_5  and  S_6
REMARK    4  A    between atoms: S_6  and  C_9
REMARK    5  A    between atoms: C_9  and  C_10
REMARK    6  A    between atoms: C_9  and  C_11
REMARK    7  A    between atoms: N_13  and  C_14
REMARK    8  A    between atoms: C_14  and  C_15
REMARK                            x       y       z     vdW  Elec       q    Type
REMARK                         _______ _______ _______ _____ _____    ______ ____
ROOT
ATOM      1  C   UNL     1       4.178   4.235  18.462  0.00  0.00    +0.000 C 
ATOM      2  C   UNL     1       4.668   2.864  18.963  0.00  0.00    +0.000 C 
ENDROOT
BRANCH   1   3
ATOM      3  C   UNL     1       3.129   4.800  19.394  0.00  0.00    +0.000 C 
ATOM      4  O   UNL     1       2.461   4.100  20.146  0.00  0.00    +0.000 OA
ATOM      5  N   UNL     1       2.918   6.163  19.313  0.00  0.00    +0.000 N 
ATOM      6  H   UNL     1       3.430   6.753  18.678  0.00  0.00    +0.000 HD
BRANCH   5   7
ATOM      7  C   UNL     1       2.077   6.855  20.256  0.00  0.00    +0.000 C 
BRANCH   7   8
ATOM      8  C   UNL     1       1.678   8.208  19.727  0.00  0.00    +0.000 A 
ATOM      9  C   UNL     1       0.952   9.104  20.527  0.00  0.00    +0.000 A 
ATOM     10  C   UNL     1       0.573  10.353  20.028  0.00  0.00    +0.000 A 
ATOM     11  C   UNL     1       0.908  10.717  18.726  0.00  0.00    +0.000 A 
ATOM     12  C   UNL     1       1.628   9.836  17.922  0.00  0.00    +0.000 A 
ATOM     13  C   UNL     1       2.006   8.586  18.417  0.00  0.00    +0.000 A 
ENDBRANCH   7   8
ENDBRANCH   5   7
ENDBRANCH   1   3
BRANCH   1  14
ATOM     14  S   UNL     1       5.567   5.386  18.351  0.00  0.00    +0.000 S 
ATOM     15  O   UNL     1       5.974   5.659  19.706  0.00  0.00    +0.000 OA
ATOM     16  O   UNL     1       5.154   6.483  17.483  0.00  0.00    +0.000 OA
BRANCH  14  17
ATOM     17  C   UNL     1       6.904   4.518  17.538  0.00  0.00    +0.000 C 
BRANCH  17  21
ATOM     18  C   UNL     1       5.813   3.663  12.685  0.00  0.00    +0.000 C 
ATOM     19  C   UNL     1       6.289   4.107  13.997  0.00  0.00    +0.000 A 
ATOM     20  C   UNL     1       6.091   3.632  15.265  0.00  0.00    +0.000 A 
ATOM     21  C   UNL     1       6.772   4.556  16.080  0.00  0.00    +0.000 A 
ATOM     22  N   UNL     1       7.411   5.484  15.358  0.00  0.00    +0.000 NA
ATOM     23  O   UNL     1       7.076   5.214  14.041  0.00  0.00    +0.000 OA
ENDBRANCH  17  21
ENDBRANCH  14  17
ENDBRANCH   1  14
TORSDOF 6
ENDMDL
MODEL 5
REMARK VINA RESULT:      -7.6      2.780      4.306
REMARK  Name = 
REMARK  8 active torsions:
REMARK  status: ('A' for Active; 'I' for Inactive)
REMARK    1  A    between atoms: C_1  and  C_2
REMARK    2  A    between atoms: C_4  and  C_5
REMARK    3  A    between atoms: C_5  and  S_6
REMARK    4  A    between atoms: S_6  and  C_9
REMARK    5  A    between atoms: C_9  and  C_10
REMARK    6  A    between atoms: C_9  and  C_11
REMARK    7  A    between atoms: N_13  and  C_14
REMARK    8  A    between atoms: C_14  and  C_15
REMARK                            x       y       z     vdW  Elec       q    Type
REMARK                         _______ _______ _______ _____ _____    ______ ____
ROOT
ATOM      1  C   UNL     1       4.169   5.021  17.395  0.00  0.00    +0.000 C 
ATOM      2  C   UNL     1       2.845   4.293  17.692  0.00  0.00    +0.000 C 
ENDROOT
BRANCH   1   3
ATOM      3  C   UNL     1       3.972   6.520  17.429  0.00  0.00    +0.000 C 
ATOM      4  O   UNL     1       4.808   7.311  17.008  0.00  0.00    +0.000 OA
ATOM      5  N   UNL     1       2.807   6.963  18.023  0.00  0.00    +0.000 N 
ATOM      6  H   UNL     1       2.121   6.334  18.407  0.00  0.00    +0.000 HD
BRANCH   5   7
ATOM      7  C   UNL     1       2.412   8.348  17.972  0.00  0.00    +0.000 C 
BRANCH   7   8
ATOM      8  C   UNL     1       1.588   8.717  19.180  0.00  0.00    +0.000 A 
ATOM      9  C   UNL     1       0.691   9.795  19.133  0.00  0.00    +0.000 A 
ATOM     10  C   UNL     1      -0.061  10.140  20.258  0.00  0.00    +0.000 A 
ATOM     11  C   UNL     1       0.079   9.419  21.442  0.00  0.00    +0.000 A 
ATOM     12  C   UNL     1       0.967   8.347  21.501  0.00  0.00    +0.000 A 
ATOM     13  C   UNL     1       1.723   8.001  20.378  0.00  0.00    +0.000 A 
ENDBRANCH   7   8
ENDBRANCH   5   7
ENDBRANCH   1   3
BRANCH   1  14
ATOM     14  S   UNL     1       5.420   4.550  18.612  0.00  0.00    +0.000 S 
ATOM     15  O   UNL     1       5.184   3.160  18.916  0.00  0.00    +0.000 OA
ATOM     16  O   UNL     1       5.381   5.541  19.680  0.00  0.00    +0.000 OA
BRANCH  14  17
ATOM     17  C   UNL     1       7.011   4.675  17.804  0.00  0.00    +0.000 C 
BRANCH  17  21
ATOM     18  C   UNL     1       5.964   3.642  12.976  0.00  0.00    +0.000 C 
ATOM     19  C   UNL     1       6.423   4.139  14.275  0.00  0.00    +0.000 A 
ATOM     20  C   UNL     1       6.233   3.697  15.557  0.00  0.00    +0.000 A 
ATOM     21  C   UNL     1       6.884   4.665  16.345  0.00  0.00    +0.000 A 
ATOM     22  N   UNL     1       7.500   5.588  15.597  0.00  0.00    +0.000 NA
ATOM     23  O   UNL     1       7.178   5.268  14.288  0.00  0.00    +0.000 OA
ENDBRANCH  17  21
ENDBRANCH  14  17
ENDBRANCH   1  14
TORSDOF 6
ENDMDL
MODEL 6
REMARK VINA RESULT:      -7.5      2.616      4.111
REMARK  Name = 
REMARK  8 active torsions:
REMARK  status: ('A' for Active; 'I' for Inactive)
REMARK    1  A    between atoms: C_1  and  C_2
REMARK    2  A    between atoms: C_4  and  C_5
REMARK    3  A    between atoms: C_5  and  S_6
REMARK    4  A    between atoms: S_6  and  C_9
REMARK    5  A    between atoms: C_9  and  C_10
REMARK    6  A    between atoms: C_9  and  C_11
REMARK    7  A    between atoms: N_13  and  C_14
REMARK    8  A    between atoms: C_14  and  C_15
REMARK                            x       y       z     vdW  Elec       q    Type
REMARK                         _______ _______ _______ _____ _____    ______ ____
ROOT
ATOM      1  C   UNL     1       4.859   5.282  18.055  0.00  0.00    +0.000 C 
ATOM      2  C   UNL     1       4.166   4.940  19.387  0.00  0.00    +0.000 C 
ENDROOT
BRANCH   1   3
ATOM      3  C   UNL     1       4.196   6.474  17.401  0.00  0.00    +0.000 C 
ATOM      4  O   UNL     1       4.427   6.812  16.246  0.00  0.00    +0.000 OA
ATOM      5  N   UNL     1       3.344   7.208  18.203  0.00  0.00    +0.000 N 
ATOM      6  H   UNL     1       3.166   6.970  19.164  0.00  0.00    +0.000 HD
BRANCH   5   7
ATOM      7  C   UNL     1       2.519   8.260  17.665  0.00  0.00    +0.000 C 
BRANCH   7   8
ATOM      8  C   UNL     1       1.593   8.809  18.720  0.00  0.00    +0.000 A 
ATOM      9  C   UNL     1       1.619   8.303  20.029  0.00  0.00    +0.000 A 
ATOM     10  C   UNL     1       0.749   8.806  21.000  0.00  0.00    +0.000 A 
ATOM     11  C   UNL     1      -0.157   9.813  20.673  0.00  0.00    +0.000 A 
ATOM     12  C   UNL     1      -0.192  10.322  19.378  0.00  0.00    +0.000 A 
ATOM     13  C   UNL     1       0.673   9.819  18.404  0.00  0.00    +0.000 A 
ENDBRANCH   7   8
ENDBRANCH   5   7
ENDBRANCH   1   3
BRANCH   1  14
ATOM     14  S   UNL     1       6.605   5.648  18.344  0.00  0.00    +0.000 S 
ATOM     15  O   UNL     1       6.866   5.313  19.722  0.00  0.00    +0.000 OA
ATOM     16  O   UNL     1       6.848   7.006  17.870  0.00  0.00    +0.000 OA
BRANCH  14  17
ATOM     17  C   UNL     1       7.553   4.531  17.317  0.00  0.00    +0.000 C 
BRANCH  17  21
ATOM     18  C   UNL     1       5.344   3.731  12.849  0.00  0.00    +0.000 C 
ATOM     19  C   UNL     1       6.138   4.140  14.010  0.00  0.00    +0.000 A 
ATOM     20  C   UNL     1       6.178   3.704  15.307  0.00  0.00    +0.000 A 
ATOM     21  C   UNL     1       7.107   4.564  15.922  0.00  0.00    +0.000 A 
ATOM     22  N   UNL     1       7.659   5.412  15.047  0.00  0.00    +0.000 NA
ATOM     23  O   UNL     1       7.018   5.161  13.843  0.00  0.00    +0.000 OA
ENDBRANCH  17  21
ENDBRANCH  14  17
ENDBRANCH   1  14
TORSDOF 6
ENDMDL
MODEL 7
REMARK VINA RESULT:      -7.5      1.521      1.894
REMARK  Name = 
REMARK  8 active torsions:
REMARK  status: ('A' for Active; 'I' for Inactive)
REMARK    1  A    between atoms: C_1  and  C_2
REMARK    2  A    between atoms: C_4  and  C_5
REMARK    3  A    between atoms: C_5  and  S_6
REMARK    4  A    between atoms: S_6  and  C_9
REMARK    5  A    between atoms: C_9  and  C_10
REMARK    6  A    between atoms: C_9  and  C_11
REMARK    7  A    between atoms: N_13  and  C_14
REMARK    8  A    between atoms: C_14  and  C_15
REMARK                            x       y       z     vdW  Elec       q    Type
REMARK                         _______ _______ _______ _____ _____    ______ ____
ROOT
ATOM      1  C   UNL     1       6.314   4.726  18.094  0.00  0.00    +0.000 C 
ATOM      2  C   UNL     1       6.608   5.643  19.295  0.00  0.00    +0.000 C 
ENDROOT
BRANCH   1   3
ATOM      3  C   UNL     1       4.825   4.625  17.852  0.00  0.00    +0.000 C 
ATOM      4  O   UNL     1       4.308   3.679  17.268  0.00  0.00    +0.000 OA
ATOM      5  N   UNL     1       4.068   5.698  18.279  0.00  0.00    +0.000 N 
ATOM      6  H   UNL     1       4.474   6.502  18.729  0.00  0.00    +0.000 HD
BRANCH   5   7
ATOM      7  C   UNL     1       2.628   5.661  18.267  0.00  0.00    +0.000 C 
BRANCH   7   8
ATOM      8  C   UNL     1       2.108   4.665  19.272  0.00  0.00    +0.000 A 
ATOM      9  C   UNL     1       2.511   4.727  20.615  0.00  0.00    +0.000 A 
ATOM     10  C   UNL     1       2.036   3.794  21.540  0.00  0.00    +0.000 A 
ATOM     11  C   UNL     1       1.161   2.788  21.134  0.00  0.00    +0.000 A 
ATOM     12  C   UNL     1       0.755   2.716  19.803  0.00  0.00    +0.000 A 
ATOM     13  C   UNL     1       1.230   3.646  18.875  0.00  0.00    +0.000 A 
ENDBRANCH   7   8
ENDBRANCH   5   7
ENDBRANCH   1   3
BRANCH   1  14
ATOM     14  S   UNL     1       7.123   5.371  16.611  0.00  0.00    +0.000 S 
ATOM     15  O   UNL     1       8.007   4.331  16.148  0.00  0.00    +0.000 OA
ATOM     16  O   UNL     1       7.661   6.684  16.948  0.00  0.00    +0.000 OA
BRANCH  14  17
ATOM     17  C   UNL     1       5.848   5.601  15.376  0.00  0.00    +0.000 C 
BRANCH  17  21
ATOM     18  C   UNL     1       5.928   2.335  11.528  0.00  0.00    +0.000 C 
ATOM     19  C   UNL     1       6.133   3.379  12.535  0.00  0.00    +0.000 A 
ATOM     20  C   UNL     1       5.473   3.694  13.692  0.00  0.00    +0.000 A 
ATOM     21  C   UNL     1       6.134   4.848  14.153  0.00  0.00    +0.000 A 
ATOM     22  N   UNL     1       7.178   5.169  13.379  0.00  0.00    +0.000 NA
ATOM     23  O   UNL     1       7.153   4.254  12.338  0.00  0.00    +0.000 OA
ENDBRANCH  17  21
ENDBRANCH  14  17
ENDBRANCH   1  14
TORSDOF 6
ENDMDL
MODEL 8
REMARK VINA RESULT:      -7.4      1.787      2.150
REMARK  Name = 
REMARK  8 active torsions:
REMARK  status: ('A' for Active; 'I' for Inactive)
REMARK    1  A    between atoms: C_1  and  C_2
REMARK    2  A    between atoms: C_4  and  C_5
REMARK    3  A    between atoms: C_5  and  S_6
REMARK    4  A    between atoms: S_6  and  C_9
REMARK    5  A    between atoms: C_9  and  C_10
REMARK    6  A    between atoms: C_9  and  C_11
REMARK    7  A    between atoms: N_13  and  C_14
REMARK    8  A    between atoms: C_14  and  C_15
REMARK                            x       y       z     vdW  Elec       q    Type
REMARK                         _______ _______ _______ _____ _____    ______ ____
ROOT
ATOM      1  C   UNL     1       6.781   5.946  17.818  0.00  0.00    +0.000 C 
ATOM      2  C   UNL     1       6.243   7.296  17.308  0.00  0.00    +0.000 C 
ENDROOT
BRANCH   1   3
ATOM      3  C   UNL     1       5.949   5.445  18.978  0.00  0.00    +0.000 C 
ATOM      4  O   UNL     1       6.437   4.898  19.960  0.00  0.00    +0.000 OA
ATOM      5  N   UNL     1       4.581   5.585  18.847  0.00  0.00    +0.000 N 
ATOM      6  H   UNL     1       4.155   5.999  18.035  0.00  0.00    +0.000 HD
BRANCH   5   7
ATOM      7  C   UNL     1       3.685   5.310  19.940  0.00  0.00    +0.000 C 
BRANCH   7   8
ATOM      8  C   UNL     1       2.688   4.245  19.563  0.00  0.00    +0.000 A 
ATOM      9  C   UNL     1       2.955   3.355  18.512  0.00  0.00    +0.000 A 
ATOM     10  C   UNL     1       2.022   2.377  18.157  0.00  0.00    +0.000 A 
ATOM     11  C   UNL     1       0.813   2.282  18.843  0.00  0.00    +0.000 A 
ATOM     12  C   UNL     1       0.536   3.161  19.888  0.00  0.00    +0.000 A 
ATOM     13  C   UNL     1       1.465   4.141  20.243  0.00  0.00    +0.000 A 
ENDBRANCH   7   8
ENDBRANCH   5   7
ENDBRANCH   1   3
BRANCH   1  14
ATOM     14  S   UNL     1       6.751   4.726  16.485  0.00  0.00    +0.000 S 
ATOM     15  O   UNL     1       5.634   3.856  16.758  0.00  0.00    +0.000 OA
ATOM     16  O   UNL     1       8.094   4.168  16.377  0.00  0.00    +0.000 OA
BRANCH  14  17
ATOM     17  C   UNL     1       6.402   5.612  14.970  0.00  0.00    +0.000 C 
BRANCH  17  21
ATOM     18  C   UNL     1       5.650   2.120  11.404  0.00  0.00    +0.000 C 
ATOM     19  C   UNL     1       6.101   3.179  12.309  0.00  0.00    +0.000 A 
ATOM     20  C   UNL     1       5.587   3.688  13.471  0.00  0.00    +0.000 A 
ATOM     21  C   UNL     1       6.468   4.735  13.799  0.00  0.00    +0.000 A 
ATOM     22  N   UNL     1       7.497   4.809  12.946  0.00  0.00    +0.000 NA
ATOM     23  O   UNL     1       7.243   3.841  11.986  0.00  0.00    +0.000 OA
ENDBRANCH  17  21
ENDBRANCH  14  17
ENDBRANCH   1  14
TORSDOF 6
ENDMDL
MODEL 9
REMARK VINA RESULT:      -7.4      1.565      2.038
REMARK  Name = 
REMARK  8 active torsions:
REMARK  status: ('A' for Active; 'I' for Inactive)
REMARK    1  A    between atoms: C_1  and  C_2
REMARK    2  A    between atoms: C_4  and  C_5
REMARK    3  A    between atoms: C_5  and  S_6
REMARK    4  A    between atoms: S_6  and  C_9
REMARK    5  A    between atoms: C_9  and  C_10
REMARK    6  A    between atoms: C_9  and  C_11
REMARK    7  A    between atoms: N_13  and  C_14
REMARK    8  A    between atoms: C_14  and  C_15
REMARK                            x       y       z     vdW  Elec       q    Type
REMARK                         _______ _______ _______ _____ _____    ______ ____
ROOT
ATOM      1  C   UNL     1       5.859   5.581  17.539  0.00  0.00    +0.000 C 
ATOM      2  C   UNL     1       4.571   6.068  16.849  0.00  0.00    +0.000 C 
ENDROOT
BRANCH   1   3
ATOM      3  C   UNL     1       5.531   4.828  18.809  0.00  0.00    +0.000 C 
ATOM      4  O   UNL     1       5.530   5.357  19.914  0.00  0.00    +0.000 OA
ATOM      5  N   UNL     1       5.285   3.477  18.665  0.00  0.00    +0.000 N 
ATOM      6  H   UNL     1       5.315   3.013  17.772  0.00  0.00    +0.000 HD
BRANCH   5   7
ATOM      7  C   UNL     1       4.796   2.677  19.759  0.00  0.00    +0.000 C 
BRANCH   7   8
ATOM      8  C   UNL     1       3.293   2.750  19.848  0.00  0.00    +0.000 A 
ATOM      9  C   UNL     1       2.503   2.693  18.690  0.00  0.00    +0.000 A 
ATOM     10  C   UNL     1       1.111   2.774  18.777  0.00  0.00    +0.000 A 
ATOM     11  C   UNL     1       0.495   2.919  20.018  0.00  0.00    +0.000 A 
ATOM     12  C   UNL     1       1.269   2.977  21.175  0.00  0.00    +0.000 A 
ATOM     13  C   UNL     1       2.661   2.900  21.091  0.00  0.00    +0.000 A 
ENDBRANCH   7   8
ENDBRANCH   5   7
ENDBRANCH   1   3
BRANCH   1  14
ATOM     14  S   UNL     1       6.787   4.503  16.423  0.00  0.00    +0.000 S 
ATOM     15  O   UNL     1       5.891   3.434  16.056  0.00  0.00    +0.000 OA
ATOM     16  O   UNL     1       8.055   4.195  17.073  0.00  0.00    +0.000 OA
BRANCH  14  17
ATOM     17  C   UNL     1       7.142   5.454  14.949  0.00  0.00    +0.000 C 
BRANCH  17  21
ATOM     18  C   UNL     1       5.239   2.429  11.384  0.00  0.00    +0.000 C 
ATOM     19  C   UNL     1       5.995   3.341  12.245  0.00  0.00    +0.000 A 
ATOM     20  C   UNL     1       5.802   3.783  13.526  0.00  0.00    +0.000 A 
ATOM     21  C   UNL     1       6.854   4.696  13.730  0.00  0.00    +0.000 A 
ATOM     22  N   UNL     1       7.682   4.747  12.680  0.00  0.00    +0.000 NA
ATOM     23  O   UNL     1       7.116   3.911  11.730  0.00  0.00    +0.000 OA
ENDBRANCH  17  21
ENDBRANCH  14  17
ENDBRANCH   1  14
TORSDOF 6
ENDMDL
