MODEL 1
REMARK VINA RESULT:      -6.6      0.000      0.000
REMARK  Name = 
REMARK  4 active torsions:
REMARK  status: ('A' for Active; 'I' for Inactive)
REMARK    1  A    between atoms: N_1  and  C_2
REMARK    2  A    between atoms: C_5  and  N_6
REMARK    3  A    between atoms: N_6  and  C_7
REMARK    4  A    between atoms: C_7  and  C_8
REMARK                            x       y       z     vdW  Elec       q    Type
REMARK                         _______ _______ _______ _____ _____    ______ ____
ROOT
ATOM      1  C   UNL     1       7.252   7.362  17.701  0.00  0.00    +0.000 A 
ATOM      2  C   UNL     1       7.895   6.525  18.609  0.00  0.00    +0.000 A 
ATOM      3  C   UNL     1       7.335   5.294  18.972  0.00  0.00    +0.000 A 
ATOM      4  C   UNL     1       6.121   4.861  18.431  0.00  0.00    +0.000 A 
ATOM      5  C   UNL     1       5.546   5.649  17.427  0.00  0.00    +0.000 A 
ATOM      6  C   UNL     1       6.108   6.884  17.064  0.00  0.00    +0.000 A 
ENDROOT
BRANCH   1   7
ATOM      7  N   UNL     1       7.872   8.538  17.267  0.00  0.00    +0.000 N 
ATOM      8  H   UNL     1       7.276   9.359  17.339  0.00  0.00    +0.000 HD
ATOM      9  H   UNL     1       8.300   8.458  16.350  0.00  0.00    +0.000 HD
ENDBRANCH   1   7
BRANCH   4  10
ATOM     10  N   UNL     1       5.546   3.613  18.744  0.00  0.00    +0.000 N 
ATOM     11  H   UNL     1       6.167   2.852  18.474  0.00  0.00    +0.000 HD
BRANCH  10  12
ATOM     12  C   UNL     1       4.198   3.382  18.208  0.00  0.00    +0.000 C 
BRANCH  12  13
ATOM     13  C   UNL     1       3.156   3.292  19.307  0.00  0.00    +0.000 A 
ATOM     14  C   UNL     1       1.842   3.691  19.064  0.00  0.00    +0.000 A 
ATOM     15  C   UNL     1       0.891   3.520  20.067  0.00  0.00    +0.000 A 
ATOM     16  C   UNL     1       1.273   2.959  21.280  0.00  0.00    +0.000 A 
ATOM     17  C   UNL     1       2.599   2.598  21.444  0.00  0.00    +0.000 A 
ATOM     18  N   UNL     1       3.544   2.753  20.492  0.00  0.00    +0.000 NA
ENDBRANCH  12  13
ENDBRANCH  10  12
ENDBRANCH   4  10
TORSDOF 4
ENDMDL
MODEL 2
REMARK VINA RESULT:      -6.5      1.637      5.844
REMARK  Name = 
REMARK  4 active torsions:
REMARK  status: ('A' for Active; 'I' for Inactive)
REMARK    1  A    between atoms: N_1  and  C_2
REMARK    2  A    between atoms: C_5  and  N_6
REMARK    3  A    between atoms: N_6  and  C_7
REMARK    4  A    between atoms: C_7  and  C_8
REMARK                            x       y       z     vdW  Elec       q    Type
REMARK                         _______ _______ _______ _____ _____    ______ ____
ROOT
ATOM      1  C   UNL     1       1.626   3.169  19.617  0.00  0.00    +0.000 A 
ATOM      2  C   UNL     1       2.863   2.774  20.118  0.00  0.00    +0.000 A 
ATOM      3  C   UNL     1       3.995   2.743  19.293  0.00  0.00    +0.000 A 
ATOM      4  C   UNL     1       3.923   3.115  17.948  0.00  0.00    +0.000 A 
ATOM      5  C   UNL     1       2.706   3.631  17.487  0.00  0.00    +0.000 A 
ATOM      6  C   UNL     1       1.572   3.661  18.313  0.00  0.00    +0.000 A 
ENDROOT
BRANCH   1   7
ATOM      7  N   UNL     1       0.528   3.297  20.475  0.00  0.00    +0.000 N 
ATOM      8  H   UNL     1      -0.284   3.718  20.031  0.00  0.00    +0.000 HD
ATOM      9  H   UNL     1       0.753   3.745  21.358  0.00  0.00    +0.000 HD
ENDBRANCH   1   7
BRANCH   4  10
ATOM     10  N   UNL     1       5.047   3.133  17.098  0.00  0.00    +0.000 N 
ATOM     11  H   UNL     1       5.878   2.814  17.593  0.00  0.00    +0.000 HD
BRANCH  10  12
ATOM     12  C   UNL     1       5.315   4.410  16.424  0.00  0.00    +0.000 C 
BRANCH  12  13
ATOM     13  C   UNL     1       6.331   5.248  17.176  0.00  0.00    +0.000 A 
ATOM     14  C   UNL     1       6.576   6.567  16.795  0.00  0.00    +0.000 A 
ATOM     15  C   UNL     1       7.453   7.336  17.556  0.00  0.00    +0.000 A 
ATOM     16  C   UNL     1       8.062   6.772  18.671  0.00  0.00    +0.000 A 
ATOM     17  C   UNL     1       7.773   5.454  18.976  0.00  0.00    +0.000 A 
ATOM     18  N   UNL     1       6.929   4.683  18.258  0.00  0.00    +0.000 NA
ENDBRANCH  12  13
ENDBRANCH  10  12
ENDBRANCH   4  10
TORSDOF 4
ENDMDL
MODEL 3
REMARK VINA RESULT:      -6.4      0.668      1.411
REMARK  Name = 
REMARK  4 active torsions:
REMARK  status: ('A' for Active; 'I' for Inactive)
REMARK    1  A    between atoms: N_1  and  C_2
REMARK    2  A    between atoms: C_5  and  N_6
REMARK    3  A    between atoms: N_6  and  C_7
REMARK    4  A    between atoms: C_7  and  C_8
REMARK                            x       y       z     vdW  Elec       q    Type
REMARK                         _______ _______ _______ _____ _____    ______ ____
ROOT
ATOM      1  C   UNL     1       7.389   7.360  17.630  0.00  0.00    +0.000 A 
ATOM      2  C   UNL     1       6.192   6.993  17.021  0.00  0.00    +0.000 A 
ATOM      3  C   UNL     1       5.573   5.775  17.328  0.00  0.00    +0.000 A 
ATOM      4  C   UNL     1       6.129   4.893  18.260  0.00  0.00    +0.000 A 
ATOM      5  C   UNL     1       7.262   5.326  18.958  0.00  0.00    +0.000 A 
ATOM      6  C   UNL     1       7.883   6.546  18.650  0.00  0.00    +0.000 A 
ENDROOT
BRANCH   1   7
ATOM      7  N   UNL     1       7.941   8.624  17.395  0.00  0.00    +0.000 N 
ATOM      8  H   UNL     1       8.092   9.163  18.244  0.00  0.00    +0.000 HD
ATOM      9  H   UNL     1       7.445   9.158  16.688  0.00  0.00    +0.000 HD
ENDBRANCH   1   7
BRANCH   4  10
ATOM     10  N   UNL     1       5.516   3.677  18.622  0.00  0.00    +0.000 N 
ATOM     11  H   UNL     1       6.168   2.901  18.523  0.00  0.00    +0.000 HD
BRANCH  10  12
ATOM     12  C   UNL     1       4.254   3.371  17.934  0.00  0.00    +0.000 C 
BRANCH  12  13
ATOM     13  C   UNL     1       3.067   3.409  18.877  0.00  0.00    +0.000 A 
ATOM     14  C   UNL     1       1.865   2.800  18.520  0.00  0.00    +0.000 A 
ATOM     15  C   UNL     1       0.820   2.781  19.441  0.00  0.00    +0.000 A 
ATOM     16  C   UNL     1       1.001   3.367  20.688  0.00  0.00    +0.000 A 
ATOM     17  C   UNL     1       2.222   3.958  20.962  0.00  0.00    +0.000 A 
ATOM     18  N   UNL     1       3.252   3.995  20.089  0.00  0.00    +0.000 NA
ENDBRANCH  12  13
ENDBRANCH  10  12
ENDBRANCH   4  10
TORSDOF 4
ENDMDL
MODEL 4
REMARK VINA RESULT:      -6.4      1.380      6.044
REMARK  Name = 
REMARK  4 active torsions:
REMARK  status: ('A' for Active; 'I' for Inactive)
REMARK    1  A    between atoms: N_1  and  C_2
REMARK    2  A    between atoms: C_5  and  N_6
REMARK    3  A    between atoms: N_6  and  C_7
REMARK    4  A    between atoms: C_7  and  C_8
REMARK                            x       y       z     vdW  Elec       q    Type
REMARK                         _______ _______ _______ _____ _____    ______ ____
ROOT
ATOM      1  C   UNL     1       1.654   2.997  19.720  0.00  0.00    +0.000 A 
ATOM      2  C   UNL     1       2.950   2.935  20.225  0.00  0.00    +0.000 A 
ATOM      3  C   UNL     1       4.058   3.052  19.377  0.00  0.00    +0.000 A 
ATOM      4  C   UNL     1       3.902   3.244  18.001  0.00  0.00    +0.000 A 
ATOM      5  C   UNL     1       2.600   3.432  17.522  0.00  0.00    +0.000 A 
ATOM      6  C   UNL     1       1.489   3.314  18.372  0.00  0.00    +0.000 A 
ENDROOT
BRANCH   1   7
ATOM      7  N   UNL     1       0.558   2.986  20.590  0.00  0.00    +0.000 N 
ATOM      8  H   UNL     1      -0.070   2.200  20.438  0.00  0.00    +0.000 HD
ATOM      9  H   UNL     1       0.060   3.869  20.628  0.00  0.00    +0.000 HD
ENDBRANCH   1   7
BRANCH   4  10
ATOM     10  N   UNL     1       4.992   3.404  17.122  0.00  0.00    +0.000 N 
ATOM     11  H   UNL     1       5.864   3.148  17.580  0.00  0.00    +0.000 HD
BRANCH  10  12
ATOM     12  C   UNL     1       5.115   4.727  16.496  0.00  0.00    +0.000 C 
BRANCH  12  13
ATOM     13  C   UNL     1       6.122   5.605  17.213  0.00  0.00    +0.000 A 
ATOM     14  C   UNL     1       6.879   5.091  18.267  0.00  0.00    +0.000 A 
ATOM     15  C   UNL     1       7.852   5.898  18.850  0.00  0.00    +0.000 A 
ATOM     16  C   UNL     1       8.045   7.189  18.373  0.00  0.00    +0.000 A 
ATOM     17  C   UNL     1       7.246   7.626  17.331  0.00  0.00    +0.000 A 
ATOM     18  N   UNL     1       6.293   6.869  16.745  0.00  0.00    +0.000 NA
ENDBRANCH  12  13
ENDBRANCH  10  12
ENDBRANCH   4  10
TORSDOF 4
ENDMDL
MODEL 5
REMARK VINA RESULT:      -6.4      1.732      5.957
REMARK  Name = 
REMARK  4 active torsions:
REMARK  status: ('A' for Active; 'I' for Inactive)
REMARK    1  A    between atoms: N_1  and  C_2
REMARK    2  A    between atoms: C_5  and  N_6
REMARK    3  A    between atoms: N_6  and  C_7
REMARK    4  A    between atoms: C_7  and  C_8
REMARK                            x       y       z     vdW  Elec       q    Type
REMARK                         _______ _______ _______ _____ _____    ______ ____
ROOT
ATOM      1  C   UNL     1       1.551   3.354  19.355  0.00  0.00    +0.000 A 
ATOM      2  C   UNL     1       1.651   4.071  18.166  0.00  0.00    +0.000 A 
ATOM      3  C   UNL     1       2.810   4.006  17.383  0.00  0.00    +0.000 A 
ATOM      4  C   UNL     1       3.899   3.215  17.762  0.00  0.00    +0.000 A 
ATOM      5  C   UNL     1       3.740   2.401  18.891  0.00  0.00    +0.000 A 
ATOM      6  C   UNL     1       2.578   2.468  19.675  0.00  0.00    +0.000 A 
ENDROOT
BRANCH   1   7
ATOM      7  N   UNL     1       0.349   3.344  20.072  0.00  0.00    +0.000 N 
ATOM      8  H   UNL     1       0.293   4.076  20.776  0.00  0.00    +0.000 HD
ATOM      9  H   UNL     1       0.109   2.434  20.451  0.00  0.00    +0.000 HD
ENDBRANCH   1   7
BRANCH   4  10
ATOM     10  N   UNL     1       5.066   3.095  16.982  0.00  0.00    +0.000 N 
ATOM     11  H   UNL     1       5.843   2.754  17.546  0.00  0.00    +0.000 HD
BRANCH  10  12
ATOM     12  C   UNL     1       5.464   4.301  16.244  0.00  0.00    +0.000 C 
BRANCH  12  13
ATOM     13  C   UNL     1       6.405   5.177  17.049  0.00  0.00    +0.000 A 
ATOM     14  C   UNL     1       6.548   6.528  16.736  0.00  0.00    +0.000 A 
ATOM     15  C   UNL     1       7.356   7.324  17.545  0.00  0.00    +0.000 A 
ATOM     16  C   UNL     1       7.997   6.754  18.639  0.00  0.00    +0.000 A 
ATOM     17  C   UNL     1       7.810   5.404  18.875  0.00  0.00    +0.000 A 
ATOM     18  N   UNL     1       7.035   4.606  18.109  0.00  0.00    +0.000 NA
ENDBRANCH  12  13
ENDBRANCH  10  12
ENDBRANCH   4  10
TORSDOF 4
ENDMDL
MODEL 6
REMARK VINA RESULT:      -6.4      0.784      1.489
REMARK  Name = 
REMARK  4 active torsions:
REMARK  status: ('A' for Active; 'I' for Inactive)
REMARK    1  A    between atoms: N_1  and  C_2
REMARK    2  A    between atoms: C_5  and  N_6
REMARK    3  A    between atoms: N_6  and  C_7
REMARK    4  A    between atoms: C_7  and  C_8
REMARK                            x       y       z     vdW  Elec       q    Type
REMARK                         _______ _______ _______ _____ _____    ______ ____
ROOT
ATOM      1  C   UNL     1       7.444   7.444  17.640  0.00  0.00    +0.000 A 
ATOM      2  C   UNL     1       6.241   7.042  17.065  0.00  0.00    +0.000 A 
ATOM      3  C   UNL     1       5.661   5.812  17.399  0.00  0.00    +0.000 A 
ATOM      4  C   UNL     1       6.261   4.954  18.324  0.00  0.00    +0.000 A 
ATOM      5  C   UNL     1       7.401   5.421  18.990  0.00  0.00    +0.000 A 
ATOM      6  C   UNL     1       7.983   6.654  18.654  0.00  0.00    +0.000 A 
ENDROOT
BRANCH   1   7
ATOM      7  N   UNL     1       7.957   8.719  17.378  0.00  0.00    +0.000 N 
ATOM      8  H   UNL     1       8.609   9.045  18.088  0.00  0.00    +0.000 HD
ATOM      9  H   UNL     1       7.244   9.410  17.171  0.00  0.00    +0.000 HD
ENDBRANCH   1   7
BRANCH   4  10
ATOM     10  N   UNL     1       5.688   3.726  18.714  0.00  0.00    +0.000 N 
ATOM     11  H   UNL     1       6.333   2.957  18.542  0.00  0.00    +0.000 HD
BRANCH  10  12
ATOM     12  C   UNL     1       4.373   3.426  18.133  0.00  0.00    +0.000 C 
BRANCH  12  13
ATOM     13  C   UNL     1       3.263   3.505  19.164  0.00  0.00    +0.000 A 
ATOM     14  C   UNL     1       2.874   4.738  19.685  0.00  0.00    +0.000 A 
ATOM     15  C   UNL     1       1.797   4.785  20.567  0.00  0.00    +0.000 A 
ATOM     16  C   UNL     1       1.142   3.608  20.906  0.00  0.00    +0.000 A 
ATOM     17  C   UNL     1       1.596   2.424  20.353  0.00  0.00    +0.000 A 
ATOM     18  N   UNL     1       2.638   2.345  19.496  0.00  0.00    +0.000 NA
ENDBRANCH  12  13
ENDBRANCH  10  12
ENDBRANCH   4  10
TORSDOF 4
ENDMDL
MODEL 7
REMARK VINA RESULT:      -6.4      1.960      2.461
REMARK  Name = 
REMARK  4 active torsions:
REMARK  status: ('A' for Active; 'I' for Inactive)
REMARK    1  A    between atoms: N_1  and  C_2
REMARK    2  A    between atoms: C_5  and  N_6
REMARK    3  A    between atoms: N_6  and  C_7
REMARK    4  A    between atoms: C_7  and  C_8
REMARK                            x       y       z     vdW  Elec       q    Type
REMARK                         _______ _______ _______ _____ _____    ______ ____
ROOT
ATOM      1  C   UNL     1       6.786   5.180  15.646  0.00  0.00    +0.000 A 
ATOM      2  C   UNL     1       5.571   5.849  15.766  0.00  0.00    +0.000 A 
ATOM      3  C   UNL     1       4.907   5.918  16.996  0.00  0.00    +0.000 A 
ATOM      4  C   UNL     1       5.442   5.326  18.144  0.00  0.00    +0.000 A 
ATOM      5  C   UNL     1       6.721   4.766  18.042  0.00  0.00    +0.000 A 
ATOM      6  C   UNL     1       7.387   4.697  16.808  0.00  0.00    +0.000 A 
ENDROOT
BRANCH   1   7
ATOM      7  N   UNL     1       7.490   5.210  14.438  0.00  0.00    +0.000 N 
ATOM      8  H   UNL     1       7.046   5.785  13.726  0.00  0.00    +0.000 HD
ATOM      9  H   UNL     1       7.733   4.290  14.085  0.00  0.00    +0.000 HD
ENDBRANCH   1   7
BRANCH   4  10
ATOM     10  N   UNL     1       4.821   5.406  19.407  0.00  0.00    +0.000 N 
ATOM     11  H   UNL     1       4.870   4.511  19.890  0.00  0.00    +0.000 HD
BRANCH  10  12
ATOM     12  C   UNL     1       3.441   5.908  19.406  0.00  0.00    +0.000 C 
BRANCH  12  13
ATOM     13  C   UNL     1       2.426   4.787  19.524  0.00  0.00    +0.000 A 
ATOM     14  C   UNL     1       1.893   4.199  18.377  0.00  0.00    +0.000 A 
ATOM     15  C   UNL     1       1.027   3.117  18.518  0.00  0.00    +0.000 A 
ATOM     16  C   UNL     1       0.716   2.653  19.790  0.00  0.00    +0.000 A 
ATOM     17  C   UNL     1       1.281   3.298  20.876  0.00  0.00    +0.000 A 
ATOM     18  N   UNL     1       2.122   4.350  20.774  0.00  0.00    +0.000 NA
ENDBRANCH  12  13
ENDBRANCH  10  12
ENDBRANCH   4  10
TORSDOF 4
ENDMDL
MODEL 8
REMARK VINA RESULT:      -6.4      1.040      1.171
REMARK  Name = 
REMARK  4 active torsions:
REMARK  status: ('A' for Active; 'I' for Inactive)
REMARK    1  A    between atoms: N_1  and  C_2
REMARK    2  A    between atoms: C_5  and  N_6
REMARK    3  A    between atoms: N_6  and  C_7
REMARK    4  A    between atoms: C_7  and  C_8
REMARK                            x       y       z     vdW  Elec       q    Type
REMARK                         _______ _______ _______ _____ _____    ______ ____
ROOT
ATOM      1  C   UNL     1       6.658   6.612  17.149  0.00  0.00    +0.000 A 
ATOM      2  C   UNL     1       6.784   5.782  18.260  0.00  0.00    +0.000 A 
ATOM      3  C   UNL     1       6.065   4.583  18.347  0.00  0.00    +0.000 A 
ATOM      4  C   UNL     1       5.208   4.175  17.321  0.00  0.00    +0.000 A 
ATOM      5  C   UNL     1       5.185   4.951  16.155  0.00  0.00    +0.000 A 
ATOM      6  C   UNL     1       5.904   6.153  16.069  0.00  0.00    +0.000 A 
ENDROOT
BRANCH   1   7
ATOM      7  N   UNL     1       7.460   7.752  17.027  0.00  0.00    +0.000 N 
ATOM      8  H   UNL     1       7.511   8.302  17.881  0.00  0.00    +0.000 HD
ATOM      9  H   UNL     1       7.234   8.323  16.219  0.00  0.00    +0.000 HD
ENDBRANCH   1   7
BRANCH   4  10
ATOM     10  N   UNL     1       4.498   2.958  17.356  0.00  0.00    +0.000 N 
ATOM     11  H   UNL     1       4.755   2.369  16.566  0.00  0.00    +0.000 HD
BRANCH  10  12
ATOM     12  C   UNL     1       3.037   3.077  17.447  0.00  0.00    +0.000 C 
BRANCH  12  13
ATOM     13  C   UNL     1       2.566   3.224  18.882  0.00  0.00    +0.000 A 
ATOM     14  C   UNL     1       1.432   3.981  19.176  0.00  0.00    +0.000 A 
ATOM     15  C   UNL     1       0.979   4.029  20.492  0.00  0.00    +0.000 A 
ATOM     16  C   UNL     1       1.664   3.326  21.475  0.00  0.00    +0.000 A 
ATOM     17  C   UNL     1       2.785   2.606  21.102  0.00  0.00    +0.000 A 
ATOM     18  N   UNL     1       3.251   2.541  19.836  0.00  0.00    +0.000 NA
ENDBRANCH  12  13
ENDBRANCH  10  12
ENDBRANCH   4  10
TORSDOF 4
ENDMDL
MODEL 9
REMARK VINA RESULT:      -6.3      2.036      2.631
REMARK  Name = 
REMARK  4 active torsions:
REMARK  status: ('A' for Active; 'I' for Inactive)
REMARK    1  A    between atoms: N_1  and  C_2
REMARK    2  A    between atoms: C_5  and  N_6
REMARK    3  A    between atoms: N_6  and  C_7
REMARK    4  A    between atoms: C_7  and  C_8
REMARK                            x       y       z     vdW  Elec       q    Type
REMARK                         _______ _______ _______ _____ _____    ______ ____
ROOT
ATOM      1  C   UNL     1       6.741   5.276  15.947  0.00  0.00    +0.000 A 
ATOM      2  C   UNL     1       5.568   6.026  15.978  0.00  0.00    +0.000 A 
ATOM      3  C   UNL     1       4.842   6.175  17.166  0.00  0.00    +0.000 A 
ATOM      4  C   UNL     1       5.273   5.586  18.359  0.00  0.00    +0.000 A 
ATOM      5  C   UNL     1       6.516   4.942  18.346  0.00  0.00    +0.000 A 
ATOM      6  C   UNL     1       7.243   4.793  17.154  0.00  0.00    +0.000 A 
ENDROOT
BRANCH   1   7
ATOM      7  N   UNL     1       7.512   5.224  14.780  0.00  0.00    +0.000 N 
ATOM      8  H   UNL     1       7.764   4.278  14.506  0.00  0.00    +0.000 HD
ATOM      9  H   UNL     1       8.316   5.843  14.797  0.00  0.00    +0.000 HD
ENDBRANCH   1   7
BRANCH   4  10
ATOM     10  N   UNL     1       4.589   5.745  19.581  0.00  0.00    +0.000 N 
ATOM     11  H   UNL     1       4.764   4.953  20.197  0.00  0.00    +0.000 HD
BRANCH  10  12
ATOM     12  C   UNL     1       3.146   5.998  19.475  0.00  0.00    +0.000 C 
BRANCH  12  13
ATOM     13  C   UNL     1       2.338   4.715  19.524  0.00  0.00    +0.000 A 
ATOM     14  C   UNL     1       1.973   4.160  20.750  0.00  0.00    +0.000 A 
ATOM     15  C   UNL     1       1.162   3.028  20.761  0.00  0.00    +0.000 A 
ATOM     16  C   UNL     1       0.739   2.481  19.556  0.00  0.00    +0.000 A 
ATOM     17  C   UNL     1       1.153   3.086  18.382  0.00  0.00    +0.000 A 
ATOM     18  N   UNL     1       1.941   4.183  18.338  0.00  0.00    +0.000 NA
ENDBRANCH  12  13
ENDBRANCH  10  12
ENDBRANCH   4  10
TORSDOF 4
ENDMDL
