MODEL 1
REMARK VINA RESULT:      -6.2      0.000      0.000
REMARK  Name = 
REMARK  3 active torsions:
REMARK  status: ('A' for Active; 'I' for Inactive)
REMARK    1  A    between atoms: N_1  and  C_2
REMARK    2  A    between atoms: C_6  and  O_7
REMARK    3  A    between atoms: C_10  and  O_11
REMARK                            x       y       z     vdW  Elec       q    Type
REMARK                         _______ _______ _______ _____ _____    ______ ____
ROOT
ATOM      1  C   UNL     1       4.825   4.079  17.047  0.00  0.00    +0.000 C 
ATOM      2  C   UNL     1       5.442   4.819  18.226  0.00  0.00    +0.000 C 
ATOM      3  C   UNL     1       4.353   5.578  18.995  0.00  0.00    +0.000 C 
ATOM      4  C   UNL     1       3.129   4.731  19.296  0.00  0.00    +0.000 A 
ATOM      5  C   UNL     1       2.168   5.182  20.236  0.00  0.00    +0.000 A 
ATOM      6  C   UNL     1       1.066   4.379  20.543  0.00  0.00    +0.000 A 
ATOM      7  C   UNL     1       0.899   3.138  19.935  0.00  0.00    +0.000 A 
ATOM      8  C   UNL     1       1.823   2.684  18.990  0.00  0.00    +0.000 A 
ATOM      9  C   UNL     1       2.933   3.480  18.649  0.00  0.00    +0.000 A 
ATOM     10  C   UNL     1       3.889   2.980  17.585  0.00  0.00    +0.000 C 
ENDROOT
BRANCH   1  11
ATOM     11  N   UNL     1       5.862   3.476  16.210  0.00  0.00    +0.000 NA
ATOM     12  H   UNL     1       5.920   2.452  16.419  0.00  0.00    +0.000 HD
ATOM     13  H   UNL     1       6.789   3.896  16.449  0.00  0.00    +0.000 HD
ENDBRANCH   1  11
BRANCH   5  14
ATOM     14  O   UNL     1       2.280   6.372  20.866  0.00  0.00    +0.000 OA
ATOM     15  H   UNL     1       3.026   6.622  21.428  0.00  0.00    +0.000 HD
ENDBRANCH   5  14
BRANCH   8  16
ATOM     16  O   UNL     1       1.642   1.486  18.393  0.00  0.00    +0.000 OA
ATOM     17  H   UNL     1       1.186   0.753  18.830  0.00  0.00    +0.000 HD
ENDBRANCH   8  16
TORSDOF 3
ENDMDL
MODEL 2
REMARK VINA RESULT:      -6.1      3.172      4.869
REMARK  Name = 
REMARK  3 active torsions:
REMARK  status: ('A' for Active; 'I' for Inactive)
REMARK    1  A    between atoms: N_1  and  C_2
REMARK    2  A    between atoms: C_6  and  O_7
REMARK    3  A    between atoms: C_10  and  O_11
REMARK                            x       y       z     vdW  Elec       q    Type
REMARK                         _______ _______ _______ _____ _____    ______ ____
ROOT
ATOM      1  C   UNL     1       3.682   3.548  17.642  0.00  0.00    +0.000 C 
ATOM      2  C   UNL     1       3.703   3.820  19.141  0.00  0.00    +0.000 C 
ATOM      3  C   UNL     1       5.141   4.090  19.602  0.00  0.00    +0.000 C 
ATOM      4  C   UNL     1       5.877   5.087  18.725  0.00  0.00    +0.000 A 
ATOM      5  C   UNL     1       7.095   5.661  19.170  0.00  0.00    +0.000 A 
ATOM      6  C   UNL     1       7.746   6.611  18.379  0.00  0.00    +0.000 A 
ATOM      7  C   UNL     1       7.213   7.003  17.154  0.00  0.00    +0.000 A 
ATOM      8  C   UNL     1       6.024   6.435  16.687  0.00  0.00    +0.000 A 
ATOM      9  C   UNL     1       5.357   5.462  17.456  0.00  0.00    +0.000 A 
ATOM     10  C   UNL     1       4.098   4.830  16.898  0.00  0.00    +0.000 C 
ENDROOT
BRANCH   1  11
ATOM     11  N   UNL     1       2.349   3.135  17.206  0.00  0.00    +0.000 NA
ATOM     12  H   UNL     1       1.907   3.916  16.668  0.00  0.00    +0.000 HD
ATOM     13  H   UNL     1       1.749   2.956  18.044  0.00  0.00    +0.000 HD
ENDBRANCH   1  11
BRANCH   5  14
ATOM     14  O   UNL     1       7.658   5.329  20.353  0.00  0.00    +0.000 OA
ATOM     15  H   UNL     1       8.354   5.840  20.786  0.00  0.00    +0.000 HD
ENDBRANCH   5  14
BRANCH   8  16
ATOM     16  O   UNL     1       5.525   6.809  15.489  0.00  0.00    +0.000 OA
ATOM     17  H   UNL     1       5.571   7.721  15.171  0.00  0.00    +0.000 HD
ENDBRANCH   8  16
TORSDOF 3
ENDMDL
MODEL 3
REMARK VINA RESULT:      -6.0      0.957      3.022
REMARK  Name = 
REMARK  3 active torsions:
REMARK  status: ('A' for Active; 'I' for Inactive)
REMARK    1  A    between atoms: N_1  and  C_2
REMARK    2  A    between atoms: C_6  and  O_7
REMARK    3  A    between atoms: C_10  and  O_11
REMARK                            x       y       z     vdW  Elec       q    Type
REMARK                         _______ _______ _______ _____ _____    ______ ____
ROOT
ATOM      1  C   UNL     1       5.100   5.347  17.894  0.00  0.00    +0.000 C 
ATOM      2  C   UNL     1       4.495   4.539  16.753  0.00  0.00    +0.000 C 
ATOM      3  C   UNL     1       3.751   3.321  17.313  0.00  0.00    +0.000 C 
ATOM      4  C   UNL     1       2.822   3.661  18.465  0.00  0.00    +0.000 A 
ATOM      5  C   UNL     1       1.855   2.718  18.900  0.00  0.00    +0.000 A 
ATOM      6  C   UNL     1       0.974   3.052  19.930  0.00  0.00    +0.000 A 
ATOM      7  C   UNL     1       1.031   4.302  20.539  0.00  0.00    +0.000 A 
ATOM      8  C   UNL     1       1.989   5.239  20.141  0.00  0.00    +0.000 A 
ATOM      9  C   UNL     1       2.902   4.922  19.116  0.00  0.00    +0.000 A 
ATOM     10  C   UNL     1       3.959   5.941  18.742  0.00  0.00    +0.000 C 
ENDROOT
BRANCH   1  11
ATOM     11  N   UNL     1       5.944   6.424  17.381  0.00  0.00    +0.000 NA
ATOM     12  H   UNL     1       6.063   7.151  18.124  0.00  0.00    +0.000 HD
ATOM     13  H   UNL     1       5.468   6.883  16.570  0.00  0.00    +0.000 HD
ENDBRANCH   1  11
BRANCH   5  14
ATOM     14  O   UNL     1       1.744   1.492  18.342  0.00  0.00    +0.000 OA
ATOM     15  H   UNL     1       0.964   1.183  17.862  0.00  0.00    +0.000 HD
ENDBRANCH   5  14
BRANCH   8  16
ATOM     16  O   UNL     1       2.048   6.443  20.750  0.00  0.00    +0.000 OA
ATOM     17  H   UNL     1       2.453   7.215  20.332  0.00  0.00    +0.000 HD
ENDBRANCH   8  16
TORSDOF 3
ENDMDL
MODEL 4
REMARK VINA RESULT:      -6.0      2.624      4.143
REMARK  Name = 
REMARK  3 active torsions:
REMARK  status: ('A' for Active; 'I' for Inactive)
REMARK    1  A    between atoms: N_1  and  C_2
REMARK    2  A    between atoms: C_6  and  O_7
REMARK    3  A    between atoms: C_10  and  O_11
REMARK                            x       y       z     vdW  Elec       q    Type
REMARK                         _______ _______ _______ _____ _____    ______ ____
ROOT
ATOM      1  C   UNL     1       2.527   2.842  18.613  0.00  0.00    +0.000 C 
ATOM      2  C   UNL     1       1.487   3.908  18.291  0.00  0.00    +0.000 C 
ATOM      3  C   UNL     1       2.126   5.300  18.366  0.00  0.00    +0.000 C 
ATOM      4  C   UNL     1       3.445   5.397  17.620  0.00  0.00    +0.000 A 
ATOM      5  C   UNL     1       4.014   6.667  17.347  0.00  0.00    +0.000 A 
ATOM      6  C   UNL     1       5.205   6.754  16.623  0.00  0.00    +0.000 A 
ATOM      7  C   UNL     1       5.844   5.606  16.163  0.00  0.00    +0.000 A 
ATOM      8  C   UNL     1       5.312   4.343  16.438  0.00  0.00    +0.000 A 
ATOM      9  C   UNL     1       4.121   4.226  17.182  0.00  0.00    +0.000 A 
ATOM     10  C   UNL     1       3.598   2.841  17.506  0.00  0.00    +0.000 C 
ENDROOT
BRANCH   1  11
ATOM     11  N   UNL     1       1.909   1.520  18.701  0.00  0.00    +0.000 NA
ATOM     12  H   UNL     1       2.176   1.076  19.610  0.00  0.00    +0.000 HD
ATOM     13  H   UNL     1       2.280   0.911  17.936  0.00  0.00    +0.000 HD
ENDBRANCH   1  11
BRANCH   5  14
ATOM     14  O   UNL     1       3.437   7.819  17.758  0.00  0.00    +0.000 OA
ATOM     15  H   UNL     1       3.894   8.669  17.805  0.00  0.00    +0.000 HD
ENDBRANCH   5  14
BRANCH   8  16
ATOM     16  O   UNL     1       5.948   3.234  16.003  0.00  0.00    +0.000 OA
ATOM     17  H   UNL     1       6.424   2.642  16.602  0.00  0.00    +0.000 HD
ENDBRANCH   8  16
TORSDOF 3
ENDMDL
MODEL 5
REMARK VINA RESULT:      -6.0      2.525      3.883
REMARK  Name = 
REMARK  3 active torsions:
REMARK  status: ('A' for Active; 'I' for Inactive)
REMARK    1  A    between atoms: N_1  and  C_2
REMARK    2  A    between atoms: C_6  and  O_7
REMARK    3  A    between atoms: C_10  and  O_11
REMARK                            x       y       z     vdW  Elec       q    Type
REMARK                         _______ _______ _______ _____ _____    ______ ____
ROOT
ATOM      1  C   UNL     1       2.255   3.424  21.196  0.00  0.00    +0.000 C 
ATOM      2  C   UNL     1       1.371   4.585  20.760  0.00  0.00    +0.000 C 
ATOM      3  C   UNL     1       2.199   5.604  19.968  0.00  0.00    +0.000 C 
ATOM      4  C   UNL     1       3.060   4.971  18.889  0.00  0.00    +0.000 A 
ATOM      5  C   UNL     1       3.655   5.781  17.889  0.00  0.00    +0.000 A 
ATOM      6  C   UNL     1       4.409   5.189  16.873  0.00  0.00    +0.000 A 
ATOM      7  C   UNL     1       4.586   3.809  16.830  0.00  0.00    +0.000 A 
ATOM      8  C   UNL     1       4.026   2.994  17.817  0.00  0.00    +0.000 A 
ATOM      9  C   UNL     1       3.275   3.566  18.863  0.00  0.00    +0.000 A 
ATOM     10  C   UNL     1       2.723   2.659  19.944  0.00  0.00    +0.000 C 
ENDROOT
BRANCH   1  11
ATOM     11  N   UNL     1       1.528   2.518  22.083  0.00  0.00    +0.000 NA
ATOM     12  H   UNL     1       0.622   2.963  22.360  0.00  0.00    +0.000 HD
ATOM     13  H   UNL     1       2.081   2.370  22.959  0.00  0.00    +0.000 HD
ENDBRANCH   1  11
BRANCH   5  14
ATOM     14  O   UNL     1       3.512   7.125  17.872  0.00  0.00    +0.000 OA
ATOM     15  H   UNL     1       4.248   7.749  17.813  0.00  0.00    +0.000 HD
ENDBRANCH   5  14
BRANCH   8  16
ATOM     16  O   UNL     1       4.218   1.658  17.776  0.00  0.00    +0.000 OA
ATOM     17  H   UNL     1       4.031   1.132  16.986  0.00  0.00    +0.000 HD
ENDBRANCH   8  16
TORSDOF 3
ENDMDL
MODEL 6
REMARK VINA RESULT:      -5.9      2.677      4.738
REMARK  Name = 
REMARK  3 active torsions:
REMARK  status: ('A' for Active; 'I' for Inactive)
REMARK    1  A    between atoms: N_1  and  C_2
REMARK    2  A    between atoms: C_6  and  O_7
REMARK    3  A    between atoms: C_10  and  O_11
REMARK                            x       y       z     vdW  Elec       q    Type
REMARK                         _______ _______ _______ _____ _____    ______ ____
ROOT
ATOM      1  C   UNL     1       1.509   3.249  18.823  0.00  0.00    +0.000 C 
ATOM      2  C   UNL     1       2.705   2.318  18.972  0.00  0.00    +0.000 C 
ATOM      3  C   UNL     1       3.656   2.495  17.781  0.00  0.00    +0.000 C 
ATOM      4  C   UNL     1       3.967   3.948  17.471  0.00  0.00    +0.000 A 
ATOM      5  C   UNL     1       5.039   4.274  16.602  0.00  0.00    +0.000 A 
ATOM      6  C   UNL     1       5.350   5.614  16.354  0.00  0.00    +0.000 A 
ATOM      7  C   UNL     1       4.618   6.636  16.951  0.00  0.00    +0.000 A 
ATOM      8  C   UNL     1       3.544   6.337  17.794  0.00  0.00    +0.000 A 
ATOM      9  C   UNL     1       3.198   4.996  18.047  0.00  0.00    +0.000 A 
ATOM     10  C   UNL     1       1.998   4.706  18.926  0.00  0.00    +0.000 C 
ENDROOT
BRANCH   1  11
ATOM     11  N   UNL     1       0.514   2.990  19.862  0.00  0.00    +0.000 NA
ATOM     12  H   UNL     1       1.004   2.732  20.750  0.00  0.00    +0.000 HD
ATOM     13  H   UNL     1      -0.075   2.172  19.583  0.00  0.00    +0.000 HD
ENDBRANCH   1  11
BRANCH   5  14
ATOM     14  O   UNL     1       5.793   3.327  16.000  0.00  0.00    +0.000 OA
ATOM     15  H   UNL     1       6.628   3.504  15.547  0.00  0.00    +0.000 HD
ENDBRANCH   5  14
BRANCH   8  16
ATOM     16  O   UNL     1       2.828   7.337  18.354  0.00  0.00    +0.000 OA
ATOM     17  H   UNL     1       2.751   7.444  19.312  0.00  0.00    +0.000 HD
ENDBRANCH   8  16
TORSDOF 3
ENDMDL
MODEL 7
REMARK VINA RESULT:      -5.9      3.294      5.134
REMARK  Name = 
REMARK  3 active torsions:
REMARK  status: ('A' for Active; 'I' for Inactive)
REMARK    1  A    between atoms: N_1  and  C_2
REMARK    2  A    between atoms: C_6  and  O_7
REMARK    3  A    between atoms: C_10  and  O_11
REMARK                            x       y       z     vdW  Elec       q    Type
REMARK                         _______ _______ _______ _____ _____    ______ ____
ROOT
ATOM      1  C   UNL     1       3.833   3.640  19.023  0.00  0.00    +0.000 C 
ATOM      2  C   UNL     1       3.854   3.362  17.525  0.00  0.00    +0.000 C 
ATOM      3  C   UNL     1       4.202   4.645  16.760  0.00  0.00    +0.000 C 
ATOM      4  C   UNL     1       5.407   5.375  17.328  0.00  0.00    +0.000 A 
ATOM      5  C   UNL     1       6.032   6.404  16.578  0.00  0.00    +0.000 A 
ATOM      6  C   UNL     1       7.166   7.042  17.084  0.00  0.00    +0.000 A 
ATOM      7  C   UNL     1       7.694   6.680  18.321  0.00  0.00    +0.000 A 
ATOM      8  C   UNL     1       7.082   5.684  19.086  0.00  0.00    +0.000 A 
ATOM      9  C   UNL     1       5.927   5.036  18.607  0.00  0.00    +0.000 A 
ATOM     10  C   UNL     1       5.259   3.995  19.483  0.00  0.00    +0.000 C 
ENDROOT
BRANCH   1  11
ATOM     11  N   UNL     1       3.352   2.475  19.763  0.00  0.00    +0.000 NA
ATOM     12  H   UNL     1       3.988   1.665  19.579  0.00  0.00    +0.000 HD
ATOM     13  H   UNL     1       2.401   2.211  19.416  0.00  0.00    +0.000 HD
ENDBRANCH   1  11
BRANCH   5  14
ATOM     14  O   UNL     1       5.573   6.793  15.368  0.00  0.00    +0.000 OA
ATOM     15  H   UNL     1       6.124   7.188  14.679  0.00  0.00    +0.000 HD
ENDBRANCH   5  14
BRANCH   8  16
ATOM     16  O   UNL     1       7.591   5.353  20.292  0.00  0.00    +0.000 OA
ATOM     17  H   UNL     1       7.114   4.792  20.919  0.00  0.00    +0.000 HD
ENDBRANCH   8  16
TORSDOF 3
ENDMDL
MODEL 8
REMARK VINA RESULT:      -5.9      2.808      3.852
REMARK  Name = 
REMARK  3 active torsions:
REMARK  status: ('A' for Active; 'I' for Inactive)
REMARK    1  A    between atoms: N_1  and  C_2
REMARK    2  A    between atoms: C_6  and  O_7
REMARK    3  A    between atoms: C_10  and  O_11
REMARK                            x       y       z     vdW  Elec       q    Type
REMARK                         _______ _______ _______ _____ _____    ______ ____
ROOT
ATOM      1  C   UNL     1       2.315   6.866  20.246  0.00  0.00    +0.000 C 
ATOM      2  C   UNL     1       2.433   7.226  18.771  0.00  0.00    +0.000 C 
ATOM      3  C   UNL     1       3.220   6.139  18.029  0.00  0.00    +0.000 C 
ATOM      4  C   UNL     1       2.744   4.732  18.343  0.00  0.00    +0.000 A 
ATOM      5  C   UNL     1       3.161   3.644  17.534  0.00  0.00    +0.000 A 
ATOM      6  C   UNL     1       2.685   2.358  17.800  0.00  0.00    +0.000 A 
ATOM      7  C   UNL     1       1.803   2.129  18.853  0.00  0.00    +0.000 A 
ATOM      8  C   UNL     1       1.396   3.183  19.675  0.00  0.00    +0.000 A 
ATOM      9  C   UNL     1       1.874   4.487  19.440  0.00  0.00    +0.000 A 
ATOM     10  C   UNL     1       1.452   5.598  20.380  0.00  0.00    +0.000 C 
ENDROOT
BRANCH   1  11
ATOM     11  N   UNL     1       1.706   7.958  21.003  0.00  0.00    +0.000 NA
ATOM     12  H   UNL     1       0.711   7.716  21.215  0.00  0.00    +0.000 HD
ATOM     13  H   UNL     1       1.698   8.825  20.418  0.00  0.00    +0.000 HD
ENDBRANCH   1  11
BRANCH   5  14
ATOM     14  O   UNL     1       4.007   3.804  16.492  0.00  0.00    +0.000 OA
ATOM     15  H   UNL     1       4.485   4.623  16.301  0.00  0.00    +0.000 HD
ENDBRANCH   5  14
BRANCH   8  16
ATOM     16  O   UNL     1       0.554   2.947  20.705  0.00  0.00    +0.000 OA
ATOM     17  H   UNL     1      -0.040   2.184  20.724  0.00  0.00    +0.000 HD
ENDBRANCH   8  16
TORSDOF 3
ENDMDL
MODEL 9
REMARK VINA RESULT:      -5.8      2.800      4.513
REMARK  Name = 
REMARK  3 active torsions:
REMARK  status: ('A' for Active; 'I' for Inactive)
REMARK    1  A    between atoms: N_1  and  C_2
REMARK    2  A    between atoms: C_6  and  O_7
REMARK    3  A    between atoms: C_10  and  O_11
REMARK                            x       y       z     vdW  Elec       q    Type
REMARK                         _______ _______ _______ _____ _____    ______ ____
ROOT
ATOM      1  C   UNL     1       2.645   3.788  18.077  0.00  0.00    +0.000 C 
ATOM      2  C   UNL     1       2.828   4.978  19.009  0.00  0.00    +0.000 C 
ATOM      3  C   UNL     1       4.254   4.987  19.572  0.00  0.00    +0.000 C 
ATOM      4  C   UNL     1       5.321   4.793  18.509  0.00  0.00    +0.000 A 
ATOM      5  C   UNL     1       6.681   5.062  18.811  0.00  0.00    +0.000 A 
ATOM      6  C   UNL     1       7.653   4.925  17.817  0.00  0.00    +0.000 A 
ATOM      7  C   UNL     1       7.304   4.526  16.530  0.00  0.00    +0.000 A 
ATOM      8  C   UNL     1       5.973   4.235  16.217  0.00  0.00    +0.000 A 
ATOM      9  C   UNL     1       4.975   4.348  17.204  0.00  0.00    +0.000 A 
ATOM     10  C   UNL     1       3.550   3.978  16.845  0.00  0.00    +0.000 C 
ENDROOT
BRANCH   1  11
ATOM     11  N   UNL     1       1.252   3.669  17.650  0.00  0.00    +0.000 NA
ATOM     12  H   UNL     1       0.733   3.071  18.334  0.00  0.00    +0.000 HD
ATOM     13  H   UNL     1       1.212   3.187  16.722  0.00  0.00    +0.000 HD
ENDBRANCH   1  11
BRANCH   5  14
ATOM     14  O   UNL     1       7.081   5.462  20.038  0.00  0.00    +0.000 OA
ATOM     15  H   UNL     1       6.674   6.186  20.533  0.00  0.00    +0.000 HD
ENDBRANCH   5  14
BRANCH   8  16
ATOM     16  O   UNL     1       5.647   3.831  14.970  0.00  0.00    +0.000 OA
ATOM     17  H   UNL     1       5.959   2.994  14.599  0.00  0.00    +0.000 HD
ENDBRANCH   8  16
TORSDOF 3
ENDMDL
