MODEL 1
REMARK VINA RESULT:      -7.5      0.000      0.000
REMARK  Name = 
REMARK  10 active torsions:
REMARK  status: ('A' for Active; 'I' for Inactive)
REMARK    1  A    between atoms: C_1  and  C_2
REMARK    2  A    between atoms: C_2  and  C_3
REMARK    3  A    between atoms: C_3  and  C_4
REMARK    4  A    between atoms: C_4  and  C_5
REMARK    5  A    between atoms: C_5  and  C_6
REMARK    6  A    between atoms: C_6  and  C_7
REMARK    7  A    between atoms: C_7  and  C_8
REMARK    8  A    between atoms: C_8  and  N_9
REMARK    9  A    between atoms: C_17  and  O_18
REMARK   10  A    between atoms: C_17  and  C_19
REMARK                            x       y       z     vdW  Elec       q    Type
REMARK                         _______ _______ _______ _____ _____    ______ ____
ROOT
ATOM      1  N   UNL     1       4.755   5.150  18.566  0.00  0.00    +0.000 N 
ATOM      2  C   UNL     1       4.378   3.844  18.783  0.00  0.00    +0.000 A 
ATOM      3  N   UNL     1       5.001   2.953  19.575  0.00  0.00    +0.000 NA
ATOM      4  C   UNL     1       4.481   1.703  19.598  0.00  0.00    +0.000 A 
ATOM      5  C   UNL     1       3.359   1.312  18.864  0.00  0.00    +0.000 A 
ATOM      6  C   UNL     1       2.771   2.284  18.081  0.00  0.00    +0.000 A 
ATOM      7  N   UNL     1       3.294   3.515  18.062  0.00  0.00    +0.000 N 
ATOM      8  C   UNL     1       2.779   4.636  17.300  0.00  0.00    +0.000 C 
ATOM      9  C   UNL     1       3.747   5.777  17.718  0.00  0.00    +0.000 C 
ENDROOT
BRANCH   9  10
ATOM     10  C   UNL     1       2.956   6.903  18.382  0.00  0.00    +0.000 A 
ATOM     11  C   UNL     1       2.678   8.115  17.728  0.00  0.00    +0.000 A 
ATOM     12  C   UNL     1       1.863   9.084  18.327  0.00  0.00    +0.000 A 
ATOM     13  C   UNL     1       1.397   8.901  19.627  0.00  0.00    +0.000 A 
ATOM     14 BR   UNL     1       0.300  10.212  20.429  0.00  0.00    +0.000 Br
ATOM     15  C   UNL     1       1.735   7.754  20.334  0.00  0.00    +0.000 A 
ATOM     16  C   UNL     1       2.501   6.762  19.713  0.00  0.00    +0.000 A 
ENDBRANCH   9  10
BRANCH   9  17
ATOM     17  O   UNL     1       4.403   6.289  16.569  0.00  0.00    +0.000 OA
ATOM     18  H   UNL     1       4.777   5.547  16.070  0.00  0.00    +0.000 HD
ENDBRANCH   9  17
BRANCH   1  19
ATOM     19  C   UNL     1       5.898   5.854  19.153  0.00  0.00    +0.000 C 
BRANCH  19  20
ATOM     20  C   UNL     1       7.132   5.829  18.230  0.00  0.00    +0.000 C 
BRANCH  20  21
ATOM     21  C   UNL     1       7.322   4.520  17.438  0.00  0.00    +0.000 C 
BRANCH  21  22
ATOM     22  C   UNL     1       7.190   4.777  15.925  0.00  0.00    +0.000 C 
BRANCH  22  23
ATOM     23  C   UNL     1       6.308   3.741  15.217  0.00  0.00    +0.000 C 
BRANCH  23  24
ATOM     24  C   UNL     1       5.691   4.319  13.936  0.00  0.00    +0.000 C 
BRANCH  24  26
ATOM     25  C   UNL     1       4.914   3.138  11.851  0.00  0.00    +0.000 C 
ATOM     26  C   UNL     1       6.116   3.530  12.698  0.00  0.00    +0.000 C 
ENDBRANCH  24  26
ENDBRANCH  23  24
ENDBRANCH  22  23
ENDBRANCH  21  22
ENDBRANCH  20  21
ENDBRANCH  19  20
ENDBRANCH   1  19
TORSDOF 9
ENDMDL
MODEL 2
REMARK VINA RESULT:      -7.4      0.405      1.058
REMARK  Name = 
REMARK  10 active torsions:
REMARK  status: ('A' for Active; 'I' for Inactive)
REMARK    1  A    between atoms: C_1  and  C_2
REMARK    2  A    between atoms: C_2  and  C_3
REMARK    3  A    between atoms: C_3  and  C_4
REMARK    4  A    between atoms: C_4  and  C_5
REMARK    5  A    between atoms: C_5  and  C_6
REMARK    6  A    between atoms: C_6  and  C_7
REMARK    7  A    between atoms: C_7  and  C_8
REMARK    8  A    between atoms: C_8  and  N_9
REMARK    9  A    between atoms: C_17  and  O_18
REMARK   10  A    between atoms: C_17  and  C_19
REMARK                            x       y       z     vdW  Elec       q    Type
REMARK                         _______ _______ _______ _____ _____    ______ ____
ROOT
ATOM      1  N   UNL     1       4.645   5.145  18.649  0.00  0.00    +0.000 N 
ATOM      2  C   UNL     1       4.302   3.821  18.810  0.00  0.00    +0.000 A 
ATOM      3  N   UNL     1       4.950   2.914  19.561  0.00  0.00    +0.000 NA
ATOM      4  C   UNL     1       4.462   1.650  19.531  0.00  0.00    +0.000 A 
ATOM      5  C   UNL     1       3.347   1.263  18.784  0.00  0.00    +0.000 A 
ATOM      6  C   UNL     1       2.732   2.253  18.045  0.00  0.00    +0.000 A 
ATOM      7  N   UNL     1       3.224   3.496  18.078  0.00  0.00    +0.000 N 
ATOM      8  C   UNL     1       2.678   4.636  17.366  0.00  0.00    +0.000 C 
ATOM      9  C   UNL     1       3.619   5.782  17.832  0.00  0.00    +0.000 C 
ENDROOT
BRANCH   9  10
ATOM     10  C   UNL     1       2.801   6.858  18.546  0.00  0.00    +0.000 A 
ATOM     11  C   UNL     1       2.303   6.684  19.849  0.00  0.00    +0.000 A 
ATOM     12  C   UNL     1       1.646   7.729  20.511  0.00  0.00    +0.000 A 
ATOM     13  C   UNL     1       1.389   8.926  19.848  0.00  0.00    +0.000 A 
ATOM     14 BR   UNL     1       0.501  10.330  20.747  0.00  0.00    +0.000 Br
ATOM     15  C   UNL     1       1.784   9.091  18.527  0.00  0.00    +0.000 A 
ATOM     16  C   UNL     1       2.491   8.068  17.886  0.00  0.00    +0.000 A 
ENDBRANCH   9  10
BRANCH   9  17
ATOM     17  O   UNL     1       4.257   6.360  16.704  0.00  0.00    +0.000 OA
ATOM     18  H   UNL     1       3.620   6.929  16.246  0.00  0.00    +0.000 HD
ENDBRANCH   9  17
BRANCH   1  19
ATOM     19  C   UNL     1       5.772   5.851  19.263  0.00  0.00    +0.000 C 
BRANCH  19  20
ATOM     20  C   UNL     1       6.970   5.981  18.302  0.00  0.00    +0.000 C 
BRANCH  20  21
ATOM     21  C   UNL     1       7.428   4.657  17.657  0.00  0.00    +0.000 C 
BRANCH  21  22
ATOM     22  C   UNL     1       7.205   4.691  16.133  0.00  0.00    +0.000 C 
BRANCH  22  23
ATOM     23  C   UNL     1       6.080   3.756  15.673  0.00  0.00    +0.000 C 
BRANCH  23  24
ATOM     24  C   UNL     1       5.541   4.171  14.297  0.00  0.00    +0.000 C 
BRANCH  24  26
ATOM     25  C   UNL     1       6.417   3.302  12.100  0.00  0.00    +0.000 C 
ATOM     26  C   UNL     1       6.657   4.263  13.256  0.00  0.00    +0.000 C 
ENDBRANCH  24  26
ENDBRANCH  23  24
ENDBRANCH  22  23
ENDBRANCH  21  22
ENDBRANCH  20  21
ENDBRANCH  19  20
ENDBRANCH   1  19
TORSDOF 9
ENDMDL
MODEL 3
REMARK VINA RESULT:      -7.3      2.395      4.203
REMARK  Name = 
REMARK  10 active torsions:
REMARK  status: ('A' for Active; 'I' for Inactive)
REMARK    1  A    between atoms: C_1  and  C_2
REMARK    2  A    between atoms: C_2  and  C_3
REMARK    3  A    between atoms: C_3  and  C_4
REMARK    4  A    between atoms: C_4  and  C_5
REMARK    5  A    between atoms: C_5  and  C_6
REMARK    6  A    between atoms: C_6  and  C_7
REMARK    7  A    between atoms: C_7  and  C_8
REMARK    8  A    between atoms: C_8  and  N_9
REMARK    9  A    between atoms: C_17  and  O_18
REMARK   10  A    between atoms: C_17  and  C_19
REMARK                            x       y       z     vdW  Elec       q    Type
REMARK                         _______ _______ _______ _____ _____    ______ ____
ROOT
ATOM      1  N   UNL     1       4.704   5.181  18.599  0.00  0.00    +0.000 N 
ATOM      2  C   UNL     1       4.326   3.880  18.847  0.00  0.00    +0.000 A 
ATOM      3  N   UNL     1       4.955   3.005  19.651  0.00  0.00    +0.000 NA
ATOM      4  C   UNL     1       4.432   1.757  19.706  0.00  0.00    +0.000 A 
ATOM      5  C   UNL     1       3.301   1.353  18.992  0.00  0.00    +0.000 A 
ATOM      6  C   UNL     1       2.708   2.310  18.194  0.00  0.00    +0.000 A 
ATOM      7  N   UNL     1       3.234   3.539  18.144  0.00  0.00    +0.000 N 
ATOM      8  C   UNL     1       2.714   4.645  17.363  0.00  0.00    +0.000 C 
ATOM      9  C   UNL     1       3.689   5.792  17.747  0.00  0.00    +0.000 C 
ENDROOT
BRANCH   9  10
ATOM     10  C   UNL     1       2.907   6.934  18.395  0.00  0.00    +0.000 A 
ATOM     11  C   UNL     1       2.655   8.146  17.730  0.00  0.00    +0.000 A 
ATOM     12  C   UNL     1       1.848   9.131  18.314  0.00  0.00    +0.000 A 
ATOM     13  C   UNL     1       1.364   8.963  19.608  0.00  0.00    +0.000 A 
ATOM     14 BR   UNL     1       0.277  10.296  20.390  0.00  0.00    +0.000 Br
ATOM     15  C   UNL     1       1.676   7.816  20.327  0.00  0.00    +0.000 A 
ATOM     16  C   UNL     1       2.434   6.808  19.721  0.00  0.00    +0.000 A 
ENDBRANCH   9  10
BRANCH   9  17
ATOM     17  O   UNL     1       4.334   6.277  16.581  0.00  0.00    +0.000 OA
ATOM     18  H   UNL     1       4.145   7.224  16.494  0.00  0.00    +0.000 HD
ENDBRANCH   9  17
BRANCH   1  19
ATOM     19  C   UNL     1       5.855   5.894  19.159  0.00  0.00    +0.000 C 
BRANCH  19  20
ATOM     20  C   UNL     1       7.059   5.899  18.198  0.00  0.00    +0.000 C 
BRANCH  20  21
ATOM     21  C   UNL     1       7.397   7.275  17.590  0.00  0.00    +0.000 C 
BRANCH  21  22
ATOM     22  C   UNL     1       8.451   8.002  18.445  0.00  0.00    +0.000 C 
BRANCH  22  23
ATOM     23  C   UNL     1       8.486   9.514  18.194  0.00  0.00    +0.000 C 
BRANCH  23  24
ATOM     24  C   UNL     1       9.221  10.249  19.324  0.00  0.00    +0.000 C 
BRANCH  24  26
ATOM     25  C   UNL     1      11.104  11.821  19.901  0.00  0.00    +0.000 C 
ATOM     26  C   UNL     1      10.265  11.224  18.779  0.00  0.00    +0.000 C 
ENDBRANCH  24  26
ENDBRANCH  23  24
ENDBRANCH  22  23
ENDBRANCH  21  22
ENDBRANCH  20  21
ENDBRANCH  19  20
ENDBRANCH   1  19
TORSDOF 9
ENDMDL
MODEL 4
REMARK VINA RESULT:      -7.3      2.016      5.238
REMARK  Name = 
REMARK  10 active torsions:
REMARK  status: ('A' for Active; 'I' for Inactive)
REMARK    1  A    between atoms: C_1  and  C_2
REMARK    2  A    between atoms: C_2  and  C_3
REMARK    3  A    between atoms: C_3  and  C_4
REMARK    4  A    between atoms: C_4  and  C_5
REMARK    5  A    between atoms: C_5  and  C_6
REMARK    6  A    between atoms: C_6  and  C_7
REMARK    7  A    between atoms: C_7  and  C_8
REMARK    8  A    between atoms: C_8  and  N_9
REMARK    9  A    between atoms: C_17  and  O_18
REMARK   10  A    between atoms: C_17  and  C_19
REMARK                            x       y       z     vdW  Elec       q    Type
REMARK                         _______ _______ _______ _____ _____    ______ ____
ROOT
ATOM      1  N   UNL     1       4.839   4.237  17.282  0.00  0.00    +0.000 N 
ATOM      2  C   UNL     1       5.546   4.344  16.105  0.00  0.00    +0.000 A 
ATOM      3  N   UNL     1       5.448   3.532  15.037  0.00  0.00    +0.000 NA
ATOM      4  C   UNL     1       6.281   3.797  14.003  0.00  0.00    +0.000 A 
ATOM      5  C   UNL     1       7.204   4.845  13.994  0.00  0.00    +0.000 A 
ATOM      6  C   UNL     1       7.240   5.638  15.123  0.00  0.00    +0.000 A 
ATOM      7  N   UNL     1       6.416   5.366  16.140  0.00  0.00    +0.000 N 
ATOM      8  C   UNL     1       6.333   6.116  17.380  0.00  0.00    +0.000 C 
ATOM      9  C   UNL     1       5.188   5.376  18.124  0.00  0.00    +0.000 C 
ENDROOT
BRANCH   9  10
ATOM     10  C   UNL     1       4.042   6.350  18.398  0.00  0.00    +0.000 A 
ATOM     11  C   UNL     1       3.242   6.264  19.550  0.00  0.00    +0.000 A 
ATOM     12  C   UNL     1       2.267   7.234  19.820  0.00  0.00    +0.000 A 
ATOM     13  C   UNL     1       2.010   8.245  18.897  0.00  0.00    +0.000 A 
ATOM     14 BR   UNL     1       0.694   9.548  19.267  0.00  0.00    +0.000 Br
ATOM     15  C   UNL     1       2.721   8.298  17.705  0.00  0.00    +0.000 A 
ATOM     16  C   UNL     1       3.733   7.363  17.463  0.00  0.00    +0.000 A 
ENDBRANCH   9  10
BRANCH   9  17
ATOM     17  O   UNL     1       5.672   4.872  19.359  0.00  0.00    +0.000 OA
ATOM     18  H   UNL     1       5.213   5.329  20.080  0.00  0.00    +0.000 HD
ENDBRANCH   9  17
BRANCH   1  19
ATOM     19  C   UNL     1       3.827   3.234  17.622  0.00  0.00    +0.000 C 
BRANCH  19  20
ATOM     20  C   UNL     1       2.473   3.523  16.944  0.00  0.00    +0.000 C 
BRANCH  20  21
ATOM     21  C   UNL     1       1.301   3.767  17.916  0.00  0.00    +0.000 C 
BRANCH  21  22
ATOM     22  C   UNL     1       0.895   2.457  18.617  0.00  0.00    +0.000 C 
BRANCH  22  23
ATOM     23  C   UNL     1       0.430   2.671  20.062  0.00  0.00    +0.000 C 
BRANCH  23  24
ATOM     24  C   UNL     1       1.178   3.838  20.720  0.00  0.00    +0.000 C 
BRANCH  24  26
ATOM     25  C   UNL     1       3.296   2.549  21.170  0.00  0.00    +0.000 C 
ATOM     26  C   UNL     1       2.159   3.351  21.787  0.00  0.00    +0.000 C 
ENDBRANCH  24  26
ENDBRANCH  23  24
ENDBRANCH  22  23
ENDBRANCH  21  22
ENDBRANCH  20  21
ENDBRANCH  19  20
ENDBRANCH   1  19
TORSDOF 9
ENDMDL
MODEL 5
REMARK VINA RESULT:      -7.3      2.078      3.945
REMARK  Name = 
REMARK  10 active torsions:
REMARK  status: ('A' for Active; 'I' for Inactive)
REMARK    1  A    between atoms: C_1  and  C_2
REMARK    2  A    between atoms: C_2  and  C_3
REMARK    3  A    between atoms: C_3  and  C_4
REMARK    4  A    between atoms: C_4  and  C_5
REMARK    5  A    between atoms: C_5  and  C_6
REMARK    6  A    between atoms: C_6  and  C_7
REMARK    7  A    between atoms: C_7  and  C_8
REMARK    8  A    between atoms: C_8  and  N_9
REMARK    9  A    between atoms: C_17  and  O_18
REMARK   10  A    between atoms: C_17  and  C_19
REMARK                            x       y       z     vdW  Elec       q    Type
REMARK                         _______ _______ _______ _____ _____    ______ ____
ROOT
ATOM      1  N   UNL     1       4.728   5.104  18.626  0.00  0.00    +0.000 N 
ATOM      2  C   UNL     1       4.387   3.791  18.860  0.00  0.00    +0.000 A 
ATOM      3  N   UNL     1       5.037   2.927  19.660  0.00  0.00    +0.000 NA
ATOM      4  C   UNL     1       4.550   1.663  19.701  0.00  0.00    +0.000 A 
ATOM      5  C   UNL     1       3.436   1.234  18.977  0.00  0.00    +0.000 A 
ATOM      6  C   UNL     1       2.820   2.180  18.184  0.00  0.00    +0.000 A 
ATOM      7  N   UNL     1       3.310   3.424  18.148  0.00  0.00    +0.000 N 
ATOM      8  C   UNL     1       2.762   4.522  17.374  0.00  0.00    +0.000 C 
ATOM      9  C   UNL     1       3.701   5.693  17.774  0.00  0.00    +0.000 C 
ENDROOT
BRANCH   9  10
ATOM     10  C   UNL     1       2.882   6.806  18.428  0.00  0.00    +0.000 A 
ATOM     11  C   UNL     1       2.371   6.697  19.733  0.00  0.00    +0.000 A 
ATOM     12  C   UNL     1       1.713   7.776  20.337  0.00  0.00    +0.000 A 
ATOM     13  C   UNL     1       1.468   8.941  19.615  0.00  0.00    +0.000 A 
ATOM     14 BR   UNL     1       0.578  10.391  20.437  0.00  0.00    +0.000 Br
ATOM     15  C   UNL     1       1.877   9.040  18.292  0.00  0.00    +0.000 A 
ATOM     16  C   UNL     1       2.585   7.985  17.708  0.00  0.00    +0.000 A 
ENDBRANCH   9  10
BRANCH   9  17
ATOM     17  O   UNL     1       4.338   6.208  16.616  0.00  0.00    +0.000 OA
ATOM     18  H   UNL     1       4.917   6.938  16.880  0.00  0.00    +0.000 HD
ENDBRANCH   9  17
BRANCH   1  19
ATOM     19  C   UNL     1       5.855   5.845  19.199  0.00  0.00    +0.000 C 
BRANCH  19  20
ATOM     20  C   UNL     1       7.193   5.476  18.531  0.00  0.00    +0.000 C 
BRANCH  20  21
ATOM     21  C   UNL     1       7.579   6.354  17.324  0.00  0.00    +0.000 C 
BRANCH  21  22
ATOM     22  C   UNL     1       7.314   7.841  17.628  0.00  0.00    +0.000 C 
BRANCH  22  23
ATOM     23  C   UNL     1       8.470   8.514  18.378  0.00  0.00    +0.000 C 
BRANCH  23  24
ATOM     24  C   UNL     1       8.470  10.032  18.152  0.00  0.00    +0.000 C 
BRANCH  24  26
ATOM     25  C   UNL     1       9.414  10.898  20.322  0.00  0.00    +0.000 C 
ATOM     26  C   UNL     1       9.662  10.705  18.833  0.00  0.00    +0.000 C 
ENDBRANCH  24  26
ENDBRANCH  23  24
ENDBRANCH  22  23
ENDBRANCH  21  22
ENDBRANCH  20  21
ENDBRANCH  19  20
ENDBRANCH   1  19
TORSDOF 9
ENDMDL
MODEL 6
REMARK VINA RESULT:      -7.2      1.909      5.129
REMARK  Name = 
REMARK  10 active torsions:
REMARK  status: ('A' for Active; 'I' for Inactive)
REMARK    1  A    between atoms: C_1  and  C_2
REMARK    2  A    between atoms: C_2  and  C_3
REMARK    3  A    between atoms: C_3  and  C_4
REMARK    4  A    between atoms: C_4  and  C_5
REMARK    5  A    between atoms: C_5  and  C_6
REMARK    6  A    between atoms: C_6  and  C_7
REMARK    7  A    between atoms: C_7  and  C_8
REMARK    8  A    between atoms: C_8  and  N_9
REMARK    9  A    between atoms: C_17  and  O_18
REMARK   10  A    between atoms: C_17  and  C_19
REMARK                            x       y       z     vdW  Elec       q    Type
REMARK                         _______ _______ _______ _____ _____    ______ ____
ROOT
ATOM      1  N   UNL     1       4.042   4.439  17.163  0.00  0.00    +0.000 N 
ATOM      2  C   UNL     1       5.027   4.519  16.204  0.00  0.00    +0.000 A 
ATOM      3  N   UNL     1       5.017   3.923  14.998  0.00  0.00    +0.000 NA
ATOM      4  C   UNL     1       6.121   4.099  14.233  0.00  0.00    +0.000 A 
ATOM      5  C   UNL     1       7.230   4.852  14.625  0.00  0.00    +0.000 A 
ATOM      6  C   UNL     1       7.161   5.438  15.873  0.00  0.00    +0.000 A 
ATOM      7  N   UNL     1       6.069   5.255  16.622  0.00  0.00    +0.000 N 
ATOM      8  C   UNL     1       5.850   5.817  17.942  0.00  0.00    +0.000 C 
ATOM      9  C   UNL     1       4.418   5.312  18.270  0.00  0.00    +0.000 C 
ENDROOT
BRANCH   9  10
ATOM     10  C   UNL     1       3.492   6.508  18.491  0.00  0.00    +0.000 A 
ATOM     11  C   UNL     1       3.341   7.529  17.537  0.00  0.00    +0.000 A 
ATOM     12  C   UNL     1       2.407   8.556  17.728  0.00  0.00    +0.000 A 
ATOM     13  C   UNL     1       1.685   8.634  18.916  0.00  0.00    +0.000 A 
ATOM     14 BR   UNL     1       0.429  10.023  19.167  0.00  0.00    +0.000 Br
ATOM     15  C   UNL     1       1.884   7.692  19.917  0.00  0.00    +0.000 A 
ATOM     16  C   UNL     1       2.774   6.635  19.701  0.00  0.00    +0.000 A 
ENDBRANCH   9  10
BRANCH   9  17
ATOM     17  O   UNL     1       4.450   4.528  19.452  0.00  0.00    +0.000 OA
ATOM     18  H   UNL     1       3.539   4.318  19.708  0.00  0.00    +0.000 HD
ENDBRANCH   9  17
BRANCH   1  19
ATOM     19  C   UNL     1       2.777   3.707  17.079  0.00  0.00    +0.000 C 
BRANCH  19  20
ATOM     20  C   UNL     1       2.856   2.329  17.764  0.00  0.00    +0.000 C 
BRANCH  20  21
ATOM     21  C   UNL     1       1.563   1.883  18.475  0.00  0.00    +0.000 C 
BRANCH  21  22
ATOM     22  C   UNL     1       0.613   3.080  18.674  0.00  0.00    +0.000 C 
BRANCH  22  23
ATOM     23  C   UNL     1       0.837   3.808  20.004  0.00  0.00    +0.000 C 
BRANCH  23  24
ATOM     24  C   UNL     1       1.040   2.813  21.155  0.00  0.00    +0.000 C 
BRANCH  24  26
ATOM     25  C   UNL     1       3.450   2.130  21.431  0.00  0.00    +0.000 C 
ATOM     26  C   UNL     1       2.350   3.071  21.901  0.00  0.00    +0.000 C 
ENDBRANCH  24  26
ENDBRANCH  23  24
ENDBRANCH  22  23
ENDBRANCH  21  22
ENDBRANCH  20  21
ENDBRANCH  19  20
ENDBRANCH   1  19
TORSDOF 9
ENDMDL
MODEL 7
REMARK VINA RESULT:      -7.1      3.092      6.833
REMARK  Name = 
REMARK  10 active torsions:
REMARK  status: ('A' for Active; 'I' for Inactive)
REMARK    1  A    between atoms: C_1  and  C_2
REMARK    2  A    between atoms: C_2  and  C_3
REMARK    3  A    between atoms: C_3  and  C_4
REMARK    4  A    between atoms: C_4  and  C_5
REMARK    5  A    between atoms: C_5  and  C_6
REMARK    6  A    between atoms: C_6  and  C_7
REMARK    7  A    between atoms: C_7  and  C_8
REMARK    8  A    between atoms: C_8  and  N_9
REMARK    9  A    between atoms: C_17  and  O_18
REMARK   10  A    between atoms: C_17  and  C_19
REMARK                            x       y       z     vdW  Elec       q    Type
REMARK                         _______ _______ _______ _____ _____    ______ ____
ROOT
ATOM      1  N   UNL     1       3.993   5.440  19.238  0.00  0.00    +0.000 N 
ATOM      2  C   UNL     1       2.975   4.646  19.716  0.00  0.00    +0.000 A 
ATOM      3  N   UNL     1       1.720   5.039  19.998  0.00  0.00    +0.000 NA
ATOM      4  C   UNL     1       0.895   4.094  20.509  0.00  0.00    +0.000 A 
ATOM      5  C   UNL     1       1.276   2.771  20.742  0.00  0.00    +0.000 A 
ATOM      6  C   UNL     1       2.577   2.443  20.421  0.00  0.00    +0.000 A 
ATOM      7  N   UNL     1       3.385   3.384  19.921  0.00  0.00    +0.000 N 
ATOM      8  C   UNL     1       4.767   3.184  19.527  0.00  0.00    +0.000 C 
ATOM      9  C   UNL     1       5.150   4.588  18.984  0.00  0.00    +0.000 C 
ENDROOT
BRANCH   9  10
ATOM     10  C   UNL     1       5.558   4.476  17.516  0.00  0.00    +0.000 A 
ATOM     11  C   UNL     1       4.650   4.105  16.509  0.00  0.00    +0.000 A 
ATOM     12  C   UNL     1       5.033   4.112  15.161  0.00  0.00    +0.000 A 
ATOM     13  C   UNL     1       6.351   4.390  14.808  0.00  0.00    +0.000 A 
ATOM     14 BR   UNL     1       6.859   4.395  12.989  0.00  0.00    +0.000 Br
ATOM     15  C   UNL     1       7.293   4.666  15.790  0.00  0.00    +0.000 A 
ATOM     16  C   UNL     1       6.896   4.716  17.131  0.00  0.00    +0.000 A 
ENDBRANCH   9  10
BRANCH   9  17
ATOM     17  O   UNL     1       6.242   5.104  19.729  0.00  0.00    +0.000 OA
ATOM     18  H   UNL     1       5.919   5.381  20.600  0.00  0.00    +0.000 HD
ENDBRANCH   9  17
BRANCH   1  19
ATOM     19  C   UNL     1       3.931   6.869  18.923  0.00  0.00    +0.000 C 
BRANCH  19  20
ATOM     20  C   UNL     1       2.854   7.186  17.868  0.00  0.00    +0.000 C 
BRANCH  20  21
ATOM     21  C   UNL     1       1.927   8.366  18.222  0.00  0.00    +0.000 C 
BRANCH  21  22
ATOM     22  C   UNL     1       1.800   8.516  19.750  0.00  0.00    +0.000 C 
BRANCH  22  23
ATOM     23  C   UNL     1       0.600   9.374  20.170  0.00  0.00    +0.000 C 
BRANCH  23  24
ATOM     24  C   UNL     1      -0.150   8.741  21.349  0.00  0.00    +0.000 C 
BRANCH  24  26
ATOM     25  C   UNL     1      -0.872  10.366  23.134  0.00  0.00    +0.000 C 
ATOM     26  C   UNL     1       0.217   9.406  22.676  0.00  0.00    +0.000 C 
ENDBRANCH  24  26
ENDBRANCH  23  24
ENDBRANCH  22  23
ENDBRANCH  21  22
ENDBRANCH  20  21
ENDBRANCH  19  20
ENDBRANCH   1  19
TORSDOF 9
ENDMDL
MODEL 8
REMARK VINA RESULT:      -7.1      3.097      6.399
REMARK  Name = 
REMARK  10 active torsions:
REMARK  status: ('A' for Active; 'I' for Inactive)
REMARK    1  A    between atoms: C_1  and  C_2
REMARK    2  A    between atoms: C_2  and  C_3
REMARK    3  A    between atoms: C_3  and  C_4
REMARK    4  A    between atoms: C_4  and  C_5
REMARK    5  A    between atoms: C_5  and  C_6
REMARK    6  A    between atoms: C_6  and  C_7
REMARK    7  A    between atoms: C_7  and  C_8
REMARK    8  A    between atoms: C_8  and  N_9
REMARK    9  A    between atoms: C_17  and  O_18
REMARK   10  A    between atoms: C_17  and  C_19
REMARK                            x       y       z     vdW  Elec       q    Type
REMARK                         _______ _______ _______ _____ _____    ______ ____
ROOT
ATOM      1  N   UNL     1       4.057   5.440  19.252  0.00  0.00    +0.000 N 
ATOM      2  C   UNL     1       3.028   4.650  19.716  0.00  0.00    +0.000 A 
ATOM      3  N   UNL     1       1.776   5.053  19.997  0.00  0.00    +0.000 NA
ATOM      4  C   UNL     1       0.939   4.110  20.492  0.00  0.00    +0.000 A 
ATOM      5  C   UNL     1       1.305   2.780  20.711  0.00  0.00    +0.000 A 
ATOM      6  C   UNL     1       2.604   2.443  20.392  0.00  0.00    +0.000 A 
ATOM      7  N   UNL     1       3.424   3.382  19.907  0.00  0.00    +0.000 N 
ATOM      8  C   UNL     1       4.806   3.172  19.517  0.00  0.00    +0.000 C 
ATOM      9  C   UNL     1       5.205   4.579  18.993  0.00  0.00    +0.000 C 
ENDROOT
BRANCH   9  10
ATOM     10  C   UNL     1       5.619   4.481  17.525  0.00  0.00    +0.000 A 
ATOM     11  C   UNL     1       4.709   4.147  16.508  0.00  0.00    +0.000 A 
ATOM     12  C   UNL     1       5.099   4.165  15.162  0.00  0.00    +0.000 A 
ATOM     13  C   UNL     1       6.425   4.420  14.821  0.00  0.00    +0.000 A 
ATOM     14 BR   UNL     1       6.944   4.442  13.005  0.00  0.00    +0.000 Br
ATOM     15  C   UNL     1       7.368   4.659  15.813  0.00  0.00    +0.000 A 
ATOM     16  C   UNL     1       6.965   4.696  17.152  0.00  0.00    +0.000 A 
ENDBRANCH   9  10
BRANCH   9  17
ATOM     17  O   UNL     1       6.299   5.074  19.749  0.00  0.00    +0.000 OA
ATOM     18  H   UNL     1       6.710   5.801  19.259  0.00  0.00    +0.000 HD
ENDBRANCH   9  17
BRANCH   1  19
ATOM     19  C   UNL     1       4.011   6.873  18.954  0.00  0.00    +0.000 C 
BRANCH  19  20
ATOM     20  C   UNL     1       2.864   7.230  17.989  0.00  0.00    +0.000 C 
BRANCH  20  21
ATOM     21  C   UNL     1       1.840   8.240  18.544  0.00  0.00    +0.000 C 
BRANCH  21  22
ATOM     22  C   UNL     1       2.017   9.616  17.873  0.00  0.00    +0.000 C 
BRANCH  22  23
ATOM     23  C   UNL     1       1.138  10.705  18.499  0.00  0.00    +0.000 C 
BRANCH  23  24
ATOM     24  C   UNL     1      -0.224  10.141  18.926  0.00  0.00    +0.000 C 
BRANCH  24  26
ATOM     25  C   UNL     1      -1.877   9.928  17.036  0.00  0.00    +0.000 C 
ATOM     26  C   UNL     1      -1.374  10.809  18.171  0.00  0.00    +0.000 C 
ENDBRANCH  24  26
ENDBRANCH  23  24
ENDBRANCH  22  23
ENDBRANCH  21  22
ENDBRANCH  20  21
ENDBRANCH  19  20
ENDBRANCH   1  19
TORSDOF 9
ENDMDL
MODEL 9
REMARK VINA RESULT:      -7.1      3.120      6.445
REMARK  Name = 
REMARK  10 active torsions:
REMARK  status: ('A' for Active; 'I' for Inactive)
REMARK    1  A    between atoms: C_1  and  C_2
REMARK    2  A    between atoms: C_2  and  C_3
REMARK    3  A    between atoms: C_3  and  C_4
REMARK    4  A    between atoms: C_4  and  C_5
REMARK    5  A    between atoms: C_5  and  C_6
REMARK    6  A    between atoms: C_6  and  C_7
REMARK    7  A    between atoms: C_7  and  C_8
REMARK    8  A    between atoms: C_8  and  N_9
REMARK    9  A    between atoms: C_17  and  O_18
REMARK   10  A    between atoms: C_17  and  C_19
REMARK                            x       y       z     vdW  Elec       q    Type
REMARK                         _______ _______ _______ _____ _____    ______ ____
ROOT
ATOM      1  N   UNL     1       4.036   5.471  19.223  0.00  0.00    +0.000 N 
ATOM      2  C   UNL     1       3.014   4.678  19.696  0.00  0.00    +0.000 A 
ATOM      3  N   UNL     1       1.768   5.080  20.003  0.00  0.00    +0.000 NA
ATOM      4  C   UNL     1       0.938   4.134  20.503  0.00  0.00    +0.000 A 
ATOM      5  C   UNL     1       1.305   2.801  20.701  0.00  0.00    +0.000 A 
ATOM      6  C   UNL     1       2.598   2.465  20.356  0.00  0.00    +0.000 A 
ATOM      7  N   UNL     1       3.411   3.407  19.866  0.00  0.00    +0.000 N 
ATOM      8  C   UNL     1       4.785   3.199  19.450  0.00  0.00    +0.000 C 
ATOM      9  C   UNL     1       5.178   4.611  18.935  0.00  0.00    +0.000 C 
ENDROOT
BRANCH   9  10
ATOM     10  C   UNL     1       5.566   4.527  17.459  0.00  0.00    +0.000 A 
ATOM     11  C   UNL     1       6.836   4.910  16.991  0.00  0.00    +0.000 A 
ATOM     12  C   UNL     1       7.192   4.724  15.649  0.00  0.00    +0.000 A 
ATOM     13  C   UNL     1       6.255   4.248  14.735  0.00  0.00    +0.000 A 
ATOM     14 BR   UNL     1       6.742   4.001  12.927  0.00  0.00    +0.000 Br
ATOM     15  C   UNL     1       4.963   3.952  15.151  0.00  0.00    +0.000 A 
ATOM     16  C   UNL     1       4.626   4.084  16.502  0.00  0.00    +0.000 A 
ENDBRANCH   9  10
BRANCH   9  17
ATOM     17  O   UNL     1       6.286   5.096  19.677  0.00  0.00    +0.000 OA
ATOM     18  H   UNL     1       6.573   5.937  19.290  0.00  0.00    +0.000 HD
ENDBRANCH   9  17
BRANCH   1  19
ATOM     19  C   UNL     1       3.988   6.908  18.941  0.00  0.00    +0.000 C 
BRANCH  19  20
ATOM     20  C   UNL     1       3.208   7.221  17.649  0.00  0.00    +0.000 C 
BRANCH  20  21
ATOM     21  C   UNL     1       2.158   8.342  17.782  0.00  0.00    +0.000 C 
BRANCH  21  22
ATOM     22  C   UNL     1       1.808   8.585  19.262  0.00  0.00    +0.000 C 
BRANCH  22  23
ATOM     23  C   UNL     1       0.780   9.705  19.458  0.00  0.00    +0.000 C 
BRANCH  23  24
ATOM     24  C   UNL     1      -0.008   9.968  18.167  0.00  0.00    +0.000 C 
BRANCH  24  26
ATOM     25  C   UNL     1      -1.841  11.662  17.818  0.00  0.00    +0.000 C 
ATOM     26  C   UNL     1      -1.464  10.334  18.459  0.00  0.00    +0.000 C 
ENDBRANCH  24  26
ENDBRANCH  23  24
ENDBRANCH  22  23
ENDBRANCH  21  22
ENDBRANCH  20  21
ENDBRANCH  19  20
ENDBRANCH   1  19
TORSDOF 9
ENDMDL
