MODEL 1
REMARK VINA RESULT:      -7.5      0.000      0.000
REMARK  Name = 
REMARK  9 active torsions:
REMARK  status: ('A' for Active; 'I' for Inactive)
REMARK    1  A    between atoms: C_1  and  C_2
REMARK    2  A    between atoms: C_2  and  C_3
REMARK    3  A    between atoms: C_8  and  C_9
REMARK    4  A    between atoms: N_12  and  C_13
REMARK    5  A    between atoms: C_13  and  C_14
REMARK    6  A    between atoms: C_14  and  C_15
REMARK    7  A    between atoms: C_15  and  C_16
REMARK    8  A    between atoms: C_16  and  S_17
REMARK    9  A    between atoms: S_17  and  C_18
REMARK                            x       y       z     vdW  Elec       q    Type
REMARK                         _______ _______ _______ _____ _____    ______ ____
ROOT
ATOM      1  C   UNL     1       4.820   4.738  16.533  0.00  0.00    +0.000 A 
ATOM      2  N   UNL     1       4.546   3.449  16.482  0.00  0.00    +0.000 NA
ATOM      3  C   UNL     1       3.728   3.193  17.550  0.00  0.00    +0.000 A 
ATOM      4  C   UNL     1       3.145   1.985  17.950  0.00  0.00    +0.000 A 
ATOM      5  C   UNL     1       2.319   1.974  19.081  0.00  0.00    +0.000 A 
ATOM      6  C   UNL     1       2.076   3.145  19.810  0.00  0.00    +0.000 A 
ATOM      7  C   UNL     1       1.174   3.119  21.011  0.00  0.00    +0.000 C 
ATOM      8  C   UNL     1       2.671   4.360  19.423  0.00  0.00    +0.000 A 
ATOM      9  C   UNL     1       3.493   4.346  18.287  0.00  0.00    +0.000 A 
ATOM     10  N   UNL     1       4.219   5.317  17.634  0.00  0.00    +0.000 N 
ENDROOT
BRANCH   1  12
ATOM     11  C   UNL     1       6.680   4.526  14.888  0.00  0.00    +0.000 C 
ATOM     12  C   UNL     1       5.656   5.453  15.522  0.00  0.00    +0.000 C 
ENDBRANCH   1  12
BRANCH  10  13
ATOM     13  C   UNL     1       4.354   6.689  18.090  0.00  0.00    +0.000 C 
BRANCH  13  14
ATOM     14  C   UNL     1       3.370   7.642  17.413  0.00  0.00    +0.000 C 
BRANCH  14  15
ATOM     15  C   UNL     1       2.195   8.046  18.318  0.00  0.00    +0.000 C 
BRANCH  15  16
ATOM     16  C   UNL     1       1.437   9.308  17.896  0.00  0.00    +0.000 C 
BRANCH  16  17
ATOM     17  S   UNL     1       0.655  10.106  19.338  0.00  0.00    +0.000 S 
BRANCH  17  18
ATOM     18  C   UNL     1      -0.940  10.629  18.738  0.00  0.00    +0.000 A 
ATOM     19  C   UNL     1      -1.782  11.546  19.372  0.00  0.00    +0.000 A 
ATOM     20  C   UNL     1      -3.031  11.862  18.823  0.00  0.00    +0.000 A 
ATOM     21  C   UNL     1      -3.442  11.259  17.636  0.00  0.00    +0.000 A 
ATOM     22 CL   UNL     1      -4.986  11.628  16.979  0.00  0.00    +0.000 Cl
ATOM     23  C   UNL     1      -2.610  10.355  16.986  0.00  0.00    +0.000 A 
ATOM     24  C   UNL     1      -1.364  10.045  17.536  0.00  0.00    +0.000 A 
ENDBRANCH  17  18
ENDBRANCH  16  17
ENDBRANCH  15  16
ENDBRANCH  14  15
ENDBRANCH  13  14
ENDBRANCH  10  13
TORSDOF 7
ENDMDL
MODEL 2
REMARK VINA RESULT:      -7.4      2.925      5.658
REMARK  Name = 
REMARK  9 active torsions:
REMARK  status: ('A' for Active; 'I' for Inactive)
REMARK    1  A    between atoms: C_1  and  C_2
REMARK    2  A    between atoms: C_2  and  C_3
REMARK    3  A    between atoms: C_8  and  C_9
REMARK    4  A    between atoms: N_12  and  C_13
REMARK    5  A    between atoms: C_13  and  C_14
REMARK    6  A    between atoms: C_14  and  C_15
REMARK    7  A    between atoms: C_15  and  C_16
REMARK    8  A    between atoms: C_16  and  S_17
REMARK    9  A    between atoms: S_17  and  C_18
REMARK                            x       y       z     vdW  Elec       q    Type
REMARK                         _______ _______ _______ _____ _____    ______ ____
ROOT
ATOM      1  C   UNL     1       6.481   5.564  16.406  0.00  0.00    +0.000 A 
ATOM      2  N   UNL     1       7.463   5.588  15.525  0.00  0.00    +0.000 NA
ATOM      3  C   UNL     1       7.004   4.910  14.428  0.00  0.00    +0.000 A 
ATOM      4  C   UNL     1       7.648   4.654  13.212  0.00  0.00    +0.000 A 
ATOM      5  C   UNL     1       6.960   3.946  12.218  0.00  0.00    +0.000 A 
ATOM      6  C   UNL     1       5.650   3.494  12.427  0.00  0.00    +0.000 A 
ATOM      7  C   UNL     1       4.921   2.751  11.345  0.00  0.00    +0.000 C 
ATOM      8  C   UNL     1       5.003   3.734  13.653  0.00  0.00    +0.000 A 
ATOM      9  C   UNL     1       5.711   4.446  14.632  0.00  0.00    +0.000 A 
ATOM     10  N   UNL     1       5.405   4.854  15.911  0.00  0.00    +0.000 N 
ENDROOT
BRANCH   1  12
ATOM     11  C   UNL     1       7.562   7.357  17.758  0.00  0.00    +0.000 C 
ATOM     12  C   UNL     1       6.544   6.229  17.743  0.00  0.00    +0.000 C 
ENDBRANCH   1  12
BRANCH  10  13
ATOM     13  C   UNL     1       4.175   4.522  16.608  0.00  0.00    +0.000 C 
BRANCH  13  14
ATOM     14  C   UNL     1       4.366   3.448  17.677  0.00  0.00    +0.000 C 
BRANCH  14  15
ATOM     15  C   UNL     1       3.044   2.943  18.276  0.00  0.00    +0.000 C 
BRANCH  15  16
ATOM     16  C   UNL     1       2.392   3.862  19.312  0.00  0.00    +0.000 C 
BRANCH  16  17
ATOM     17  S   UNL     1       3.541   5.183  19.821  0.00  0.00    +0.000 S 
BRANCH  17  18
ATOM     18  C   UNL     1       2.707   6.690  19.364  0.00  0.00    +0.000 A 
ATOM     19  C   UNL     1       2.734   7.278  18.096  0.00  0.00    +0.000 A 
ATOM     20  C   UNL     1       2.062   8.483  17.857  0.00  0.00    +0.000 A 
ATOM     21  C   UNL     1       1.360   9.105  18.888  0.00  0.00    +0.000 A 
ATOM     22 CL   UNL     1       0.559  10.598  18.598  0.00  0.00    +0.000 Cl
ATOM     23  C   UNL     1       1.312   8.526  20.150  0.00  0.00    +0.000 A 
ATOM     24  C   UNL     1       1.981   7.323  20.384  0.00  0.00    +0.000 A 
ENDBRANCH  17  18
ENDBRANCH  16  17
ENDBRANCH  15  16
ENDBRANCH  14  15
ENDBRANCH  13  14
ENDBRANCH  10  13
TORSDOF 7
ENDMDL
MODEL 3
REMARK VINA RESULT:      -7.3      1.444      1.617
REMARK  Name = 
REMARK  9 active torsions:
REMARK  status: ('A' for Active; 'I' for Inactive)
REMARK    1  A    between atoms: C_1  and  C_2
REMARK    2  A    between atoms: C_2  and  C_3
REMARK    3  A    between atoms: C_8  and  C_9
REMARK    4  A    between atoms: N_12  and  C_13
REMARK    5  A    between atoms: C_13  and  C_14
REMARK    6  A    between atoms: C_14  and  C_15
REMARK    7  A    between atoms: C_15  and  C_16
REMARK    8  A    between atoms: C_16  and  S_17
REMARK    9  A    between atoms: S_17  and  C_18
REMARK                            x       y       z     vdW  Elec       q    Type
REMARK                         _______ _______ _______ _____ _____    ______ ____
ROOT
ATOM      1  C   UNL     1       5.969   4.962  18.158  0.00  0.00    +0.000 A 
ATOM      2  N   UNL     1       6.002   3.988  19.047  0.00  0.00    +0.000 NA
ATOM      3  C   UNL     1       4.711   3.552  19.179  0.00  0.00    +0.000 A 
ATOM      4  C   UNL     1       4.199   2.530  19.988  0.00  0.00    +0.000 A 
ATOM      5  C   UNL     1       2.827   2.251  19.938  0.00  0.00    +0.000 A 
ATOM      6  C   UNL     1       1.971   2.976  19.098  0.00  0.00    +0.000 A 
ATOM      7  C   UNL     1       0.506   2.652  19.044  0.00  0.00    +0.000 C 
ATOM      8  C   UNL     1       2.477   4.014  18.294  0.00  0.00    +0.000 A 
ATOM      9  C   UNL     1       3.853   4.275  18.360  0.00  0.00    +0.000 A 
ATOM     10  N   UNL     1       4.673   5.186  17.735  0.00  0.00    +0.000 N 
ENDROOT
BRANCH   1  12
ATOM     11  C   UNL     1       7.882   6.413  18.825  0.00  0.00    +0.000 C 
ATOM     12  C   UNL     1       7.180   5.698  17.683  0.00  0.00    +0.000 C 
ENDBRANCH   1  12
BRANCH  10  13
ATOM     13  C   UNL     1       4.210   6.230  16.837  0.00  0.00    +0.000 C 
BRANCH  13  14
ATOM     14  C   UNL     1       3.980   7.566  17.544  0.00  0.00    +0.000 C 
BRANCH  14  15
ATOM     15  C   UNL     1       2.575   7.699  18.150  0.00  0.00    +0.000 C 
BRANCH  15  16
ATOM     16  C   UNL     1       1.826   8.990  17.809  0.00  0.00    +0.000 C 
BRANCH  16  17
ATOM     17  S   UNL     1       0.971   9.650  19.279  0.00  0.00    +0.000 S 
BRANCH  17  18
ATOM     18  C   UNL     1      -0.552  10.319  18.637  0.00  0.00    +0.000 A 
ATOM     19  C   UNL     1      -1.282  11.364  19.208  0.00  0.00    +0.000 A 
ATOM     20  C   UNL     1      -2.484  11.790  18.632  0.00  0.00    +0.000 A 
ATOM     21  C   UNL     1      -2.962  11.169  17.479  0.00  0.00    +0.000 A 
ATOM     22 CL   UNL     1      -4.452  11.676  16.789  0.00  0.00    +0.000 Cl
ATOM     23  C   UNL     1      -2.241  10.137  16.891  0.00  0.00    +0.000 A 
ATOM     24  C   UNL     1      -1.041   9.717  17.468  0.00  0.00    +0.000 A 
ENDBRANCH  17  18
ENDBRANCH  16  17
ENDBRANCH  15  16
ENDBRANCH  14  15
ENDBRANCH  13  14
ENDBRANCH  10  13
TORSDOF 7
ENDMDL
MODEL 4
REMARK VINA RESULT:      -7.3      0.406      1.062
REMARK  Name = 
REMARK  9 active torsions:
REMARK  status: ('A' for Active; 'I' for Inactive)
REMARK    1  A    between atoms: C_1  and  C_2
REMARK    2  A    between atoms: C_2  and  C_3
REMARK    3  A    between atoms: C_8  and  C_9
REMARK    4  A    between atoms: N_12  and  C_13
REMARK    5  A    between atoms: C_13  and  C_14
REMARK    6  A    between atoms: C_14  and  C_15
REMARK    7  A    between atoms: C_15  and  C_16
REMARK    8  A    between atoms: C_16  and  S_17
REMARK    9  A    between atoms: S_17  and  C_18
REMARK                            x       y       z     vdW  Elec       q    Type
REMARK                         _______ _______ _______ _____ _____    ______ ____
ROOT
ATOM      1  C   UNL     1       4.824   4.995  16.512  0.00  0.00    +0.000 A 
ATOM      2  N   UNL     1       4.740   3.679  16.559  0.00  0.00    +0.000 NA
ATOM      3  C   UNL     1       3.871   3.391  17.576  0.00  0.00    +0.000 A 
ATOM      4  C   UNL     1       3.428   2.145  18.038  0.00  0.00    +0.000 A 
ATOM      5  C   UNL     1       2.511   2.103  19.095  0.00  0.00    +0.000 A 
ATOM      6  C   UNL     1       2.039   3.279  19.691  0.00  0.00    +0.000 A 
ATOM      7  C   UNL     1       1.041   3.216  20.813  0.00  0.00    +0.000 C 
ATOM      8  C   UNL     1       2.491   4.534  19.243  0.00  0.00    +0.000 A 
ATOM      9  C   UNL     1       3.408   4.551  18.182  0.00  0.00    +0.000 A 
ATOM     10  N   UNL     1       4.048   5.563  17.503  0.00  0.00    +0.000 N 
ENDROOT
BRANCH   1  12
ATOM     11  C   UNL     1       6.286   4.804  14.503  0.00  0.00    +0.000 C 
ATOM     12  C   UNL     1       5.642   5.743  15.510  0.00  0.00    +0.000 C 
ENDBRANCH   1  12
BRANCH  10  13
ATOM     13  C   UNL     1       3.946   6.973  17.840  0.00  0.00    +0.000 C 
BRANCH  13  14
ATOM     14  C   UNL     1       2.632   7.603  17.379  0.00  0.00    +0.000 C 
BRANCH  14  15
ATOM     15  C   UNL     1       1.970   8.482  18.452  0.00  0.00    +0.000 C 
BRANCH  15  16
ATOM     16  C   UNL     1       1.775   9.953  18.076  0.00  0.00    +0.000 C 
BRANCH  16  17
ATOM     17  S   UNL     1       0.807  10.825  19.351  0.00  0.00    +0.000 S 
BRANCH  17  18
ATOM     18  C   UNL     1      -0.854  10.840  18.707  0.00  0.00    +0.000 A 
ATOM     19  C   UNL     1      -1.321  10.052  17.651  0.00  0.00    +0.000 A 
ATOM     20  C   UNL     1      -2.644  10.167  17.208  0.00  0.00    +0.000 A 
ATOM     21  C   UNL     1      -3.506  11.074  17.820  0.00  0.00    +0.000 A 
ATOM     22 CL   UNL     1      -5.122  11.233  17.257  0.00  0.00    +0.000 Cl
ATOM     23  C   UNL     1      -3.062  11.856  18.881  0.00  0.00    +0.000 A 
ATOM     24  C   UNL     1      -1.743  11.736  19.321  0.00  0.00    +0.000 A 
ENDBRANCH  17  18
ENDBRANCH  16  17
ENDBRANCH  15  16
ENDBRANCH  14  15
ENDBRANCH  13  14
ENDBRANCH  10  13
TORSDOF 7
ENDMDL
MODEL 5
REMARK VINA RESULT:      -7.2      4.116      7.936
REMARK  Name = 
REMARK  9 active torsions:
REMARK  status: ('A' for Active; 'I' for Inactive)
REMARK    1  A    between atoms: C_1  and  C_2
REMARK    2  A    between atoms: C_2  and  C_3
REMARK    3  A    between atoms: C_8  and  C_9
REMARK    4  A    between atoms: N_12  and  C_13
REMARK    5  A    between atoms: C_13  and  C_14
REMARK    6  A    between atoms: C_14  and  C_15
REMARK    7  A    between atoms: C_15  and  C_16
REMARK    8  A    between atoms: C_16  and  S_17
REMARK    9  A    between atoms: S_17  and  C_18
REMARK                            x       y       z     vdW  Elec       q    Type
REMARK                         _______ _______ _______ _____ _____    ______ ____
ROOT
ATOM      1  C   UNL     1       2.333   7.594  18.828  0.00  0.00    +0.000 A 
ATOM      2  N   UNL     1       1.915   8.792  18.468  0.00  0.00    +0.000 NA
ATOM      3  C   UNL     1       1.202   9.279  19.531  0.00  0.00    +0.000 A 
ATOM      4  C   UNL     1       0.553  10.511  19.672  0.00  0.00    +0.000 A 
ATOM      5  C   UNL     1      -0.104  10.796  20.876  0.00  0.00    +0.000 A 
ATOM      6  C   UNL     1      -0.121   9.870  21.927  0.00  0.00    +0.000 A 
ATOM      7  C   UNL     1      -0.816  10.198  23.218  0.00  0.00    +0.000 C 
ATOM      8  C   UNL     1       0.516   8.624  21.786  0.00  0.00    +0.000 A 
ATOM      9  C   UNL     1       1.168   8.362  20.573  0.00  0.00    +0.000 A 
ATOM     10  N   UNL     1       1.876   7.283  20.094  0.00  0.00    +0.000 N 
ENDROOT
BRANCH   1  12
ATOM     11  C   UNL     1       4.207   7.529  17.186  0.00  0.00    +0.000 C 
ATOM     12  C   UNL     1       3.190   6.718  17.972  0.00  0.00    +0.000 C 
ENDBRANCH   1  12
BRANCH  10  13
ATOM     13  C   UNL     1       2.041   6.026  20.804  0.00  0.00    +0.000 C 
BRANCH  13  14
ATOM     14  C   UNL     1       1.166   4.906  20.245  0.00  0.00    +0.000 C 
BRANCH  14  15
ATOM     15  C   UNL     1       1.231   3.613  21.072  0.00  0.00    +0.000 C 
BRANCH  15  16
ATOM     16  C   UNL     1       2.016   2.460  20.440  0.00  0.00    +0.000 C 
BRANCH  16  17
ATOM     17  S   UNL     1       1.909   2.524  18.621  0.00  0.00    +0.000 S 
BRANCH  17  18
ATOM     18  C   UNL     1       3.470   3.218  18.114  0.00  0.00    +0.000 A 
ATOM     19  C   UNL     1       3.876   3.421  16.792  0.00  0.00    +0.000 A 
ATOM     20  C   UNL     1       5.141   3.949  16.510  0.00  0.00    +0.000 A 
ATOM     21  C   UNL     1       6.008   4.276  17.551  0.00  0.00    +0.000 A 
ATOM     22 CL   UNL     1       7.570   4.899  17.200  0.00  0.00    +0.000 Cl
ATOM     23  C   UNL     1       5.615   4.093  18.872  0.00  0.00    +0.000 A 
ATOM     24  C   UNL     1       4.351   3.568  19.149  0.00  0.00    +0.000 A 
ENDBRANCH  17  18
ENDBRANCH  16  17
ENDBRANCH  15  16
ENDBRANCH  14  15
ENDBRANCH  13  14
ENDBRANCH  10  13
TORSDOF 7
ENDMDL
MODEL 6
REMARK VINA RESULT:      -7.2      4.089      7.838
REMARK  Name = 
REMARK  9 active torsions:
REMARK  status: ('A' for Active; 'I' for Inactive)
REMARK    1  A    between atoms: C_1  and  C_2
REMARK    2  A    between atoms: C_2  and  C_3
REMARK    3  A    between atoms: C_8  and  C_9
REMARK    4  A    between atoms: N_12  and  C_13
REMARK    5  A    between atoms: C_13  and  C_14
REMARK    6  A    between atoms: C_14  and  C_15
REMARK    7  A    between atoms: C_15  and  C_16
REMARK    8  A    between atoms: C_16  and  S_17
REMARK    9  A    between atoms: S_17  and  C_18
REMARK                            x       y       z     vdW  Elec       q    Type
REMARK                         _______ _______ _______ _____ _____    ______ ____
ROOT
ATOM      1  C   UNL     1       2.378   7.627  18.655  0.00  0.00    +0.000 A 
ATOM      2  N   UNL     1       1.884   8.810  18.346  0.00  0.00    +0.000 NA
ATOM      3  C   UNL     1       1.214   9.242  19.459  0.00  0.00    +0.000 A 
ATOM      4  C   UNL     1       0.517  10.439  19.664  0.00  0.00    +0.000 A 
ATOM      5  C   UNL     1      -0.081  10.669  20.910  0.00  0.00    +0.000 A 
ATOM      6  C   UNL     1       0.008   9.723  21.940  0.00  0.00    +0.000 A 
ATOM      7  C   UNL     1      -0.624   9.992  23.276  0.00  0.00    +0.000 C 
ATOM      8  C   UNL     1       0.693   8.511  21.735  0.00  0.00    +0.000 A 
ATOM      9  C   UNL     1       1.284   8.305  20.481  0.00  0.00    +0.000 A 
ATOM     10  N   UNL     1       2.012   7.270  19.938  0.00  0.00    +0.000 N 
ENDROOT
BRANCH   1  12
ATOM     11  C   UNL     1       4.223   7.672  16.979  0.00  0.00    +0.000 C 
ATOM     12  C   UNL     1       3.223   6.810  17.732  0.00  0.00    +0.000 C 
ENDBRANCH   1  12
BRANCH  10  13
ATOM     13  C   UNL     1       2.277   6.010  20.610  0.00  0.00    +0.000 C 
BRANCH  13  14
ATOM     14  C   UNL     1       1.134   5.006  20.466  0.00  0.00    +0.000 C 
BRANCH  14  15
ATOM     15  C   UNL     1       1.294   4.071  19.257  0.00  0.00    +0.000 C 
BRANCH  15  16
ATOM     16  C   UNL     1       1.810   2.664  19.570  0.00  0.00    +0.000 C 
BRANCH  16  17
ATOM     17  S   UNL     1       2.860   2.043  18.214  0.00  0.00    +0.000 S 
BRANCH  17  18
ATOM     18  C   UNL     1       4.232   3.180  18.166  0.00  0.00    +0.000 A 
ATOM     19  C   UNL     1       4.832   3.773  19.279  0.00  0.00    +0.000 A 
ATOM     20  C   UNL     1       5.889   4.678  19.120  0.00  0.00    +0.000 A 
ATOM     21  C   UNL     1       6.349   4.993  17.843  0.00  0.00    +0.000 A 
ATOM     22 CL   UNL     1       7.628   6.124  17.650  0.00  0.00    +0.000 Cl
ATOM     23  C   UNL     1       5.771   4.402  16.726  0.00  0.00    +0.000 A 
ATOM     24  C   UNL     1       4.719   3.498  16.889  0.00  0.00    +0.000 A 
ENDBRANCH  17  18
ENDBRANCH  16  17
ENDBRANCH  15  16
ENDBRANCH  14  15
ENDBRANCH  13  14
ENDBRANCH  10  13
TORSDOF 7
ENDMDL
MODEL 7
REMARK VINA RESULT:      -7.2      1.444      1.923
REMARK  Name = 
REMARK  9 active torsions:
REMARK  status: ('A' for Active; 'I' for Inactive)
REMARK    1  A    between atoms: C_1  and  C_2
REMARK    2  A    between atoms: C_2  and  C_3
REMARK    3  A    between atoms: C_8  and  C_9
REMARK    4  A    between atoms: N_12  and  C_13
REMARK    5  A    between atoms: C_13  and  C_14
REMARK    6  A    between atoms: C_14  and  C_15
REMARK    7  A    between atoms: C_15  and  C_16
REMARK    8  A    between atoms: C_16  and  S_17
REMARK    9  A    between atoms: S_17  and  C_18
REMARK                            x       y       z     vdW  Elec       q    Type
REMARK                         _______ _______ _______ _____ _____    ______ ____
ROOT
ATOM      1  C   UNL     1       5.894   5.623  18.041  0.00  0.00    +0.000 A 
ATOM      2  N   UNL     1       6.071   4.560  18.803  0.00  0.00    +0.000 NA
ATOM      3  C   UNL     1       4.843   3.967  18.917  0.00  0.00    +0.000 A 
ATOM      4  C   UNL     1       4.481   2.805  19.610  0.00  0.00    +0.000 A 
ATOM      5  C   UNL     1       3.148   2.379  19.565  0.00  0.00    +0.000 A 
ATOM      6  C   UNL     1       2.183   3.096  18.846  0.00  0.00    +0.000 A 
ATOM      7  C   UNL     1       0.760   2.615  18.794  0.00  0.00    +0.000 C 
ATOM      8  C   UNL     1       2.536   4.272  18.160  0.00  0.00    +0.000 A 
ATOM      9  C   UNL     1       3.877   4.679  18.219  0.00  0.00    +0.000 A 
ATOM     10  N   UNL     1       4.565   5.746  17.686  0.00  0.00    +0.000 N 
ENDROOT
BRANCH   1  12
ATOM     11  C   UNL     1       8.082   6.629  18.684  0.00  0.00    +0.000 C 
ATOM     12  C   UNL     1       6.995   6.543  17.625  0.00  0.00    +0.000 C 
ENDBRANCH   1  12
BRANCH  10  13
ATOM     13  C   UNL     1       3.952   6.828  16.936  0.00  0.00    +0.000 C 
BRANCH  13  14
ATOM     14  C   UNL     1       3.492   7.984  17.825  0.00  0.00    +0.000 C 
BRANCH  14  15
ATOM     15  C   UNL     1       1.965   8.159  17.852  0.00  0.00    +0.000 C 
BRANCH  15  16
ATOM     16  C   UNL     1       1.403   8.879  19.081  0.00  0.00    +0.000 C 
BRANCH  16  17
ATOM     17  S   UNL     1       1.053  10.628  18.704  0.00  0.00    +0.000 S 
BRANCH  17  18
ATOM     18  C   UNL     1      -0.694  10.659  18.351  0.00  0.00    +0.000 A 
ATOM     19  C   UNL     1      -1.356   9.810  17.460  0.00  0.00    +0.000 A 
ATOM     20  C   UNL     1      -2.732   9.944  17.239  0.00  0.00    +0.000 A 
ATOM     21  C   UNL     1      -3.452  10.932  17.908  0.00  0.00    +0.000 A 
ATOM     22 CL   UNL     1      -5.135  11.111  17.614  0.00  0.00    +0.000 Cl
ATOM     23  C   UNL     1      -2.811  11.776  18.807  0.00  0.00    +0.000 A 
ATOM     24  C   UNL     1      -1.439  11.637  19.027  0.00  0.00    +0.000 A 
ENDBRANCH  17  18
ENDBRANCH  16  17
ENDBRANCH  15  16
ENDBRANCH  14  15
ENDBRANCH  13  14
ENDBRANCH  10  13
TORSDOF 7
ENDMDL
MODEL 8
REMARK VINA RESULT:      -7.2      2.779      5.210
REMARK  Name = 
REMARK  9 active torsions:
REMARK  status: ('A' for Active; 'I' for Inactive)
REMARK    1  A    between atoms: C_1  and  C_2
REMARK    2  A    between atoms: C_2  and  C_3
REMARK    3  A    between atoms: C_8  and  C_9
REMARK    4  A    between atoms: N_12  and  C_13
REMARK    5  A    between atoms: C_13  and  C_14
REMARK    6  A    between atoms: C_14  and  C_15
REMARK    7  A    between atoms: C_15  and  C_16
REMARK    8  A    between atoms: C_16  and  S_17
REMARK    9  A    between atoms: S_17  and  C_18
REMARK                            x       y       z     vdW  Elec       q    Type
REMARK                         _______ _______ _______ _____ _____    ______ ____
ROOT
ATOM      1  C   UNL     1       6.627   5.630  16.460  0.00  0.00    +0.000 A 
ATOM      2  N   UNL     1       7.514   5.837  15.505  0.00  0.00    +0.000 NA
ATOM      3  C   UNL     1       7.097   5.095  14.433  0.00  0.00    +0.000 A 
ATOM      4  C   UNL     1       7.676   4.966  13.165  0.00  0.00    +0.000 A 
ATOM      5  C   UNL     1       7.048   4.153  12.214  0.00  0.00    +0.000 A 
ATOM      6  C   UNL     1       5.861   3.471  12.515  0.00  0.00    +0.000 A 
ATOM      7  C   UNL     1       5.191   2.616  11.477  0.00  0.00    +0.000 C 
ATOM      8  C   UNL     1       5.282   3.583  13.792  0.00  0.00    +0.000 A 
ATOM      9  C   UNL     1       5.928   4.404  14.727  0.00  0.00    +0.000 A 
ATOM     10  N   UNL     1       5.659   4.742  16.034  0.00  0.00    +0.000 N 
ENDROOT
BRANCH   1  12
ATOM     11  C   UNL     1       7.715   5.636  18.702  0.00  0.00    +0.000 C 
ATOM     12  C   UNL     1       6.678   6.286  17.801  0.00  0.00    +0.000 C 
ENDBRANCH   1  12
BRANCH  10  13
ATOM     13  C   UNL     1       4.567   4.189  16.818  0.00  0.00    +0.000 C 
BRANCH  13  14
ATOM     14  C   UNL     1       3.741   5.261  17.528  0.00  0.00    +0.000 C 
BRANCH  14  15
ATOM     15  C   UNL     1       2.909   4.712  18.698  0.00  0.00    +0.000 C 
BRANCH  15  16
ATOM     16  C   UNL     1       2.293   5.764  19.624  0.00  0.00    +0.000 C 
BRANCH  16  17
ATOM     17  S   UNL     1       2.432   7.430  18.896  0.00  0.00    +0.000 S 
BRANCH  17  18
ATOM     18  C   UNL     1       1.489   8.469  19.995  0.00  0.00    +0.000 A 
ATOM     19  C   UNL     1       1.261   8.217  21.351  0.00  0.00    +0.000 A 
ATOM     20  C   UNL     1       0.478   9.091  22.114  0.00  0.00    +0.000 A 
ATOM     21  C   UNL     1      -0.083  10.222  21.522  0.00  0.00    +0.000 A 
ATOM     22 CL   UNL     1      -1.066  11.278  22.455  0.00  0.00    +0.000 Cl
ATOM     23  C   UNL     1       0.146  10.493  20.178  0.00  0.00    +0.000 A 
ATOM     24  C   UNL     1       0.930   9.621  19.421  0.00  0.00    +0.000 A 
ENDBRANCH  17  18
ENDBRANCH  16  17
ENDBRANCH  15  16
ENDBRANCH  14  15
ENDBRANCH  13  14
ENDBRANCH  10  13
TORSDOF 7
ENDMDL
MODEL 9
REMARK VINA RESULT:      -7.2      6.225      8.115
REMARK  Name = 
REMARK  9 active torsions:
REMARK  status: ('A' for Active; 'I' for Inactive)
REMARK    1  A    between atoms: C_1  and  C_2
REMARK    2  A    between atoms: C_2  and  C_3
REMARK    3  A    between atoms: C_8  and  C_9
REMARK    4  A    between atoms: N_12  and  C_13
REMARK    5  A    between atoms: C_13  and  C_14
REMARK    6  A    between atoms: C_14  and  C_15
REMARK    7  A    between atoms: C_15  and  C_16
REMARK    8  A    between atoms: C_16  and  S_17
REMARK    9  A    between atoms: S_17  and  C_18
REMARK                            x       y       z     vdW  Elec       q    Type
REMARK                         _______ _______ _______ _____ _____    ______ ____
ROOT
ATOM      1  C   UNL     1       5.715   4.412  16.601  0.00  0.00    +0.000 A 
ATOM      2  N   UNL     1       4.616   3.697  16.453  0.00  0.00    +0.000 NA
ATOM      3  C   UNL     1       3.762   4.107  17.442  0.00  0.00    +0.000 A 
ATOM      4  C   UNL     1       2.462   3.674  17.726  0.00  0.00    +0.000 A 
ATOM      5  C   UNL     1       1.770   4.262  18.792  0.00  0.00    +0.000 A 
ATOM      6  C   UNL     1       2.360   5.266  19.571  0.00  0.00    +0.000 A 
ATOM      7  C   UNL     1       1.598   5.898  20.700  0.00  0.00    +0.000 C 
ATOM      8  C   UNL     1       3.672   5.695  19.301  0.00  0.00    +0.000 A 
ATOM      9  C   UNL     1       4.344   5.093  18.228  0.00  0.00    +0.000 A 
ATOM     10  N   UNL     1       5.600   5.255  17.688  0.00  0.00    +0.000 N 
ENDROOT
BRANCH   1  12
ATOM     11  C   UNL     1       6.520   4.559  14.247  0.00  0.00    +0.000 C 
ATOM     12  C   UNL     1       6.901   4.313  15.697  0.00  0.00    +0.000 C 
ENDBRANCH   1  12
BRANCH  10  13
ATOM     13  C   UNL     1       6.623   6.130  18.235  0.00  0.00    +0.000 C 
BRANCH  13  14
ATOM     14  C   UNL     1       6.829   7.397  17.405  0.00  0.00    +0.000 C 
BRANCH  14  15
ATOM     15  C   UNL     1       8.181   8.080  17.665  0.00  0.00    +0.000 C 
BRANCH  15  16
ATOM     16  C   UNL     1       8.120   9.581  17.961  0.00  0.00    +0.000 C 
BRANCH  16  17
ATOM     17  S   UNL     1       9.226  10.014  19.344  0.00  0.00    +0.000 S 
BRANCH  17  18
ATOM     18  C   UNL     1      10.084  11.471  18.780  0.00  0.00    +0.000 A 
ATOM     19  C   UNL     1      10.595  11.663  17.494  0.00  0.00    +0.000 A 
ATOM     20  C   UNL     1      11.279  12.841  17.169  0.00  0.00    +0.000 A 
ATOM     21  C   UNL     1      11.455  13.832  18.132  0.00  0.00    +0.000 A 
ATOM     22 CL   UNL     1      12.317  15.265  17.737  0.00  0.00    +0.000 Cl
ATOM     23  C   UNL     1      10.940  13.663  19.412  0.00  0.00    +0.000 A 
ATOM     24  C   UNL     1      10.257  12.488  19.731  0.00  0.00    +0.000 A 
ENDBRANCH  17  18
ENDBRANCH  16  17
ENDBRANCH  15  16
ENDBRANCH  14  15
ENDBRANCH  13  14
ENDBRANCH  10  13
TORSDOF 7
ENDMDL
