MODEL 1
REMARK VINA RESULT:      -8.9      0.000      0.000
REMARK  Name = 
REMARK  5 active torsions:
REMARK  status: ('A' for Active; 'I' for Inactive)
REMARK    1  A    between atoms: C_1  and  S_2
REMARK    2  A    between atoms: S_2  and  C_5
REMARK    3  A    between atoms: N_13  and  C_14
REMARK    4  A    between atoms: C_14  and  C_15
REMARK    5  A    between atoms: C_15  and  C_17
REMARK                            x       y       z     vdW  Elec       q    Type
REMARK                         _______ _______ _______ _____ _____    ______ ____
ROOT
ATOM      1  C   UNL     1       5.052   3.828  19.198  0.00  0.00    +0.000 A 
ATOM      2  N   UNL     1       6.165   4.291  19.738  0.00  0.00    +0.000 NA
ATOM      3  C   UNL     1       6.572   5.322  18.955  0.00  0.00    +0.000 A 
ATOM      4  C   UNL     1       7.695   6.151  19.113  0.00  0.00    +0.000 A 
ATOM      5  C   UNL     1       7.941   7.146  18.165  0.00  0.00    +0.000 A 
ATOM      6  C   UNL     1       7.090   7.305  17.079  0.00  0.00    +0.000 A 
ATOM      7  C   UNL     1       5.966   6.492  16.912  0.00  0.00    +0.000 A 
ATOM      8  C   UNL     1       5.719   5.502  17.874  0.00  0.00    +0.000 A 
ATOM      9  N   UNL     1       4.724   4.565  18.074  0.00  0.00    +0.000 N 
ENDROOT
BRANCH   1  11
ATOM     10  C   UNL     1       3.673   1.555  18.388  0.00  0.00    +0.000 C 
ATOM     11  S   UNL     1       4.162   2.455  19.844  0.00  0.00    +0.000 S 
ATOM     12  O   UNL     1       2.996   3.040  20.483  0.00  0.00    +0.000 OA
ATOM     13  O   UNL     1       5.132   1.695  20.601  0.00  0.00    +0.000 OA
ENDBRANCH   1  11
BRANCH   9  14
ATOM     14  C   UNL     1       3.519   4.335  17.286  0.00  0.00    +0.000 C 
BRANCH  14  15
ATOM     15  C   UNL     1       2.259   4.997  17.803  0.00  0.00    +0.000 C 
ATOM     16  O   UNL     1       1.142   4.529  17.594  0.00  0.00    +0.000 OA
BRANCH  15  17
ATOM     17  C   UNL     1       2.374   6.302  18.518  0.00  0.00    +0.000 A 
ATOM     18  C   UNL     1       2.107   6.290  19.906  0.00  0.00    +0.000 A 
ATOM     19  C   UNL     1       1.676   7.452  20.536  0.00  0.00    +0.000 A 
ATOM     20  C   UNL     1       1.549   8.557  19.729  0.00  0.00    +0.000 A 
ATOM     21  C   UNL     1       2.138   8.659  18.473  0.00  0.00    +0.000 A 
ATOM     22  C   UNL     1       2.521   7.509  17.818  0.00  0.00    +0.000 A 
ATOM     23  C   UNL     1       1.765   9.991  17.924  0.00  0.00    +0.000 C 
ATOM     24  C   UNL     1       0.348   9.899  18.464  0.00  0.00    +0.000 C 
ATOM     25  O   UNL     1       0.526   9.490  19.862  0.00  0.00    +0.000 OA
ENDBRANCH  15  17
ENDBRANCH  14  15
ENDBRANCH   9  14
TORSDOF 4
ENDMDL
MODEL 2
REMARK VINA RESULT:      -8.2      3.296      4.833
REMARK  Name = 
REMARK  5 active torsions:
REMARK  status: ('A' for Active; 'I' for Inactive)
REMARK    1  A    between atoms: C_1  and  S_2
REMARK    2  A    between atoms: S_2  and  C_5
REMARK    3  A    between atoms: N_13  and  C_14
REMARK    4  A    between atoms: C_14  and  C_15
REMARK    5  A    between atoms: C_15  and  C_17
REMARK                            x       y       z     vdW  Elec       q    Type
REMARK                         _______ _______ _______ _____ _____    ______ ____
ROOT
ATOM      1  C   UNL     1       6.972   4.581  16.262  0.00  0.00    +0.000 A 
ATOM      2  N   UNL     1       7.818   4.727  15.259  0.00  0.00    +0.000 NA
ATOM      3  C   UNL     1       7.125   4.443  14.127  0.00  0.00    +0.000 A 
ATOM      4  C   UNL     1       7.575   4.467  12.796  0.00  0.00    +0.000 A 
ATOM      5  C   UNL     1       6.690   4.111  11.776  0.00  0.00    +0.000 A 
ATOM      6  C   UNL     1       5.389   3.731  12.078  0.00  0.00    +0.000 A 
ATOM      7  C   UNL     1       4.926   3.708  13.396  0.00  0.00    +0.000 A 
ATOM      8  C   UNL     1       5.816   4.079  14.415  0.00  0.00    +0.000 A 
ATOM      9  N   UNL     1       5.723   4.220  15.786  0.00  0.00    +0.000 N 
ENDROOT
BRANCH   1  11
ATOM     10  C   UNL     1       7.575   6.576  18.101  0.00  0.00    +0.000 C 
ATOM     11  S   UNL     1       7.420   4.809  17.947  0.00  0.00    +0.000 S 
ATOM     12  O   UNL     1       8.725   4.182  18.070  0.00  0.00    +0.000 OA
ATOM     13  O   UNL     1       6.284   4.338  18.710  0.00  0.00    +0.000 OA
ENDBRANCH   1  11
BRANCH   9  14
ATOM     14  C   UNL     1       4.559   4.037  16.642  0.00  0.00    +0.000 C 
BRANCH  14  15
ATOM     15  C   UNL     1       3.874   5.308  17.102  0.00  0.00    +0.000 C 
ATOM     16  O   UNL     1       4.251   6.420  16.740  0.00  0.00    +0.000 OA
BRANCH  15  17
ATOM     17  C   UNL     1       2.761   5.207  18.089  0.00  0.00    +0.000 A 
ATOM     18  C   UNL     1       2.745   6.167  19.127  0.00  0.00    +0.000 A 
ATOM     19  C   UNL     1       2.121   5.869  20.333  0.00  0.00    +0.000 A 
ATOM     20  C   UNL     1       1.542   4.625  20.415  0.00  0.00    +0.000 A 
ATOM     21  C   UNL     1       1.254   3.841  19.303  0.00  0.00    +0.000 A 
ATOM     22  C   UNL     1       1.905   4.095  18.117  0.00  0.00    +0.000 A 
ATOM     23  C   UNL     1       0.644   2.580  19.807  0.00  0.00    +0.000 C 
ATOM     24  C   UNL     1       1.602   2.500  20.984  0.00  0.00    +0.000 C 
ATOM     25  O   UNL     1       1.562   3.845  21.567  0.00  0.00    +0.000 OA
ENDBRANCH  15  17
ENDBRANCH  14  15
ENDBRANCH   9  14
TORSDOF 4
ENDMDL
MODEL 3
REMARK VINA RESULT:      -7.8      4.465      7.274
REMARK  Name = 
REMARK  5 active torsions:
REMARK  status: ('A' for Active; 'I' for Inactive)
REMARK    1  A    between atoms: C_1  and  S_2
REMARK    2  A    between atoms: S_2  and  C_5
REMARK    3  A    between atoms: N_13  and  C_14
REMARK    4  A    between atoms: C_14  and  C_15
REMARK    5  A    between atoms: C_15  and  C_17
REMARK                            x       y       z     vdW  Elec       q    Type
REMARK                         _______ _______ _______ _____ _____    ______ ____
ROOT
ATOM      1  C   UNL     1       5.882   4.740  18.206  0.00  0.00    +0.000 A 
ATOM      2  N   UNL     1       5.109   4.962  19.253  0.00  0.00    +0.000 NA
ATOM      3  C   UNL     1       3.872   4.516  18.921  0.00  0.00    +0.000 A 
ATOM      4  C   UNL     1       2.702   4.515  19.699  0.00  0.00    +0.000 A 
ATOM      5  C   UNL     1       1.520   4.024  19.143  0.00  0.00    +0.000 A 
ATOM      6  C   UNL     1       1.501   3.553  17.837  0.00  0.00    +0.000 A 
ATOM      7  C   UNL     1       2.658   3.543  17.053  0.00  0.00    +0.000 A 
ATOM      8  C   UNL     1       3.845   4.026  17.621  0.00  0.00    +0.000 A 
ATOM      9  N   UNL     1       5.155   4.134  17.196  0.00  0.00    +0.000 N 
ENDROOT
BRANCH   1  11
ATOM     10  C   UNL     1       7.556   6.832  17.467  0.00  0.00    +0.000 C 
ATOM     11  S   UNL     1       7.582   5.186  18.145  0.00  0.00    +0.000 S 
ATOM     12  O   UNL     1       8.172   4.264  17.190  0.00  0.00    +0.000 OA
ATOM     13  O   UNL     1       8.016   5.219  19.525  0.00  0.00    +0.000 OA
ENDBRANCH   1  11
BRANCH   9  14
ATOM     14  C   UNL     1       5.738   3.711  15.929  0.00  0.00    +0.000 C 
BRANCH  14  15
ATOM     15  C   UNL     1       5.694   4.731  14.811  0.00  0.00    +0.000 C 
ATOM     16  O   UNL     1       5.602   5.937  15.029  0.00  0.00    +0.000 OA
BRANCH  15  17
ATOM     17  C   UNL     1       5.679   4.249  13.399  0.00  0.00    +0.000 A 
ATOM     18  C   UNL     1       4.409   4.043  12.813  0.00  0.00    +0.000 A 
ATOM     19  C   UNL     1       4.270   3.138  11.766  0.00  0.00    +0.000 A 
ATOM     20  C   UNL     1       5.423   2.505  11.367  0.00  0.00    +0.000 A 
ATOM     21  C   UNL     1       6.697   2.958  11.693  0.00  0.00    +0.000 A 
ATOM     22  C   UNL     1       6.851   3.814  12.761  0.00  0.00    +0.000 A 
ATOM     23  C   UNL     1       7.666   2.007  11.084  0.00  0.00    +0.000 C 
ATOM     24  C   UNL     1       6.812   0.799  11.433  0.00  0.00    +0.000 C 
ATOM     25  O   UNL     1       5.468   1.170  10.977  0.00  0.00    +0.000 OA
ENDBRANCH  15  17
ENDBRANCH  14  15
ENDBRANCH   9  14
TORSDOF 4
ENDMDL
MODEL 4
REMARK VINA RESULT:      -7.7      2.823      4.488
REMARK  Name = 
REMARK  5 active torsions:
REMARK  status: ('A' for Active; 'I' for Inactive)
REMARK    1  A    between atoms: C_1  and  S_2
REMARK    2  A    between atoms: S_2  and  C_5
REMARK    3  A    between atoms: N_13  and  C_14
REMARK    4  A    between atoms: C_14  and  C_15
REMARK    5  A    between atoms: C_15  and  C_17
REMARK                            x       y       z     vdW  Elec       q    Type
REMARK                         _______ _______ _______ _____ _____    ______ ____
ROOT
ATOM      1  C   UNL     1       4.552   4.934  17.222  0.00  0.00    +0.000 A 
ATOM      2  N   UNL     1       4.181   3.692  16.973  0.00  0.00    +0.000 NA
ATOM      3  C   UNL     1       3.094   3.451  17.749  0.00  0.00    +0.000 A 
ATOM      4  C   UNL     1       2.323   2.280  17.838  0.00  0.00    +0.000 A 
ATOM      5  C   UNL     1       1.251   2.241  18.731  0.00  0.00    +0.000 A 
ATOM      6  C   UNL     1       0.959   3.343  19.524  0.00  0.00    +0.000 A 
ATOM      7  C   UNL     1       1.714   4.517  19.443  0.00  0.00    +0.000 A 
ATOM      8  C   UNL     1       2.782   4.553  18.535  0.00  0.00    +0.000 A 
ATOM      9  N   UNL     1       3.699   5.510  18.148  0.00  0.00    +0.000 N 
ENDROOT
BRANCH   1  11
ATOM     10  C   UNL     1       6.817   4.332  15.730  0.00  0.00    +0.000 C 
ATOM     11  S   UNL     1       5.948   5.696  16.473  0.00  0.00    +0.000 S 
ATOM     12  O   UNL     1       6.717   6.231  17.583  0.00  0.00    +0.000 OA
ATOM     13  O   UNL     1       5.405   6.562  15.449  0.00  0.00    +0.000 OA
ENDBRANCH   1  11
BRANCH   9  14
ATOM     14  C   UNL     1       3.811   6.895  18.590  0.00  0.00    +0.000 C 
BRANCH  14  15
ATOM     15  C   UNL     1       2.904   7.884  17.889  0.00  0.00    +0.000 C 
ATOM     16  O   UNL     1       3.174   8.349  16.784  0.00  0.00    +0.000 OA
BRANCH  15  17
ATOM     17  C   UNL     1       1.687   8.372  18.601  0.00  0.00    +0.000 A 
ATOM     18  C   UNL     1       0.829   9.229  17.874  0.00  0.00    +0.000 A 
ATOM     19  C   UNL     1       0.010  10.124  18.554  0.00  0.00    +0.000 A 
ATOM     20  C   UNL     1       0.101  10.095  19.924  0.00  0.00    +0.000 A 
ATOM     21  C   UNL     1       0.663   9.037  20.631  0.00  0.00    +0.000 A 
ATOM     22  C   UNL     1       1.516   8.174  19.980  0.00  0.00    +0.000 A 
ATOM     23  C   UNL     1       0.576   9.384  22.076  0.00  0.00    +0.000 C 
ATOM     24  C   UNL     1       0.928  10.840  21.823  0.00  0.00    +0.000 C 
ATOM     25  O   UNL     1       0.042  11.234  20.721  0.00  0.00    +0.000 OA
ENDBRANCH  15  17
ENDBRANCH  14  15
ENDBRANCH   9  14
TORSDOF 4
ENDMDL
MODEL 5
REMARK VINA RESULT:      -7.6      3.722      5.363
REMARK  Name = 
REMARK  5 active torsions:
REMARK  status: ('A' for Active; 'I' for Inactive)
REMARK    1  A    between atoms: C_1  and  S_2
REMARK    2  A    between atoms: S_2  and  C_5
REMARK    3  A    between atoms: N_13  and  C_14
REMARK    4  A    between atoms: C_14  and  C_15
REMARK    5  A    between atoms: C_15  and  C_17
REMARK                            x       y       z     vdW  Elec       q    Type
REMARK                         _______ _______ _______ _____ _____    ______ ____
ROOT
ATOM      1  C   UNL     1       6.705   5.643  15.800  0.00  0.00    +0.000 A 
ATOM      2  N   UNL     1       7.601   5.697  14.832  0.00  0.00    +0.000 NA
ATOM      3  C   UNL     1       7.123   4.926  13.822  0.00  0.00    +0.000 A 
ATOM      4  C   UNL     1       7.700   4.671  12.566  0.00  0.00    +0.000 A 
ATOM      5  C   UNL     1       7.040   3.819  11.679  0.00  0.00    +0.000 A 
ATOM      6  C   UNL     1       5.837   3.227  12.039  0.00  0.00    +0.000 A 
ATOM      7  C   UNL     1       5.248   3.476  13.282  0.00  0.00    +0.000 A 
ATOM      8  C   UNL     1       5.910   4.343  14.164  0.00  0.00    +0.000 A 
ATOM      9  N   UNL     1       5.635   4.852  15.418  0.00  0.00    +0.000 N 
ENDROOT
BRANCH   1  11
ATOM     10  C   UNL     1       7.627   5.216  18.387  0.00  0.00    +0.000 C 
ATOM     11  S   UNL     1       6.898   6.462  17.344  0.00  0.00    +0.000 S 
ATOM     12  O   UNL     1       5.543   6.748  17.783  0.00  0.00    +0.000 OA
ATOM     13  O   UNL     1       7.848   7.525  17.094  0.00  0.00    +0.000 OA
ENDBRANCH   1  11
BRANCH   9  14
ATOM     14  C   UNL     1       4.456   4.640  16.248  0.00  0.00    +0.000 C 
BRANCH  14  15
ATOM     15  C   UNL     1       4.395   3.315  16.979  0.00  0.00    +0.000 C 
ATOM     16  O   UNL     1       5.252   2.446  16.829  0.00  0.00    +0.000 OA
BRANCH  15  17
ATOM     17  C   UNL     1       3.215   3.026  17.844  0.00  0.00    +0.000 A 
ATOM     18  C   UNL     1       1.992   3.626  17.469  0.00  0.00    +0.000 A 
ATOM     19  C   UNL     1       1.015   3.862  18.430  0.00  0.00    +0.000 A 
ATOM     20  C   UNL     1       1.328   3.468  19.709  0.00  0.00    +0.000 A 
ATOM     21  C   UNL     1       2.355   2.577  20.005  0.00  0.00    +0.000 A 
ATOM     22  C   UNL     1       3.355   2.377  19.080  0.00  0.00    +0.000 A 
ATOM     23  C   UNL     1       2.375   2.414  21.484  0.00  0.00    +0.000 C 
ATOM     24  C   UNL     1       2.102   3.889  21.725  0.00  0.00    +0.000 C 
ATOM     25  O   UNL     1       0.970   4.190  20.842  0.00  0.00    +0.000 OA
ENDBRANCH  15  17
ENDBRANCH  14  15
ENDBRANCH   9  14
TORSDOF 4
ENDMDL
MODEL 6
REMARK VINA RESULT:      -7.5      2.459      4.261
REMARK  Name = 
REMARK  5 active torsions:
REMARK  status: ('A' for Active; 'I' for Inactive)
REMARK    1  A    between atoms: C_1  and  S_2
REMARK    2  A    between atoms: S_2  and  C_5
REMARK    3  A    between atoms: N_13  and  C_14
REMARK    4  A    between atoms: C_14  and  C_15
REMARK    5  A    between atoms: C_15  and  C_17
REMARK                            x       y       z     vdW  Elec       q    Type
REMARK                         _______ _______ _______ _____ _____    ______ ____
ROOT
ATOM      1  C   UNL     1       5.314   4.745  17.649  0.00  0.00    +0.000 A 
ATOM      2  N   UNL     1       5.029   3.483  17.383  0.00  0.00    +0.000 NA
ATOM      3  C   UNL     1       3.774   3.265  17.851  0.00  0.00    +0.000 A 
ATOM      4  C   UNL     1       3.013   2.085  17.799  0.00  0.00    +0.000 A 
ATOM      5  C   UNL     1       1.739   2.076  18.370  0.00  0.00    +0.000 A 
ATOM      6  C   UNL     1       1.240   3.215  18.988  0.00  0.00    +0.000 A 
ATOM      7  C   UNL     1       1.983   4.397  19.042  0.00  0.00    +0.000 A 
ATOM      8  C   UNL     1       3.256   4.403  18.456  0.00  0.00    +0.000 A 
ATOM      9  N   UNL     1       4.240   5.356  18.274  0.00  0.00    +0.000 N 
ENDROOT
BRANCH   1  11
ATOM     10  C   UNL     1       7.540   5.892  18.854  0.00  0.00    +0.000 C 
ATOM     11  S   UNL     1       6.858   5.492  17.259  0.00  0.00    +0.000 S 
ATOM     12  O   UNL     1       6.510   6.709  16.547  0.00  0.00    +0.000 OA
ATOM     13  O   UNL     1       7.636   4.448  16.628  0.00  0.00    +0.000 OA
ENDBRANCH   1  11
BRANCH   9  14
ATOM     14  C   UNL     1       4.222   6.765  18.646  0.00  0.00    +0.000 C 
BRANCH  14  15
ATOM     15  C   UNL     1       3.286   7.645  17.845  0.00  0.00    +0.000 C 
ATOM     16  O   UNL     1       3.555   8.020  16.706  0.00  0.00    +0.000 OA
BRANCH  15  17
ATOM     17  C   UNL     1       2.036   8.139  18.492  0.00  0.00    +0.000 A 
ATOM     18  C   UNL     1       1.235   9.023  17.732  0.00  0.00    +0.000 A 
ATOM     19  C   UNL     1       0.391   9.918  18.379  0.00  0.00    +0.000 A 
ATOM     20  C   UNL     1       0.398   9.861  19.752  0.00  0.00    +0.000 A 
ATOM     21  C   UNL     1       0.901   8.780  20.470  0.00  0.00    +0.000 A 
ATOM     22  C   UNL     1       1.779   7.917  19.853  0.00  0.00    +0.000 A 
ATOM     23  C   UNL     1       0.732   9.101  21.913  0.00  0.00    +0.000 C 
ATOM     24  C   UNL     1       1.120  10.556  21.711  0.00  0.00    +0.000 C 
ATOM     25  O   UNL     1       0.309  10.985  20.566  0.00  0.00    +0.000 OA
ENDBRANCH  15  17
ENDBRANCH  14  15
ENDBRANCH   9  14
TORSDOF 4
ENDMDL
MODEL 7
REMARK VINA RESULT:      -7.5      2.412      4.234
REMARK  Name = 
REMARK  5 active torsions:
REMARK  status: ('A' for Active; 'I' for Inactive)
REMARK    1  A    between atoms: C_1  and  S_2
REMARK    2  A    between atoms: S_2  and  C_5
REMARK    3  A    between atoms: N_13  and  C_14
REMARK    4  A    between atoms: C_14  and  C_15
REMARK    5  A    between atoms: C_15  and  C_17
REMARK                            x       y       z     vdW  Elec       q    Type
REMARK                         _______ _______ _______ _____ _____    ______ ____
ROOT
ATOM      1  C   UNL     1       5.087   4.699  18.648  0.00  0.00    +0.000 A 
ATOM      2  N   UNL     1       4.923   3.424  18.346  0.00  0.00    +0.000 NA
ATOM      3  C   UNL     1       3.611   3.145  18.551  0.00  0.00    +0.000 A 
ATOM      4  C   UNL     1       2.934   1.929  18.359  0.00  0.00    +0.000 A 
ATOM      5  C   UNL     1       1.572   1.858  18.661  0.00  0.00    +0.000 A 
ATOM      6  C   UNL     1       0.904   2.972  19.150  0.00  0.00    +0.000 A 
ATOM      7  C   UNL     1       1.563   4.189  19.341  0.00  0.00    +0.000 A 
ATOM      8  C   UNL     1       2.927   4.257  19.025  0.00  0.00    +0.000 A 
ATOM      9  N   UNL     1       3.881   5.257  19.035  0.00  0.00    +0.000 N 
ENDROOT
BRANCH   1  11
ATOM     10  C   UNL     1       7.637   4.431  17.576  0.00  0.00    +0.000 C 
ATOM     11  S   UNL     1       6.640   5.520  18.572  0.00  0.00    +0.000 S 
ATOM     12  O   UNL     1       7.124   5.523  19.942  0.00  0.00    +0.000 OA
ATOM     13  O   UNL     1       6.383   6.754  17.862  0.00  0.00    +0.000 OA
ENDBRANCH   1  11
BRANCH   9  14
ATOM     14  C   UNL     1       3.720   6.664  19.379  0.00  0.00    +0.000 C 
BRANCH  14  15
ATOM     15  C   UNL     1       2.993   7.512  18.357  0.00  0.00    +0.000 C 
ATOM     16  O   UNL     1       3.423   7.674  17.217  0.00  0.00    +0.000 OA
BRANCH  15  17
ATOM     17  C   UNL     1       1.759   8.239  18.775  0.00  0.00    +0.000 A 
ATOM     18  C   UNL     1       1.082   8.968  17.770  0.00  0.00    +0.000 A 
ATOM     19  C   UNL     1       0.288  10.054  18.122  0.00  0.00    +0.000 A 
ATOM     20  C   UNL     1       0.217  10.331  19.466  0.00  0.00    +0.000 A 
ATOM     21  C   UNL     1       0.582   9.424  20.455  0.00  0.00    +0.000 A 
ATOM     22  C   UNL     1       1.411   8.374  20.128  0.00  0.00    +0.000 A 
ATOM     23  C   UNL     1       0.366  10.098  21.764  0.00  0.00    +0.000 C 
ATOM     24  C   UNL     1       0.892  11.427  21.251  0.00  0.00    +0.000 C 
ATOM     25  O   UNL     1       0.185  11.623  19.980  0.00  0.00    +0.000 OA
ENDBRANCH  15  17
ENDBRANCH  14  15
ENDBRANCH   9  14
TORSDOF 4
ENDMDL
MODEL 8
REMARK VINA RESULT:      -7.5      1.419      1.906
REMARK  Name = 
REMARK  5 active torsions:
REMARK  status: ('A' for Active; 'I' for Inactive)
REMARK    1  A    between atoms: C_1  and  S_2
REMARK    2  A    between atoms: S_2  and  C_5
REMARK    3  A    between atoms: N_13  and  C_14
REMARK    4  A    between atoms: C_14  and  C_15
REMARK    5  A    between atoms: C_15  and  C_17
REMARK                            x       y       z     vdW  Elec       q    Type
REMARK                         _______ _______ _______ _____ _____    ______ ____
ROOT
ATOM      1  C   UNL     1       4.204   3.654  18.713  0.00  0.00    +0.000 A 
ATOM      2  N   UNL     1       5.509   3.523  18.563  0.00  0.00    +0.000 NA
ATOM      3  C   UNL     1       5.975   4.735  18.170  0.00  0.00    +0.000 A 
ATOM      4  C   UNL     1       7.299   5.116  17.894  0.00  0.00    +0.000 A 
ATOM      5  C   UNL     1       7.552   6.424  17.475  0.00  0.00    +0.000 A 
ATOM      6  C   UNL     1       6.509   7.328  17.328  0.00  0.00    +0.000 A 
ATOM      7  C   UNL     1       5.189   6.964  17.605  0.00  0.00    +0.000 A 
ATOM      8  C   UNL     1       4.942   5.653  18.036  0.00  0.00    +0.000 A 
ATOM      9  N   UNL     1       3.819   4.954  18.435  0.00  0.00    +0.000 N 
ENDROOT
BRANCH   1  11
ATOM     10  C   UNL     1       3.138   2.416  20.962  0.00  0.00    +0.000 C 
ATOM     11  S   UNL     1       3.145   2.330  19.184  0.00  0.00    +0.000 S 
ATOM     12  O   UNL     1       3.838   1.131  18.746  0.00  0.00    +0.000 OA
ATOM     13  O   UNL     1       1.843   2.680  18.660  0.00  0.00    +0.000 OA
ENDBRANCH   1  11
BRANCH   9  14
ATOM     14  C   UNL     1       2.448   5.431  18.564  0.00  0.00    +0.000 C 
BRANCH  14  15
ATOM     15  C   UNL     1       2.085   6.037  19.903  0.00  0.00    +0.000 C 
ATOM     16  O   UNL     1       1.867   5.345  20.896  0.00  0.00    +0.000 OA
BRANCH  15  17
ATOM     17  C   UNL     1       1.905   7.514  19.998  0.00  0.00    +0.000 A 
ATOM     18  C   UNL     1       1.513   8.025  21.257  0.00  0.00    +0.000 A 
ATOM     19  C   UNL     1       0.830   9.235  21.329  0.00  0.00    +0.000 A 
ATOM     20  C   UNL     1       0.593   9.859  20.128  0.00  0.00    +0.000 A 
ATOM     21  C   UNL     1       1.272   9.545  18.955  0.00  0.00    +0.000 A 
ATOM     22  C   UNL     1       1.909   8.328  18.855  0.00  0.00    +0.000 A 
ATOM     23  C   UNL     1       0.730  10.430  17.889  0.00  0.00    +0.000 C 
ATOM     24  C   UNL     1      -0.695  10.293  18.397  0.00  0.00    +0.000 C 
ATOM     25  O   UNL     1      -0.584  10.542  19.839  0.00  0.00    +0.000 OA
ENDBRANCH  15  17
ENDBRANCH  14  15
ENDBRANCH   9  14
TORSDOF 4
ENDMDL
MODEL 9
REMARK VINA RESULT:      -7.4      4.222      8.396
REMARK  Name = 
REMARK  5 active torsions:
REMARK  status: ('A' for Active; 'I' for Inactive)
REMARK    1  A    between atoms: C_1  and  S_2
REMARK    2  A    between atoms: S_2  and  C_5
REMARK    3  A    between atoms: N_13  and  C_14
REMARK    4  A    between atoms: C_14  and  C_15
REMARK    5  A    between atoms: C_15  and  C_17
REMARK                            x       y       z     vdW  Elec       q    Type
REMARK                         _______ _______ _______ _____ _____    ______ ____
ROOT
ATOM      1  C   UNL     1       0.099  12.234  19.176  0.00  0.00    +0.000 A 
ATOM      2  N   UNL     1      -1.087  12.800  19.047  0.00  0.00    +0.000 NA
ATOM      3  C   UNL     1      -1.893  11.876  18.464  0.00  0.00    +0.000 A 
ATOM      4  C   UNL     1      -3.252  11.987  18.128  0.00  0.00    +0.000 A 
ATOM      5  C   UNL     1      -3.885  10.909  17.506  0.00  0.00    +0.000 A 
ATOM      6  C   UNL     1      -3.177   9.751  17.218  0.00  0.00    +0.000 A 
ATOM      7  C   UNL     1      -1.826   9.624  17.552  0.00  0.00    +0.000 A 
ATOM      8  C   UNL     1      -1.199  10.705  18.187  0.00  0.00    +0.000 A 
ATOM      9  N   UNL     1       0.065  10.937  18.694  0.00  0.00    +0.000 N 
ENDROOT
BRANCH   1  11
ATOM     10  C   UNL     1       0.928  14.734  20.065  0.00  0.00    +0.000 C 
ATOM     11  S   UNL     1       1.496  13.060  19.854  0.00  0.00    +0.000 S 
ATOM     12  O   UNL     1       2.502  13.004  18.807  0.00  0.00    +0.000 OA
ATOM     13  O   UNL     1       1.717  12.439  21.142  0.00  0.00    +0.000 OA
ENDBRANCH   1  11
BRANCH   9  14
ATOM     14  C   UNL     1       1.205  10.031  18.747  0.00  0.00    +0.000 C 
BRANCH  14  15
ATOM     15  C   UNL     1       1.198   9.031  19.884  0.00  0.00    +0.000 C 
ATOM     16  O   UNL     1       0.669   9.275  20.966  0.00  0.00    +0.000 OA
BRANCH  15  17
ATOM     17  C   UNL     1       1.930   7.742  19.712  0.00  0.00    +0.000 A 
ATOM     18  C   UNL     1       2.454   7.478  18.426  0.00  0.00    +0.000 A 
ATOM     19  C   UNL     1       2.663   6.164  18.022  0.00  0.00    +0.000 A 
ATOM     20  C   UNL     1       2.340   5.197  18.944  0.00  0.00    +0.000 A 
ATOM     21  C   UNL     1       2.169   5.460  20.300  0.00  0.00    +0.000 A 
ATOM     22  C   UNL     1       1.909   6.750  20.704  0.00  0.00    +0.000 A 
ATOM     23  C   UNL     1       1.827   4.167  20.953  0.00  0.00    +0.000 C 
ATOM     24  C   UNL     1       0.935   3.736  19.801  0.00  0.00    +0.000 C 
ATOM     25  O   UNL     1       1.752   3.983  18.607  0.00  0.00    +0.000 OA
ENDBRANCH  15  17
ENDBRANCH  14  15
ENDBRANCH   9  14
TORSDOF 4
ENDMDL
