MODEL 1
REMARK VINA RESULT:      -9.3      0.000      0.000
REMARK  Name = 
REMARK  4 active torsions:
REMARK  status: ('A' for Active; 'I' for Inactive)
REMARK    1  A    between atoms: C_2  and  C_19
REMARK    2  A    between atoms: N_3  and  C_4
REMARK    3  A    between atoms: C_6  and  S_7
REMARK    4  A    between atoms: S_7  and  N_10
REMARK                            x       y       z     vdW  Elec       q    Type
REMARK                         _______ _______ _______ _____ _____    ______ ____
ROOT
ATOM      1  C   UNL     1       2.881   5.793  18.727  0.00  0.00    +0.000 A 
ATOM      2  C   UNL     1       3.892   6.086  17.803  0.00  0.00    +0.000 A 
ATOM      3  C   UNL     1       4.496   5.079  17.049  0.00  0.00    +0.000 A 
ATOM      4  C   UNL     1       4.187   3.742  17.288  0.00  0.00    +0.000 A 
ATOM      5  C   UNL     1       3.209   3.425  18.239  0.00  0.00    +0.000 A 
ATOM      6  C   UNL     1       2.544   4.446  18.936  0.00  0.00    +0.000 A 
ATOM      7 CL   UNL     1       1.279   4.003  20.029  0.00  0.00    +0.000 Cl
ENDROOT
BRANCH   1  10
ATOM      8  O   UNL     1       1.784   8.298  17.731  0.00  0.00    +0.000 OA
ATOM      9  C   UNL     1       1.794   8.024  18.929  0.00  0.00    +0.000 C 
ATOM     10  N   UNL     1       2.226   6.820  19.458  0.00  0.00    +0.000 N 
ATOM     11  H   UNL     1       2.009   6.599  20.428  0.00  0.00    +0.000 HD
BRANCH   9  12
ATOM     12  C   UNL     1       1.258   9.056  19.853  0.00  0.00    +0.000 A 
ATOM     13  C   UNL     1       0.954   8.649  21.165  0.00  0.00    +0.000 A 
ATOM     14  C   UNL     1       0.443   9.558  22.083  0.00  0.00    +0.000 A 
ATOM     15  F   UNL     1       0.171   9.148  23.327  0.00  0.00    +0.000 F 
ATOM     16  C   UNL     1       0.222  10.876  21.715  0.00  0.00    +0.000 A 
ATOM     17  F   UNL     1      -0.265  11.750  22.607  0.00  0.00    +0.000 F 
ATOM     18  C   UNL     1       0.507  11.285  20.418  0.00  0.00    +0.000 A 
ATOM     19  F   UNL     1       0.287  12.557  20.057  0.00  0.00    +0.000 F 
ATOM     20  C   UNL     1       1.023  10.381  19.489  0.00  0.00    +0.000 A 
ATOM     21  F   UNL     1       1.288  10.809  18.245  0.00  0.00    +0.000 F 
ENDBRANCH   9  12
ENDBRANCH   1  10
BRANCH   3  22
ATOM     22  S   UNL     1       5.722   5.543  15.839  0.00  0.00    +0.000 S 
ATOM     23  O   UNL     1       5.912   4.397  14.970  0.00  0.00    +0.000 OA
ATOM     24  O   UNL     1       5.324   6.827  15.303  0.00  0.00    +0.000 OA
BRANCH  22  25
ATOM     25  N   UNL     1       7.138   5.782  16.725  0.00  0.00    +0.000 NA
ATOM     26  C   UNL     1       7.597   4.795  17.720  0.00  0.00    +0.000 C 
ATOM     27  C   UNL     1       7.643   5.569  19.025  0.00  0.00    +0.000 C 
ATOM     28  C   UNL     1       8.027   6.976  18.603  0.00  0.00    +0.000 C 
ATOM     29  C   UNL     1       7.483   7.139  17.187  0.00  0.00    +0.000 C 
ENDBRANCH  22  25
ENDBRANCH   3  22
TORSDOF 4
ENDMDL
MODEL 2
REMARK VINA RESULT:      -9.3      0.573      1.806
REMARK  Name = 
REMARK  4 active torsions:
REMARK  status: ('A' for Active; 'I' for Inactive)
REMARK    1  A    between atoms: C_2  and  C_19
REMARK    2  A    between atoms: N_3  and  C_4
REMARK    3  A    between atoms: C_6  and  S_7
REMARK    4  A    between atoms: S_7  and  N_10
REMARK                            x       y       z     vdW  Elec       q    Type
REMARK                         _______ _______ _______ _____ _____    ______ ____
ROOT
ATOM      1  C   UNL     1       2.919   5.720  18.536  0.00  0.00    +0.000 A 
ATOM      2  C   UNL     1       3.975   6.005  17.661  0.00  0.00    +0.000 A 
ATOM      3  C   UNL     1       4.569   5.002  16.894  0.00  0.00    +0.000 A 
ATOM      4  C   UNL     1       4.201   3.671  17.074  0.00  0.00    +0.000 A 
ATOM      5  C   UNL     1       3.175   3.360  17.976  0.00  0.00    +0.000 A 
ATOM      6  C   UNL     1       2.523   4.381  18.684  0.00  0.00    +0.000 A 
ATOM      7 CL   UNL     1       1.202   3.952  19.714  0.00  0.00    +0.000 Cl
ENDROOT
BRANCH   1  10
ATOM      8  O   UNL     1       1.947   8.295  17.588  0.00  0.00    +0.000 OA
ATOM      9  C   UNL     1       1.906   7.982  18.775  0.00  0.00    +0.000 C 
ATOM     10  N   UNL     1       2.276   6.747  19.279  0.00  0.00    +0.000 N 
ATOM     11  H   UNL     1       2.018   6.503  20.233  0.00  0.00    +0.000 HD
BRANCH   9  12
ATOM     12  C   UNL     1       1.375   9.003  19.715  0.00  0.00    +0.000 A 
ATOM     13  C   UNL     1       1.123  10.286  19.197  0.00  0.00    +0.000 A 
ATOM     14  C   UNL     1       0.631  11.293  20.019  0.00  0.00    +0.000 A 
ATOM     15  F   UNL     1       0.391  12.502  19.498  0.00  0.00    +0.000 F 
ATOM     16  C   UNL     1       0.389  11.045  21.361  0.00  0.00    +0.000 A 
ATOM     17  F   UNL     1      -0.090  12.019  22.147  0.00  0.00    +0.000 F 
ATOM     18  C   UNL     1       0.647   9.786  21.885  0.00  0.00    +0.000 A 
ATOM     19  F   UNL     1       0.421   9.546  23.185  0.00  0.00    +0.000 F 
ATOM     20  C   UNL     1       1.138   8.766  21.069  0.00  0.00    +0.000 A 
ATOM     21  F   UNL     1       1.375   7.560  21.608  0.00  0.00    +0.000 F 
ENDBRANCH   9  12
ENDBRANCH   1  10
BRANCH   3  22
ATOM     22  S   UNL     1       5.857   5.458  15.748  0.00  0.00    +0.000 S 
ATOM     23  O   UNL     1       6.104   4.301  14.909  0.00  0.00    +0.000 OA
ATOM     24  O   UNL     1       5.480   6.731  15.170  0.00  0.00    +0.000 OA
BRANCH  22  25
ATOM     25  N   UNL     1       7.220   5.722  16.708  0.00  0.00    +0.000 NA
ATOM     26  C   UNL     1       7.627   4.757  17.745  0.00  0.00    +0.000 C 
ATOM     27  C   UNL     1       7.594   5.555  19.036  0.00  0.00    +0.000 C 
ATOM     28  C   UNL     1       7.994   6.956  18.611  0.00  0.00    +0.000 C 
ATOM     29  C   UNL     1       7.530   7.090  17.164  0.00  0.00    +0.000 C 
ENDBRANCH  22  25
ENDBRANCH   3  22
TORSDOF 4
ENDMDL
MODEL 3
REMARK VINA RESULT:      -9.0      1.684      2.207
REMARK  Name = 
REMARK  4 active torsions:
REMARK  status: ('A' for Active; 'I' for Inactive)
REMARK    1  A    between atoms: C_2  and  C_19
REMARK    2  A    between atoms: N_3  and  C_4
REMARK    3  A    between atoms: C_6  and  S_7
REMARK    4  A    between atoms: S_7  and  N_10
REMARK                            x       y       z     vdW  Elec       q    Type
REMARK                         _______ _______ _______ _____ _____    ______ ____
ROOT
ATOM      1  C   UNL     1       3.312   5.663  19.650  0.00  0.00    +0.000 A 
ATOM      2  C   UNL     1       4.580   5.970  19.143  0.00  0.00    +0.000 A 
ATOM      3  C   UNL     1       5.369   4.996  18.530  0.00  0.00    +0.000 A 
ATOM      4  C   UNL     1       4.957   3.666  18.518  0.00  0.00    +0.000 A 
ATOM      5  C   UNL     1       3.709   3.330  19.058  0.00  0.00    +0.000 A 
ATOM      6  C   UNL     1       2.882   4.327  19.599  0.00  0.00    +0.000 A 
ATOM      7 CL   UNL     1       1.313   3.873  20.167  0.00  0.00    +0.000 Cl
ENDROOT
BRANCH   1  10
ATOM      8  O   UNL     1       2.050   7.937  18.342  0.00  0.00    +0.000 OA
ATOM      9  C   UNL     1       1.976   7.762  19.556  0.00  0.00    +0.000 C 
ATOM     10  N   UNL     1       2.483   6.663  20.227  0.00  0.00    +0.000 N 
ATOM     11  H   UNL     1       2.201   6.497  21.192  0.00  0.00    +0.000 HD
BRANCH   9  12
ATOM     12  C   UNL     1       1.247   8.796  20.335  0.00  0.00    +0.000 A 
ATOM     13  C   UNL     1       1.121   8.589  21.720  0.00  0.00    +0.000 A 
ATOM     14  C   UNL     1       0.446   9.511  22.512  0.00  0.00    +0.000 A 
ATOM     15  F   UNL     1       0.349   9.295  23.828  0.00  0.00    +0.000 F 
ATOM     16  C   UNL     1      -0.116  10.643  21.943  0.00  0.00    +0.000 A 
ATOM     17  F   UNL     1      -0.760  11.532  22.712  0.00  0.00    +0.000 F 
ATOM     18  C   UNL     1      -0.008  10.850  20.574  0.00  0.00    +0.000 A 
ATOM     19  F   UNL     1      -0.558  11.941  20.020  0.00  0.00    +0.000 F 
ATOM     20  C   UNL     1       0.670   9.933  19.770  0.00  0.00    +0.000 A 
ATOM     21  F   UNL     1       0.755  10.164  18.451  0.00  0.00    +0.000 F 
ENDBRANCH   9  12
ENDBRANCH   1  10
BRANCH   3  22
ATOM     22  S   UNL     1       6.941   5.484  17.842  0.00  0.00    +0.000 S 
ATOM     23  O   UNL     1       7.237   6.805  18.363  0.00  0.00    +0.000 OA
ATOM     24  O   UNL     1       7.855   4.380  18.047  0.00  0.00    +0.000 OA
BRANCH  22  25
ATOM     25  N   UNL     1       6.668   5.613  16.182  0.00  0.00    +0.000 NA
ATOM     26  C   UNL     1       5.320   5.870  15.643  0.00  0.00    +0.000 C 
ATOM     27  C   UNL     1       5.036   4.675  14.750  0.00  0.00    +0.000 C 
ATOM     28  C   UNL     1       6.399   4.304  14.192  0.00  0.00    +0.000 C 
ATOM     29  C   UNL     1       7.405   4.733  15.256  0.00  0.00    +0.000 C 
ENDBRANCH  22  25
ENDBRANCH   3  22
TORSDOF 4
ENDMDL
MODEL 4
REMARK VINA RESULT:      -8.9      1.867      2.336
REMARK  Name = 
REMARK  4 active torsions:
REMARK  status: ('A' for Active; 'I' for Inactive)
REMARK    1  A    between atoms: C_2  and  C_19
REMARK    2  A    between atoms: N_3  and  C_4
REMARK    3  A    between atoms: C_6  and  S_7
REMARK    4  A    between atoms: S_7  and  N_10
REMARK                            x       y       z     vdW  Elec       q    Type
REMARK                         _______ _______ _______ _____ _____    ______ ____
ROOT
ATOM      1  C   UNL     1       2.890   5.409  20.059  0.00  0.00    +0.000 A 
ATOM      2  C   UNL     1       4.101   5.709  19.423  0.00  0.00    +0.000 A 
ATOM      3  C   UNL     1       4.923   4.700  18.918  0.00  0.00    +0.000 A 
ATOM      4  C   UNL     1       4.609   3.362  19.143  0.00  0.00    +0.000 A 
ATOM      5  C   UNL     1       3.422   3.041  19.814  0.00  0.00    +0.000 A 
ATOM      6  C   UNL     1       2.558   4.058  20.248  0.00  0.00    +0.000 A 
ATOM      7 CL   UNL     1       1.062   3.604  20.987  0.00  0.00    +0.000 Cl
ENDROOT
BRANCH   1  10
ATOM      8  O   UNL     1       2.345   8.001  18.850  0.00  0.00    +0.000 OA
ATOM      9  C   UNL     1       1.871   7.678  19.937  0.00  0.00    +0.000 C 
ATOM     10  N   UNL     1       2.026   6.435  20.527  0.00  0.00    +0.000 N 
ATOM     11  H   UNL     1       1.436   6.185  21.319  0.00  0.00    +0.000 HD
BRANCH   9  12
ATOM     12  C   UNL     1       1.039   8.695  20.630  0.00  0.00    +0.000 A 
ATOM     13  C   UNL     1       0.969   8.621  22.033  0.00  0.00    +0.000 A 
ATOM     14  C   UNL     1       0.205   9.536  22.749  0.00  0.00    +0.000 A 
ATOM     15  F   UNL     1       0.162   9.450  24.083  0.00  0.00    +0.000 F 
ATOM     16  C   UNL     1      -0.501  10.528  22.086  0.00  0.00    +0.000 A 
ATOM     17  F   UNL     1      -1.231  11.411  22.782  0.00  0.00    +0.000 F 
ATOM     18  C   UNL     1      -0.448  10.601  20.701  0.00  0.00    +0.000 A 
ATOM     19  F   UNL     1      -1.136  11.556  20.057  0.00  0.00    +0.000 F 
ATOM     20  C   UNL     1       0.318   9.691  19.972  0.00  0.00    +0.000 A 
ATOM     21  F   UNL     1       0.348   9.790  18.634  0.00  0.00    +0.000 F 
ENDBRANCH   9  12
ENDBRANCH   1  10
BRANCH   3  22
ATOM     22  S   UNL     1       6.411   5.169  18.055  0.00  0.00    +0.000 S 
ATOM     23  O   UNL     1       6.311   6.590  17.781  0.00  0.00    +0.000 OA
ATOM     24  O   UNL     1       7.525   4.632  18.807  0.00  0.00    +0.000 OA
BRANCH  22  25
ATOM     25  N   UNL     1       6.344   4.337  16.588  0.00  0.00    +0.000 NA
ATOM     26  C   UNL     1       7.425   4.451  15.591  0.00  0.00    +0.000 C 
ATOM     27  C   UNL     1       6.739   5.000  14.353  0.00  0.00    +0.000 C 
ATOM     28  C   UNL     1       5.345   4.402  14.411  0.00  0.00    +0.000 C 
ATOM     29  C   UNL     1       5.051   4.197  15.894  0.00  0.00    +0.000 C 
ENDBRANCH  22  25
ENDBRANCH   3  22
TORSDOF 4
ENDMDL
MODEL 5
REMARK VINA RESULT:      -8.5      1.757      2.842
REMARK  Name = 
REMARK  4 active torsions:
REMARK  status: ('A' for Active; 'I' for Inactive)
REMARK    1  A    between atoms: C_2  and  C_19
REMARK    2  A    between atoms: N_3  and  C_4
REMARK    3  A    between atoms: C_6  and  S_7
REMARK    4  A    between atoms: S_7  and  N_10
REMARK                            x       y       z     vdW  Elec       q    Type
REMARK                         _______ _______ _______ _____ _____    ______ ____
ROOT
ATOM      1  C   UNL     1       3.371   5.841  19.506  0.00  0.00    +0.000 A 
ATOM      2  C   UNL     1       4.642   6.096  18.975  0.00  0.00    +0.000 A 
ATOM      3  C   UNL     1       5.457   5.059  18.521  0.00  0.00    +0.000 A 
ATOM      4  C   UNL     1       5.070   3.733  18.700  0.00  0.00    +0.000 A 
ATOM      5  C   UNL     1       3.820   3.455  19.268  0.00  0.00    +0.000 A 
ATOM      6  C   UNL     1       2.967   4.503  19.647  0.00  0.00    +0.000 A 
ATOM      7 CL   UNL     1       1.399   4.106  20.256  0.00  0.00    +0.000 Cl
ENDROOT
BRANCH   1  10
ATOM      8  O   UNL     1       2.184   7.944  17.880  0.00  0.00    +0.000 OA
ATOM      9  C   UNL     1       2.047   7.910  19.101  0.00  0.00    +0.000 C 
ATOM     10  N   UNL     1       2.516   6.898  19.920  0.00  0.00    +0.000 N 
ATOM     11  H   UNL     1       2.184   6.843  20.881  0.00  0.00    +0.000 HD
BRANCH   9  12
ATOM     12  C   UNL     1       1.280   9.024  19.716  0.00  0.00    +0.000 A 
ATOM     13  C   UNL     1       0.875  10.071  18.869  0.00  0.00    +0.000 A 
ATOM     14  C   UNL     1       0.160  11.150  19.375  0.00  0.00    +0.000 A 
ATOM     15  F   UNL     1      -0.222  12.128  18.546  0.00  0.00    +0.000 F 
ATOM     16  C   UNL     1      -0.158  11.208  20.723  0.00  0.00    +0.000 A 
ATOM     17  F   UNL     1      -0.854  12.248  21.204  0.00  0.00    +0.000 F 
ATOM     18  C   UNL     1       0.248  10.186  21.570  0.00  0.00    +0.000 A 
ATOM     19  F   UNL     1      -0.051  10.244  22.876  0.00  0.00    +0.000 F 
ATOM     20  C   UNL     1       0.964   9.097  21.073  0.00  0.00    +0.000 A 
ATOM     21  F   UNL     1       1.341   8.125  21.918  0.00  0.00    +0.000 F 
ENDBRANCH   9  12
ENDBRANCH   1  10
BRANCH   3  22
ATOM     22  S   UNL     1       7.030   5.472  17.789  0.00  0.00    +0.000 S 
ATOM     23  O   UNL     1       7.400   6.780  18.296  0.00  0.00    +0.000 OA
ATOM     24  O   UNL     1       7.898   4.329  17.971  0.00  0.00    +0.000 OA
BRANCH  22  25
ATOM     25  N   UNL     1       6.717   5.610  16.136  0.00  0.00    +0.000 NA
ATOM     26  C   UNL     1       5.354   5.855  15.631  0.00  0.00    +0.000 C 
ATOM     27  C   UNL     1       5.064   4.663  14.735  0.00  0.00    +0.000 C 
ATOM     28  C   UNL     1       6.417   4.312  14.144  0.00  0.00    +0.000 C 
ATOM     29  C   UNL     1       7.442   4.745  15.187  0.00  0.00    +0.000 C 
ENDBRANCH  22  25
ENDBRANCH   3  22
TORSDOF 4
ENDMDL
MODEL 6
REMARK VINA RESULT:      -8.5      1.766      2.028
REMARK  Name = 
REMARK  4 active torsions:
REMARK  status: ('A' for Active; 'I' for Inactive)
REMARK    1  A    between atoms: C_2  and  C_19
REMARK    2  A    between atoms: N_3  and  C_4
REMARK    3  A    between atoms: C_6  and  S_7
REMARK    4  A    between atoms: S_7  and  N_10
REMARK                            x       y       z     vdW  Elec       q    Type
REMARK                         _______ _______ _______ _____ _____    ______ ____
ROOT
ATOM      1  C   UNL     1       2.585   6.911  18.841  0.00  0.00    +0.000 A 
ATOM      2  C   UNL     1       3.510   6.885  17.790  0.00  0.00    +0.000 A 
ATOM      3  C   UNL     1       4.300   5.760  17.549  0.00  0.00    +0.000 A 
ATOM      4  C   UNL     1       4.268   4.680  18.428  0.00  0.00    +0.000 A 
ATOM      5  C   UNL     1       3.379   4.703  19.510  0.00  0.00    +0.000 A 
ATOM      6  C   UNL     1       2.527   5.802  19.701  0.00  0.00    +0.000 A 
ATOM      7 CL   UNL     1       1.384   5.739  20.997  0.00  0.00    +0.000 Cl
ENDROOT
BRANCH   1  10
ATOM      8  O   UNL     1       2.189   9.227  17.123  0.00  0.00    +0.000 OA
ATOM      9  C   UNL     1       1.659   9.139  18.229  0.00  0.00    +0.000 C 
ATOM     10  N   UNL     1       1.742   8.034  19.057  0.00  0.00    +0.000 N 
ATOM     11  H   UNL     1       1.111   7.963  19.854  0.00  0.00    +0.000 HD
BRANCH   9  12
ATOM     12  C   UNL     1       0.838  10.297  18.668  0.00  0.00    +0.000 A 
ATOM     13  C   UNL     1       1.427  11.196  19.576  0.00  0.00    +0.000 A 
ATOM     14  C   UNL     1       0.717  12.299  20.035  0.00  0.00    +0.000 A 
ATOM     15  F   UNL     1       1.304  13.143  20.891  0.00  0.00    +0.000 F 
ATOM     16  C   UNL     1      -0.583  12.522  19.608  0.00  0.00    +0.000 A 
ATOM     17  F   UNL     1      -1.260  13.591  20.050  0.00  0.00    +0.000 F 
ATOM     18  C   UNL     1      -1.177  11.634  18.722  0.00  0.00    +0.000 A 
ATOM     19  F   UNL     1      -2.437  11.844  18.313  0.00  0.00    +0.000 F 
ATOM     20  C   UNL     1      -0.473  10.525  18.251  0.00  0.00    +0.000 A 
ATOM     21  F   UNL     1      -1.077   9.687  17.395  0.00  0.00    +0.000 F 
ENDBRANCH   9  12
ENDBRANCH   1  10
BRANCH   3  22
ATOM     22  S   UNL     1       5.399   5.778  16.145  0.00  0.00    +0.000 S 
ATOM     23  O   UNL     1       5.336   4.460  15.543  0.00  0.00    +0.000 OA
ATOM     24  O   UNL     1       5.088   6.964  15.377  0.00  0.00    +0.000 OA
BRANCH  22  25
ATOM     25  N   UNL     1       6.940   5.991  16.802  0.00  0.00    +0.000 NA
ATOM     26  C   UNL     1       7.578   4.941  17.616  0.00  0.00    +0.000 C 
ATOM     27  C   UNL     1       7.827   5.605  18.959  0.00  0.00    +0.000 C 
ATOM     28  C   UNL     1       8.107   7.054  18.604  0.00  0.00    +0.000 C 
ATOM     29  C   UNL     1       7.330   7.316  17.318  0.00  0.00    +0.000 C 
ENDBRANCH  22  25
ENDBRANCH   3  22
TORSDOF 4
ENDMDL
MODEL 7
REMARK VINA RESULT:      -8.4      2.062      3.025
REMARK  Name = 
REMARK  4 active torsions:
REMARK  status: ('A' for Active; 'I' for Inactive)
REMARK    1  A    between atoms: C_2  and  C_19
REMARK    2  A    between atoms: N_3  and  C_4
REMARK    3  A    between atoms: C_6  and  S_7
REMARK    4  A    between atoms: S_7  and  N_10
REMARK                            x       y       z     vdW  Elec       q    Type
REMARK                         _______ _______ _______ _____ _____    ______ ____
ROOT
ATOM      1  C   UNL     1       3.300   5.651  18.164  0.00  0.00    +0.000 A 
ATOM      2  C   UNL     1       4.550   5.928  17.598  0.00  0.00    +0.000 A 
ATOM      3  C   UNL     1       5.282   4.938  16.940  0.00  0.00    +0.000 A 
ATOM      4  C   UNL     1       4.834   3.619  16.939  0.00  0.00    +0.000 A 
ATOM      5  C   UNL     1       3.605   3.313  17.537  0.00  0.00    +0.000 A 
ATOM      6  C   UNL     1       2.833   4.327  18.125  0.00  0.00    +0.000 A 
ATOM      7 CL   UNL     1       1.281   3.911  18.765  0.00  0.00    +0.000 Cl
ENDROOT
BRANCH   1  10
ATOM      8  O   UNL     1       2.642   8.297  17.145  0.00  0.00    +0.000 OA
ATOM      9  C   UNL     1       2.317   7.936  18.274  0.00  0.00    +0.000 C 
ATOM     10  N   UNL     1       2.528   6.668  18.788  0.00  0.00    +0.000 N 
ATOM     11  H   UNL     1       2.049   6.393  19.643  0.00  0.00    +0.000 HD
BRANCH   9  12
ATOM     12  C   UNL     1       1.608   8.934  19.114  0.00  0.00    +0.000 A 
ATOM     13  C   UNL     1       1.303  10.174  18.522  0.00  0.00    +0.000 A 
ATOM     14  C   UNL     1       0.646  11.159  19.250  0.00  0.00    +0.000 A 
ATOM     15  F   UNL     1       0.360  12.325  18.661  0.00  0.00    +0.000 F 
ATOM     16  C   UNL     1       0.289  10.933  20.570  0.00  0.00    +0.000 A 
ATOM     17  F   UNL     1      -0.350  11.885  21.265  0.00  0.00    +0.000 F 
ATOM     18  C   UNL     1       0.596   9.717  21.167  0.00  0.00    +0.000 A 
ATOM     19  F   UNL     1       0.258   9.500  22.447  0.00  0.00    +0.000 F 
ATOM     20  C   UNL     1       1.252   8.720  20.446  0.00  0.00    +0.000 A 
ATOM     21  F   UNL     1       1.534   7.557  21.053  0.00  0.00    +0.000 F 
ENDBRANCH   9  12
ENDBRANCH   1  10
BRANCH   3  22
ATOM     22  S   UNL     1       6.831   5.389  16.181  0.00  0.00    +0.000 S 
ATOM     23  O   UNL     1       7.094   6.768  16.546  0.00  0.00    +0.000 OA
ATOM     24  O   UNL     1       7.779   4.341  16.493  0.00  0.00    +0.000 OA
BRANCH  22  25
ATOM     25  N   UNL     1       6.536   5.325  14.520  0.00  0.00    +0.000 NA
ATOM     26  C   UNL     1       5.428   4.525  13.968  0.00  0.00    +0.000 C 
ATOM     27  C   UNL     1       6.106   3.532  13.039  0.00  0.00    +0.000 C 
ATOM     28  C   UNL     1       7.298   4.298  12.493  0.00  0.00    +0.000 C 
ATOM     29  C   UNL     1       7.675   5.296  13.583  0.00  0.00    +0.000 C 
ENDBRANCH  22  25
ENDBRANCH   3  22
TORSDOF 4
ENDMDL
MODEL 8
REMARK VINA RESULT:      -8.3      2.236      2.707
REMARK  Name = 
REMARK  4 active torsions:
REMARK  status: ('A' for Active; 'I' for Inactive)
REMARK    1  A    between atoms: C_2  and  C_19
REMARK    2  A    between atoms: N_3  and  C_4
REMARK    3  A    between atoms: C_6  and  S_7
REMARK    4  A    between atoms: S_7  and  N_10
REMARK                            x       y       z     vdW  Elec       q    Type
REMARK                         _______ _______ _______ _____ _____    ______ ____
ROOT
ATOM      1  C   UNL     1       3.376   5.819  17.782  0.00  0.00    +0.000 A 
ATOM      2  C   UNL     1       4.649   5.977  17.221  0.00  0.00    +0.000 A 
ATOM      3  C   UNL     1       5.348   4.889  16.696  0.00  0.00    +0.000 A 
ATOM      4  C   UNL     1       4.839   3.600  16.829  0.00  0.00    +0.000 A 
ATOM      5  C   UNL     1       3.585   3.415  17.425  0.00  0.00    +0.000 A 
ATOM      6  C   UNL     1       2.849   4.521  17.878  0.00  0.00    +0.000 A 
ATOM      7 CL   UNL     1       1.267   4.246  18.520  0.00  0.00    +0.000 Cl
ENDROOT
BRANCH   1  10
ATOM      8  O   UNL     1       2.745   6.497  20.542  0.00  0.00    +0.000 OA
ATOM      9  C   UNL     1       2.313   7.152  19.597  0.00  0.00    +0.000 C 
ATOM     10  N   UNL     1       2.638   6.932  18.270  0.00  0.00    +0.000 N 
ATOM     11  H   UNL     1       2.404   7.641  17.578  0.00  0.00    +0.000 HD
BRANCH   9  12
ATOM     12  C   UNL     1       1.411   8.285  19.929  0.00  0.00    +0.000 A 
ATOM     13  C   UNL     1       0.776   8.256  21.184  0.00  0.00    +0.000 A 
ATOM     14  C   UNL     1      -0.085   9.280  21.561  0.00  0.00    +0.000 A 
ATOM     15  F   UNL     1      -0.669   9.233  22.764  0.00  0.00    +0.000 F 
ATOM     16  C   UNL     1      -0.333  10.339  20.701  0.00  0.00    +0.000 A 
ATOM     17  F   UNL     1      -1.160  11.325  21.073  0.00  0.00    +0.000 F 
ATOM     18  C   UNL     1       0.279  10.370  19.455  0.00  0.00    +0.000 A 
ATOM     19  F   UNL     1       0.035  11.389  18.619  0.00  0.00    +0.000 F 
ATOM     20  C   UNL     1       1.148   9.350  19.067  0.00  0.00    +0.000 A 
ATOM     21  F   UNL     1       1.723   9.411  17.857  0.00  0.00    +0.000 F 
ENDBRANCH   9  12
ENDBRANCH   1  10
BRANCH   3  22
ATOM     22  S   UNL     1       6.931   5.186  15.931  0.00  0.00    +0.000 S 
ATOM     23  O   UNL     1       7.343   6.521  16.319  0.00  0.00    +0.000 OA
ATOM     24  O   UNL     1       7.763   4.036  16.216  0.00  0.00    +0.000 OA
BRANCH  22  25
ATOM     25  N   UNL     1       6.619   5.185  14.272  0.00  0.00    +0.000 NA
ATOM     26  C   UNL     1       5.510   4.400  13.700  0.00  0.00    +0.000 C 
ATOM     27  C   UNL     1       6.184   3.449  12.726  0.00  0.00    +0.000 C 
ATOM     28  C   UNL     1       7.366   4.243  12.199  0.00  0.00    +0.000 C 
ATOM     29  C   UNL     1       7.748   5.200  13.324  0.00  0.00    +0.000 C 
ENDBRANCH  22  25
ENDBRANCH   3  22
TORSDOF 4
ENDMDL
MODEL 9
REMARK VINA RESULT:      -8.1      1.870      2.414
REMARK  Name = 
REMARK  4 active torsions:
REMARK  status: ('A' for Active; 'I' for Inactive)
REMARK    1  A    between atoms: C_2  and  C_19
REMARK    2  A    between atoms: N_3  and  C_4
REMARK    3  A    between atoms: C_6  and  S_7
REMARK    4  A    between atoms: S_7  and  N_10
REMARK                            x       y       z     vdW  Elec       q    Type
REMARK                         _______ _______ _______ _____ _____    ______ ____
ROOT
ATOM      1  C   UNL     1       3.456   6.041  18.698  0.00  0.00    +0.000 A 
ATOM      2  C   UNL     1       4.666   6.253  18.026  0.00  0.00    +0.000 A 
ATOM      3  C   UNL     1       5.417   5.185  17.533  0.00  0.00    +0.000 A 
ATOM      4  C   UNL     1       5.034   3.874  17.807  0.00  0.00    +0.000 A 
ATOM      5  C   UNL     1       3.848   3.640  18.514  0.00  0.00    +0.000 A 
ATOM      6  C   UNL     1       3.053   4.717  18.936  0.00  0.00    +0.000 A 
ATOM      7 CL   UNL     1       1.553   4.370  19.723  0.00  0.00    +0.000 Cl
ENDROOT
BRANCH   1  10
ATOM      8  O   UNL     1       2.410   8.282  17.162  0.00  0.00    +0.000 OA
ATOM      9  C   UNL     1       2.261   8.202  18.380  0.00  0.00    +0.000 C 
ATOM     10  N   UNL     1       2.662   7.128  19.155  0.00  0.00    +0.000 N 
ATOM     11  H   UNL     1       2.319   7.050  20.110  0.00  0.00    +0.000 HD
BRANCH   9  12
ATOM     12  C   UNL     1       1.557   9.331  19.040  0.00  0.00    +0.000 A 
ATOM     13  C   UNL     1       0.747   9.025  20.149  0.00  0.00    +0.000 A 
ATOM     14  C   UNL     1       0.054  10.030  20.814  0.00  0.00    +0.000 A 
ATOM     15  F   UNL     1      -0.701   9.713  21.871  0.00  0.00    +0.000 F 
ATOM     16  C   UNL     1       0.148  11.345  20.387  0.00  0.00    +0.000 A 
ATOM     17  F   UNL     1      -0.518  12.310  21.036  0.00  0.00    +0.000 F 
ATOM     18  C   UNL     1       0.935  11.656  19.285  0.00  0.00    +0.000 A 
ATOM     19  F   UNL     1       1.021  12.927  18.866  0.00  0.00    +0.000 F 
ATOM     20  C   UNL     1       1.638  10.656  18.613  0.00  0.00    +0.000 A 
ATOM     21  F   UNL     1       2.389  10.991  17.552  0.00  0.00    +0.000 F 
ENDBRANCH   9  12
ENDBRANCH   1  10
BRANCH   3  22
ATOM     22  S   UNL     1       6.908   5.543  16.623  0.00  0.00    +0.000 S 
ATOM     23  O   UNL     1       7.264   6.917  16.920  0.00  0.00    +0.000 OA
ATOM     24  O   UNL     1       7.833   4.461  16.881  0.00  0.00    +0.000 OA
BRANCH  22  25
ATOM     25  N   UNL     1       6.459   5.448  14.998  0.00  0.00    +0.000 NA
ATOM     26  C   UNL     1       5.195   4.811  14.587  0.00  0.00    +0.000 C 
ATOM     27  C   UNL     1       5.624   3.680  13.669  0.00  0.00    +0.000 C 
ATOM     28  C   UNL     1       6.867   4.217  12.983  0.00  0.00    +0.000 C 
ATOM     29  C   UNL     1       7.491   5.193  13.976  0.00  0.00    +0.000 C 
ENDBRANCH  22  25
ENDBRANCH   3  22
TORSDOF 4
ENDMDL
