MODEL 1
REMARK VINA RESULT:      -5.9      0.000      0.000
REMARK  Name = 
REMARK  15 active torsions:
REMARK  status: ('A' for Active; 'I' for Inactive)
REMARK    1  A    between atoms: C_1  and  C_2
REMARK    2  A    between atoms: C_2  and  C_3
REMARK    3  A    between atoms: C_3  and  C_4
REMARK    4  A    between atoms: C_4  and  C_5
REMARK    5  A    between atoms: C_5  and  C_6
REMARK    6  A    between atoms: C_6  and  C_7
REMARK    7  A    between atoms: C_7  and  C_8
REMARK    8  A    between atoms: C_8  and  C_9
REMARK    9  A    between atoms: C_9  and  C_10
REMARK   10  A    between atoms: C_10  and  O_11
REMARK   11  A    between atoms: C_10  and  C_15
REMARK   12  A    between atoms: O_11  and  C_12
REMARK   13  A    between atoms: C_12  and  C_13
REMARK   14  A    between atoms: C_15  and  C_16
REMARK   15  A    between atoms: C_15  and  N_17
REMARK                            x       y       z     vdW  Elec       q    Type
REMARK                         _______ _______ _______ _____ _____    ______ ____
ROOT
ATOM      1  C   UNL     1       6.474   5.819  16.523  0.00  0.00    +0.000 C 
ENDROOT
BRANCH   1   2
ATOM      2  C   UNL     1       6.970   4.799  15.447  0.00  0.00    +0.000 C 
ATOM      3  C   UNL     1       5.823   4.000  14.820  0.00  0.00    +0.000 C 
BRANCH   2   4
ATOM      4  N   UNL     1       7.753   5.440  14.376  0.00  0.00    +0.000 NA
ATOM      5  H   UNL     1       7.177   6.114  13.875  0.00  0.00    +0.000 HD
ATOM      6  H   UNL     1       8.030   4.737  13.691  0.00  0.00    +0.000 HD
ENDBRANCH   2   4
ENDBRANCH   1   2
BRANCH   1   7
ATOM      7  C   UNL     1       5.056   6.334  16.232  0.00  0.00    +0.000 C 
BRANCH   7   8
ATOM      8  C   UNL     1       4.070   6.122  17.382  0.00  0.00    +0.000 C 
BRANCH   8   9
ATOM      9  C   UNL     1       4.644   5.084  18.348  0.00  0.00    +0.000 C 
BRANCH   9  10
ATOM     10  C   UNL     1       3.932   3.742  18.238  0.00  0.00    +0.000 C 
BRANCH  10  11
ATOM     11  C   UNL     1       2.669   3.880  17.389  0.00  0.00    +0.000 C 
BRANCH  11  12
ATOM     12  C   UNL     1       1.410   3.772  18.246  0.00  0.00    +0.000 C 
BRANCH  12  13
ATOM     13  C   UNL     1       1.535   2.632  19.254  0.00  0.00    +0.000 C 
BRANCH  13  15
ATOM     14  C   UNL     1       2.136   3.755  21.419  0.00  0.00    +0.000 C 
ATOM     15  C   UNL     1       1.040   3.054  20.634  0.00  0.00    +0.000 C 
ENDBRANCH  13  15
ENDBRANCH  12  13
ENDBRANCH  11  12
ENDBRANCH  10  11
ENDBRANCH   9  10
ENDBRANCH   8   9
ENDBRANCH   7   8
ENDBRANCH   1   7
BRANCH   1  16
ATOM     16  O   UNL     1       7.357   6.963  16.558  0.00  0.00    +0.000 OA
BRANCH  16  17
ATOM     17  C   UNL     1       7.776   7.360  17.788  0.00  0.00    +0.000 C 
ATOM     18  C   UNL     1       7.983   8.847  17.814  0.00  0.00    +0.000 C 
ATOM     19  O   UNL     1       8.002   6.620  18.737  0.00  0.00    +0.000 OA
ENDBRANCH  16  17
ENDBRANCH   1  16
TORSDOF 12
ENDMDL
MODEL 2
REMARK VINA RESULT:      -5.8      1.590      2.938
REMARK  Name = 
REMARK  15 active torsions:
REMARK  status: ('A' for Active; 'I' for Inactive)
REMARK    1  A    between atoms: C_1  and  C_2
REMARK    2  A    between atoms: C_2  and  C_3
REMARK    3  A    between atoms: C_3  and  C_4
REMARK    4  A    between atoms: C_4  and  C_5
REMARK    5  A    between atoms: C_5  and  C_6
REMARK    6  A    between atoms: C_6  and  C_7
REMARK    7  A    between atoms: C_7  and  C_8
REMARK    8  A    between atoms: C_8  and  C_9
REMARK    9  A    between atoms: C_9  and  C_10
REMARK   10  A    between atoms: C_10  and  O_11
REMARK   11  A    between atoms: C_10  and  C_15
REMARK   12  A    between atoms: O_11  and  C_12
REMARK   13  A    between atoms: C_12  and  C_13
REMARK   14  A    between atoms: C_15  and  C_16
REMARK   15  A    between atoms: C_15  and  N_17
REMARK                            x       y       z     vdW  Elec       q    Type
REMARK                         _______ _______ _______ _____ _____    ______ ____
ROOT
ATOM      1  C   UNL     1       6.474   5.481  17.238  0.00  0.00    +0.000 C 
ENDROOT
BRANCH   1   2
ATOM      2  C   UNL     1       7.161   6.718  17.902  0.00  0.00    +0.000 C 
ATOM      3  C   UNL     1       8.129   6.324  19.022  0.00  0.00    +0.000 C 
BRANCH   2   4
ATOM      4  N   UNL     1       7.870   7.565  16.927  0.00  0.00    +0.000 NA
ATOM      5  H   UNL     1       8.850   7.291  16.872  0.00  0.00    +0.000 HD
ATOM      6  H   UNL     1       7.863   8.532  17.249  0.00  0.00    +0.000 HD
ENDBRANCH   2   4
ENDBRANCH   1   2
BRANCH   1   7
ATOM      7  C   UNL     1       5.937   4.483  18.275  0.00  0.00    +0.000 C 
BRANCH   7   8
ATOM      8  C   UNL     1       4.620   4.910  18.926  0.00  0.00    +0.000 C 
BRANCH   8   9
ATOM      9  C   UNL     1       3.500   4.824  17.889  0.00  0.00    +0.000 C 
BRANCH   9  10
ATOM     10  C   UNL     1       3.500   3.491  17.151  0.00  0.00    +0.000 C 
BRANCH  10  11
ATOM     11  C   UNL     1       2.256   2.683  17.518  0.00  0.00    +0.000 C 
BRANCH  11  12
ATOM     12  C   UNL     1       1.217   3.553  18.221  0.00  0.00    +0.000 C 
BRANCH  12  13
ATOM     13  C   UNL     1       0.802   2.934  19.554  0.00  0.00    +0.000 C 
BRANCH  13  15
ATOM     14  C   UNL     1       1.933   2.946  21.797  0.00  0.00    +0.000 C 
ATOM     15  C   UNL     1       1.259   3.792  20.731  0.00  0.00    +0.000 C 
ENDBRANCH  13  15
ENDBRANCH  12  13
ENDBRANCH  11  12
ENDBRANCH  10  11
ENDBRANCH   9  10
ENDBRANCH   8   9
ENDBRANCH   7   8
ENDBRANCH   1   7
BRANCH   1  16
ATOM     16  O   UNL     1       7.425   4.779  16.405  0.00  0.00    +0.000 OA
BRANCH  16  17
ATOM     17  C   UNL     1       7.229   4.868  15.064  0.00  0.00    +0.000 C 
ATOM     18  C   UNL     1       6.188   3.881  14.623  0.00  0.00    +0.000 C 
ATOM     19  O   UNL     1       7.838   5.609  14.302  0.00  0.00    +0.000 OA
ENDBRANCH  16  17
ENDBRANCH   1  16
TORSDOF 12
ENDMDL
MODEL 3
REMARK VINA RESULT:      -5.7      2.041      3.454
REMARK  Name = 
REMARK  15 active torsions:
REMARK  status: ('A' for Active; 'I' for Inactive)
REMARK    1  A    between atoms: C_1  and  C_2
REMARK    2  A    between atoms: C_2  and  C_3
REMARK    3  A    between atoms: C_3  and  C_4
REMARK    4  A    between atoms: C_4  and  C_5
REMARK    5  A    between atoms: C_5  and  C_6
REMARK    6  A    between atoms: C_6  and  C_7
REMARK    7  A    between atoms: C_7  and  C_8
REMARK    8  A    between atoms: C_8  and  C_9
REMARK    9  A    between atoms: C_9  and  C_10
REMARK   10  A    between atoms: C_10  and  O_11
REMARK   11  A    between atoms: C_10  and  C_15
REMARK   12  A    between atoms: O_11  and  C_12
REMARK   13  A    between atoms: C_12  and  C_13
REMARK   14  A    between atoms: C_15  and  C_16
REMARK   15  A    between atoms: C_15  and  N_17
REMARK                            x       y       z     vdW  Elec       q    Type
REMARK                         _______ _______ _______ _____ _____    ______ ____
ROOT
ATOM      1  C   UNL     1       6.192   5.351  17.121  0.00  0.00    +0.000 C 
ENDROOT
BRANCH   1   2
ATOM      2  C   UNL     1       7.257   5.473  18.259  0.00  0.00    +0.000 C 
ATOM      3  C   UNL     1       7.890   6.866  18.326  0.00  0.00    +0.000 C 
BRANCH   2   4
ATOM      4  N   UNL     1       6.714   5.126  19.584  0.00  0.00    +0.000 NA
ATOM      5  H   UNL     1       7.301   5.519  20.318  0.00  0.00    +0.000 HD
ATOM      6  H   UNL     1       6.744   4.114  19.709  0.00  0.00    +0.000 HD
ENDBRANCH   2   4
ENDBRANCH   1   2
BRANCH   1   7
ATOM      7  C   UNL     1       4.782   5.077  17.666  0.00  0.00    +0.000 C 
BRANCH   7   8
ATOM      8  C   UNL     1       3.886   6.316  17.726  0.00  0.00    +0.000 C 
BRANCH   8   9
ATOM      9  C   UNL     1       2.505   5.909  18.242  0.00  0.00    +0.000 C 
BRANCH   9  10
ATOM     10  C   UNL     1       2.376   6.098  19.748  0.00  0.00    +0.000 C 
BRANCH  10  11
ATOM     11  C   UNL     1       2.316   4.741  20.448  0.00  0.00    +0.000 C 
BRANCH  11  12
ATOM     12  C   UNL     1       0.968   4.061  20.224  0.00  0.00    +0.000 C 
BRANCH  12  13
ATOM     13  C   UNL     1       1.157   2.600  19.823  0.00  0.00    +0.000 C 
BRANCH  13  15
ATOM     14  C   UNL     1       2.376   2.288  17.648  0.00  0.00    +0.000 C 
ATOM     15  C   UNL     1       2.514   2.377  19.159  0.00  0.00    +0.000 C 
ENDBRANCH  13  15
ENDBRANCH  12  13
ENDBRANCH  11  12
ENDBRANCH  10  11
ENDBRANCH   9  10
ENDBRANCH   8   9
ENDBRANCH   7   8
ENDBRANCH   1   7
BRANCH   1  16
ATOM     16  O   UNL     1       6.541   4.262  16.237  0.00  0.00    +0.000 OA
BRANCH  16  17
ATOM     17  C   UNL     1       6.945   4.609  14.988  0.00  0.00    +0.000 C 
ATOM     18  C   UNL     1       6.184   3.828  13.956  0.00  0.00    +0.000 C 
ATOM     19  O   UNL     1       7.835   5.408  14.723  0.00  0.00    +0.000 OA
ENDBRANCH  16  17
ENDBRANCH   1  16
TORSDOF 12
ENDMDL
MODEL 4
REMARK VINA RESULT:      -5.6      1.951      3.105
REMARK  Name = 
REMARK  15 active torsions:
REMARK  status: ('A' for Active; 'I' for Inactive)
REMARK    1  A    between atoms: C_1  and  C_2
REMARK    2  A    between atoms: C_2  and  C_3
REMARK    3  A    between atoms: C_3  and  C_4
REMARK    4  A    between atoms: C_4  and  C_5
REMARK    5  A    between atoms: C_5  and  C_6
REMARK    6  A    between atoms: C_6  and  C_7
REMARK    7  A    between atoms: C_7  and  C_8
REMARK    8  A    between atoms: C_8  and  C_9
REMARK    9  A    between atoms: C_9  and  C_10
REMARK   10  A    between atoms: C_10  and  O_11
REMARK   11  A    between atoms: C_10  and  C_15
REMARK   12  A    between atoms: O_11  and  C_12
REMARK   13  A    between atoms: C_12  and  C_13
REMARK   14  A    between atoms: C_15  and  C_16
REMARK   15  A    between atoms: C_15  and  N_17
REMARK                            x       y       z     vdW  Elec       q    Type
REMARK                         _______ _______ _______ _____ _____    ______ ____
ROOT
ATOM      1  C   UNL     1       6.339   5.422  17.107  0.00  0.00    +0.000 C 
ENDROOT
BRANCH   1   2
ATOM      2  C   UNL     1       7.652   5.373  17.954  0.00  0.00    +0.000 C 
ATOM      3  C   UNL     1       7.415   5.718  19.427  0.00  0.00    +0.000 C 
BRANCH   2   4
ATOM      4  N   UNL     1       8.336   4.071  17.867  0.00  0.00    +0.000 NA
ATOM      5  H   UNL     1       9.101   4.031  18.539  0.00  0.00    +0.000 HD
ATOM      6  H   UNL     1       8.761   3.971  16.946  0.00  0.00    +0.000 HD
ENDBRANCH   2   4
ENDBRANCH   1   2
BRANCH   1   7
ATOM      7  C   UNL     1       5.079   5.270  17.971  0.00  0.00    +0.000 C 
BRANCH   7   8
ATOM      8  C   UNL     1       3.782   5.646  17.251  0.00  0.00    +0.000 C 
BRANCH   8   9
ATOM      9  C   UNL     1       2.608   5.476  18.216  0.00  0.00    +0.000 C 
BRANCH   9  10
ATOM     10  C   UNL     1       1.631   4.404  17.748  0.00  0.00    +0.000 C 
BRANCH  10  11
ATOM     11  C   UNL     1       2.352   3.068  17.580  0.00  0.00    +0.000 C 
BRANCH  11  12
ATOM     12  C   UNL     1       2.158   2.175  18.803  0.00  0.00    +0.000 C 
BRANCH  12  13
ATOM     13  C   UNL     1       3.301   2.361  19.799  0.00  0.00    +0.000 C 
BRANCH  13  15
ATOM     14  C   UNL     1       1.263   2.867  21.178  0.00  0.00    +0.000 C 
ATOM     15  C   UNL     1       2.780   2.792  21.168  0.00  0.00    +0.000 C 
ENDBRANCH  13  15
ENDBRANCH  12  13
ENDBRANCH  11  12
ENDBRANCH  10  11
ENDBRANCH   9  10
ENDBRANCH   8   9
ENDBRANCH   7   8
ENDBRANCH   1   7
BRANCH   1  16
ATOM     16  O   UNL     1       6.340   4.348  16.139  0.00  0.00    +0.000 OA
BRANCH  16  17
ATOM     17  C   UNL     1       6.716   4.678  14.876  0.00  0.00    +0.000 C 
ATOM     18  C   UNL     1       5.888   3.929  13.872  0.00  0.00    +0.000 C 
ATOM     19  O   UNL     1       7.628   5.440  14.580  0.00  0.00    +0.000 OA
ENDBRANCH  16  17
ENDBRANCH   1  16
TORSDOF 12
ENDMDL
MODEL 5
REMARK VINA RESULT:      -5.5      1.399      2.007
REMARK  Name = 
REMARK  15 active torsions:
REMARK  status: ('A' for Active; 'I' for Inactive)
REMARK    1  A    between atoms: C_1  and  C_2
REMARK    2  A    between atoms: C_2  and  C_3
REMARK    3  A    between atoms: C_3  and  C_4
REMARK    4  A    between atoms: C_4  and  C_5
REMARK    5  A    between atoms: C_5  and  C_6
REMARK    6  A    between atoms: C_6  and  C_7
REMARK    7  A    between atoms: C_7  and  C_8
REMARK    8  A    between atoms: C_8  and  C_9
REMARK    9  A    between atoms: C_9  and  C_10
REMARK   10  A    between atoms: C_10  and  O_11
REMARK   11  A    between atoms: C_10  and  C_15
REMARK   12  A    between atoms: O_11  and  C_12
REMARK   13  A    between atoms: C_12  and  C_13
REMARK   14  A    between atoms: C_15  and  C_16
REMARK   15  A    between atoms: C_15  and  N_17
REMARK                            x       y       z     vdW  Elec       q    Type
REMARK                         _______ _______ _______ _____ _____    ______ ____
ROOT
ATOM      1  C   UNL     1       6.439   4.767  15.987  0.00  0.00    +0.000 C 
ENDROOT
BRANCH   1   2
ATOM      2  C   UNL     1       6.931   4.396  14.551  0.00  0.00    +0.000 C 
ATOM      3  C   UNL     1       5.788   3.952  13.633  0.00  0.00    +0.000 C 
BRANCH   2   4
ATOM      4  N   UNL     1       7.672   5.492  13.903  0.00  0.00    +0.000 NA
ATOM      5  H   UNL     1       8.107   6.085  14.608  0.00  0.00    +0.000 HD
ATOM      6  H   UNL     1       7.020   6.088  13.394  0.00  0.00    +0.000 HD
ENDBRANCH   2   4
ENDBRANCH   1   2
BRANCH   1   7
ATOM      7  C   UNL     1       5.118   5.550  15.970  0.00  0.00    +0.000 C 
BRANCH   7   8
ATOM      8  C   UNL     1       4.203   5.255  17.160  0.00  0.00    +0.000 C 
BRANCH   8   9
ATOM      9  C   UNL     1       3.687   6.576  17.733  0.00  0.00    +0.000 C 
BRANCH   9  10
ATOM     10  C   UNL     1       3.043   6.395  19.103  0.00  0.00    +0.000 C 
BRANCH  10  11
ATOM     11  C   UNL     1       3.503   5.081  19.734  0.00  0.00    +0.000 C 
BRANCH  11  12
ATOM     12  C   UNL     1       2.317   4.268  20.246  0.00  0.00    +0.000 C 
BRANCH  12  13
ATOM     13  C   UNL     1       1.325   3.985  19.120  0.00  0.00    +0.000 C 
BRANCH  13  15
ATOM     14  C   UNL     1       2.403   2.133  17.808  0.00  0.00    +0.000 C 
ATOM     15  C   UNL     1       1.288   2.498  18.774  0.00  0.00    +0.000 C 
ENDBRANCH  13  15
ENDBRANCH  12  13
ENDBRANCH  11  12
ENDBRANCH  10  11
ENDBRANCH   9  10
ENDBRANCH   8   9
ENDBRANCH   7   8
ENDBRANCH   1   7
BRANCH   1  16
ATOM     16  O   UNL     1       7.428   5.590  16.648  0.00  0.00    +0.000 OA
BRANCH  16  17
ATOM     17  C   UNL     1       7.564   5.407  17.986  0.00  0.00    +0.000 C 
ATOM     18  C   UNL     1       7.940   6.697  18.654  0.00  0.00    +0.000 C 
ATOM     19  O   UNL     1       7.446   4.339  18.575  0.00  0.00    +0.000 OA
ENDBRANCH  16  17
ENDBRANCH   1  16
TORSDOF 12
ENDMDL
MODEL 6
REMARK VINA RESULT:      -5.5      1.779      3.235
REMARK  Name = 
REMARK  15 active torsions:
REMARK  status: ('A' for Active; 'I' for Inactive)
REMARK    1  A    between atoms: C_1  and  C_2
REMARK    2  A    between atoms: C_2  and  C_3
REMARK    3  A    between atoms: C_3  and  C_4
REMARK    4  A    between atoms: C_4  and  C_5
REMARK    5  A    between atoms: C_5  and  C_6
REMARK    6  A    between atoms: C_6  and  C_7
REMARK    7  A    between atoms: C_7  and  C_8
REMARK    8  A    between atoms: C_8  and  C_9
REMARK    9  A    between atoms: C_9  and  C_10
REMARK   10  A    between atoms: C_10  and  O_11
REMARK   11  A    between atoms: C_10  and  C_15
REMARK   12  A    between atoms: O_11  and  C_12
REMARK   13  A    between atoms: C_12  and  C_13
REMARK   14  A    between atoms: C_15  and  C_16
REMARK   15  A    between atoms: C_15  and  N_17
REMARK                            x       y       z     vdW  Elec       q    Type
REMARK                         _______ _______ _______ _____ _____    ______ ____
ROOT
ATOM      1  C   UNL     1       5.973   6.442  16.656  0.00  0.00    +0.000 C 
ENDROOT
BRANCH   1   2
ATOM      2  C   UNL     1       6.890   6.803  17.870  0.00  0.00    +0.000 C 
ATOM      3  C   UNL     1       7.617   5.583  18.442  0.00  0.00    +0.000 C 
BRANCH   2   4
ATOM      4  N   UNL     1       7.878   7.846  17.545  0.00  0.00    +0.000 NA
ATOM      5  H   UNL     1       8.133   8.362  18.385  0.00  0.00    +0.000 HD
ATOM      6  H   UNL     1       7.459   8.525  16.910  0.00  0.00    +0.000 HD
ENDBRANCH   2   4
ENDBRANCH   1   2
BRANCH   1   7
ATOM      7  C   UNL     1       4.480   6.569  16.991  0.00  0.00    +0.000 C 
BRANCH   7   8
ATOM      8  C   UNL     1       3.915   5.383  17.775  0.00  0.00    +0.000 C 
BRANCH   8   9
ATOM      9  C   UNL     1       2.483   5.705  18.205  0.00  0.00    +0.000 C 
BRANCH   9  10
ATOM     10  C   UNL     1       2.437   6.456  19.530  0.00  0.00    +0.000 C 
BRANCH  10  11
ATOM     11  C   UNL     1       2.379   5.470  20.696  0.00  0.00    +0.000 C 
BRANCH  11  12
ATOM     12  C   UNL     1       1.223   4.487  20.534  0.00  0.00    +0.000 C 
BRANCH  12  13
ATOM     13  C   UNL     1       1.634   3.087  20.983  0.00  0.00    +0.000 C 
BRANCH  13  15
ATOM     14  C   UNL     1       0.878   2.449  18.673  0.00  0.00    +0.000 C 
ATOM     15  C   UNL     1       1.872   2.168  19.788  0.00  0.00    +0.000 C 
ENDBRANCH  13  15
ENDBRANCH  12  13
ENDBRANCH  11  12
ENDBRANCH  10  11
ENDBRANCH   9  10
ENDBRANCH   8   9
ENDBRANCH   7   8
ENDBRANCH   1   7
BRANCH   1  16
ATOM     16  O   UNL     1       6.217   5.076  16.247  0.00  0.00    +0.000 OA
BRANCH  16  17
ATOM     17  C   UNL     1       6.785   4.908  15.025  0.00  0.00    +0.000 C 
ATOM     18  C   UNL     1       6.018   3.893  14.228  0.00  0.00    +0.000 C 
ATOM     19  O   UNL     1       7.804   5.462  14.630  0.00  0.00    +0.000 OA
ENDBRANCH  16  17
ENDBRANCH   1  16
TORSDOF 12
ENDMDL
MODEL 7
REMARK VINA RESULT:      -5.5      1.196      1.525
REMARK  Name = 
REMARK  15 active torsions:
REMARK  status: ('A' for Active; 'I' for Inactive)
REMARK    1  A    between atoms: C_1  and  C_2
REMARK    2  A    between atoms: C_2  and  C_3
REMARK    3  A    between atoms: C_3  and  C_4
REMARK    4  A    between atoms: C_4  and  C_5
REMARK    5  A    between atoms: C_5  and  C_6
REMARK    6  A    between atoms: C_6  and  C_7
REMARK    7  A    between atoms: C_7  and  C_8
REMARK    8  A    between atoms: C_8  and  C_9
REMARK    9  A    between atoms: C_9  and  C_10
REMARK   10  A    between atoms: C_10  and  O_11
REMARK   11  A    between atoms: C_10  and  C_15
REMARK   12  A    between atoms: O_11  and  C_12
REMARK   13  A    between atoms: C_12  and  C_13
REMARK   14  A    between atoms: C_15  and  C_16
REMARK   15  A    between atoms: C_15  and  N_17
REMARK                            x       y       z     vdW  Elec       q    Type
REMARK                         _______ _______ _______ _____ _____    ______ ____
ROOT
ATOM      1  C   UNL     1       6.699   5.414  16.224  0.00  0.00    +0.000 C 
ENDROOT
BRANCH   1   2
ATOM      2  C   UNL     1       6.910   4.685  14.857  0.00  0.00    +0.000 C 
ATOM      3  C   UNL     1       5.589   4.336  14.166  0.00  0.00    +0.000 C 
BRANCH   2   4
ATOM      4  N   UNL     1       7.753   5.456  13.926  0.00  0.00    +0.000 NA
ATOM      5  H   UNL     1       8.281   4.824  13.326  0.00  0.00    +0.000 HD
ATOM      6  H   UNL     1       8.443   5.989  14.455  0.00  0.00    +0.000 HD
ENDBRANCH   2   4
ENDBRANCH   1   2
BRANCH   1   7
ATOM      7  C   UNL     1       5.355   6.153  16.292  0.00  0.00    +0.000 C 
BRANCH   7   8
ATOM      8  C   UNL     1       4.268   5.397  17.058  0.00  0.00    +0.000 C 
BRANCH   8   9
ATOM      9  C   UNL     1       4.894   4.722  18.279  0.00  0.00    +0.000 C 
BRANCH   9  10
ATOM     10  C   UNL     1       4.388   5.316  19.587  0.00  0.00    +0.000 C 
BRANCH  10  11
ATOM     11  C   UNL     1       3.108   6.114  19.345  0.00  0.00    +0.000 C 
BRANCH  11  12
ATOM     12  C   UNL     1       1.948   5.567  20.172  0.00  0.00    +0.000 C 
BRANCH  12  13
ATOM     13  C   UNL     1       1.513   4.196  19.658  0.00  0.00    +0.000 C 
BRANCH  13  15
ATOM     14  C   UNL     1       2.274   2.690  21.518  0.00  0.00    +0.000 C 
ATOM     15  C   UNL     1       1.074   3.287  20.803  0.00  0.00    +0.000 C 
ENDBRANCH  13  15
ENDBRANCH  12  13
ENDBRANCH  11  12
ENDBRANCH  10  11
ENDBRANCH   9  10
ENDBRANCH   8   9
ENDBRANCH   7   8
ENDBRANCH   1   7
BRANCH   1  16
ATOM     16  O   UNL     1       7.748   6.389  16.427  0.00  0.00    +0.000 OA
BRANCH  16  17
ATOM     17  C   UNL     1       7.598   7.219  17.491  0.00  0.00    +0.000 C 
ATOM     18  C   UNL     1       7.922   6.497  18.766  0.00  0.00    +0.000 C 
ATOM     19  O   UNL     1       7.209   8.380  17.440  0.00  0.00    +0.000 OA
ENDBRANCH  16  17
ENDBRANCH   1  16
TORSDOF 12
ENDMDL
MODEL 8
REMARK VINA RESULT:      -5.4      1.927      3.261
REMARK  Name = 
REMARK  15 active torsions:
REMARK  status: ('A' for Active; 'I' for Inactive)
REMARK    1  A    between atoms: C_1  and  C_2
REMARK    2  A    between atoms: C_2  and  C_3
REMARK    3  A    between atoms: C_3  and  C_4
REMARK    4  A    between atoms: C_4  and  C_5
REMARK    5  A    between atoms: C_5  and  C_6
REMARK    6  A    between atoms: C_6  and  C_7
REMARK    7  A    between atoms: C_7  and  C_8
REMARK    8  A    between atoms: C_8  and  C_9
REMARK    9  A    between atoms: C_9  and  C_10
REMARK   10  A    between atoms: C_10  and  O_11
REMARK   11  A    between atoms: C_10  and  C_15
REMARK   12  A    between atoms: O_11  and  C_12
REMARK   13  A    between atoms: C_12  and  C_13
REMARK   14  A    between atoms: C_15  and  C_16
REMARK   15  A    between atoms: C_15  and  N_17
REMARK                            x       y       z     vdW  Elec       q    Type
REMARK                         _______ _______ _______ _____ _____    ______ ____
ROOT
ATOM      1  C   UNL     1       5.626   6.061  16.889  0.00  0.00    +0.000 C 
ENDROOT
BRANCH   1   2
ATOM      2  C   UNL     1       6.925   5.433  17.490  0.00  0.00    +0.000 C 
ATOM      3  C   UNL     1       7.670   6.397  18.417  0.00  0.00    +0.000 C 
BRANCH   2   4
ATOM      4  N   UNL     1       6.666   4.174  18.210  0.00  0.00    +0.000 NA
ATOM      5  H   UNL     1       5.701   3.881  18.068  0.00  0.00    +0.000 HD
ATOM      6  H   UNL     1       6.771   4.329  19.213  0.00  0.00    +0.000 HD
ENDBRANCH   2   4
ENDBRANCH   1   2
BRANCH   1   7
ATOM      7  C   UNL     1       4.355   5.338  17.357  0.00  0.00    +0.000 C 
BRANCH   7   8
ATOM      8  C   UNL     1       3.576   6.086  18.441  0.00  0.00    +0.000 C 
BRANCH   8   9
ATOM      9  C   UNL     1       3.483   5.205  19.688  0.00  0.00    +0.000 C 
BRANCH   9  10
ATOM     10  C   UNL     1       2.210   5.468  20.482  0.00  0.00    +0.000 C 
BRANCH  10  11
ATOM     11  C   UNL     1       1.139   4.438  20.123  0.00  0.00    +0.000 C 
BRANCH  11  12
ATOM     12  C   UNL     1       1.668   3.014  20.271  0.00  0.00    +0.000 C 
BRANCH  12  13
ATOM     13  C   UNL     1       1.255   2.155  19.079  0.00  0.00    +0.000 C 
BRANCH  13  15
ATOM     14  C   UNL     1       3.538   1.747  18.114  0.00  0.00    +0.000 C 
ATOM     15  C   UNL     1       2.178   2.382  17.884  0.00  0.00    +0.000 C 
ENDBRANCH  13  15
ENDBRANCH  12  13
ENDBRANCH  11  12
ENDBRANCH  10  11
ENDBRANCH   9  10
ENDBRANCH   8   9
ENDBRANCH   7   8
ENDBRANCH   1   7
BRANCH   1  16
ATOM     16  O   UNL     1       5.667   5.987  15.445  0.00  0.00    +0.000 OA
BRANCH  16  17
ATOM     17  C   UNL     1       6.615   5.173  14.913  0.00  0.00    +0.000 C 
ATOM     18  C   UNL     1       6.027   3.831  14.586  0.00  0.00    +0.000 C 
ATOM     19  O   UNL     1       7.796   5.460  14.759  0.00  0.00    +0.000 OA
ENDBRANCH  16  17
ENDBRANCH   1  16
TORSDOF 12
ENDMDL
MODEL 9
REMARK VINA RESULT:      -5.4      1.765      3.075
REMARK  Name = 
REMARK  15 active torsions:
REMARK  status: ('A' for Active; 'I' for Inactive)
REMARK    1  A    between atoms: C_1  and  C_2
REMARK    2  A    between atoms: C_2  and  C_3
REMARK    3  A    between atoms: C_3  and  C_4
REMARK    4  A    between atoms: C_4  and  C_5
REMARK    5  A    between atoms: C_5  and  C_6
REMARK    6  A    between atoms: C_6  and  C_7
REMARK    7  A    between atoms: C_7  and  C_8
REMARK    8  A    between atoms: C_8  and  C_9
REMARK    9  A    between atoms: C_9  and  C_10
REMARK   10  A    between atoms: C_10  and  O_11
REMARK   11  A    between atoms: C_10  and  C_15
REMARK   12  A    between atoms: O_11  and  C_12
REMARK   13  A    between atoms: C_12  and  C_13
REMARK   14  A    between atoms: C_15  and  C_16
REMARK   15  A    between atoms: C_15  and  N_17
REMARK                            x       y       z     vdW  Elec       q    Type
REMARK                         _______ _______ _______ _____ _____    ______ ____
ROOT
ATOM      1  C   UNL     1       6.339   6.241  16.467  0.00  0.00    +0.000 C 
ENDROOT
BRANCH   1   2
ATOM      2  C   UNL     1       6.964   6.389  17.892  0.00  0.00    +0.000 C 
ATOM      3  C   UNL     1       7.680   5.118  18.356  0.00  0.00    +0.000 C 
BRANCH   2   4
ATOM      4  N   UNL     1       7.894   7.529  17.989  0.00  0.00    +0.000 NA
ATOM      5  H   UNL     1       8.369   7.518  18.890  0.00  0.00    +0.000 HD
ATOM      6  H   UNL     1       7.366   8.401  17.956  0.00  0.00    +0.000 HD
ENDBRANCH   2   4
ENDBRANCH   1   2
BRANCH   1   7
ATOM      7  C   UNL     1       4.812   6.402  16.479  0.00  0.00    +0.000 C 
BRANCH   7   8
ATOM      8  C   UNL     1       4.152   5.977  17.792  0.00  0.00    +0.000 C 
BRANCH   8   9
ATOM      9  C   UNL     1       3.367   4.684  17.561  0.00  0.00    +0.000 C 
BRANCH   9  10
ATOM     10  C   UNL     1       1.891   4.840  17.906  0.00  0.00    +0.000 C 
BRANCH  10  11
ATOM     11  C   UNL     1       1.352   3.547  18.518  0.00  0.00    +0.000 C 
BRANCH  11  12
ATOM     12  C   UNL     1       0.909   3.760  19.963  0.00  0.00    +0.000 C 
BRANCH  12  13
ATOM     13  C   UNL     1       2.114   3.998  20.871  0.00  0.00    +0.000 C 
BRANCH  13  15
ATOM     14  C   UNL     1       4.052   2.448  20.477  0.00  0.00    +0.000 C 
ATOM     15  C   UNL     1       2.777   2.682  21.270  0.00  0.00    +0.000 C 
ENDBRANCH  13  15
ENDBRANCH  12  13
ENDBRANCH  11  12
ENDBRANCH  10  11
ENDBRANCH   9  10
ENDBRANCH   8   9
ENDBRANCH   7   8
ENDBRANCH   1   7
BRANCH   1  16
ATOM     16  O   UNL     1       6.639   4.932  15.933  0.00  0.00    +0.000 OA
BRANCH  16  17
ATOM     17  C   UNL     1       6.974   4.882  14.617  0.00  0.00    +0.000 C 
ATOM     18  C   UNL     1       6.130   3.869  13.901  0.00  0.00    +0.000 C 
ATOM     19  O   UNL     1       7.866   5.531  14.084  0.00  0.00    +0.000 OA
ENDBRANCH  16  17
ENDBRANCH   1  16
TORSDOF 12
ENDMDL
