MODEL 1
REMARK VINA RESULT:      -6.1      0.000      0.000
REMARK  Name = 
REMARK  25 active torsions:
REMARK  status: ('A' for Active; 'I' for Inactive)
REMARK    1  A    between atoms: C_1  and  C_2
REMARK    2  A    between atoms: C_2  and  C_3
REMARK    3  A    between atoms: C_3  and  C_4
REMARK    4  A    between atoms: C_4  and  C_5
REMARK    5  A    between atoms: C_5  and  C_6
REMARK    6  A    between atoms: C_6  and  C_7
REMARK    7  A    between atoms: N_10  and  C_11
REMARK    8  A    between atoms: C_11  and  C_12
REMARK    9  A    between atoms: C_12  and  C_13
REMARK   10  A    between atoms: C_13  and  C_14
REMARK   11  A    between atoms: C_14  and  C_15
REMARK   12  A    between atoms: C_15  and  C_16
REMARK   13  A    between atoms: C_16  and  C_17
REMARK   14  A    between atoms: C_17  and  C_18
REMARK   15  A    between atoms: C_18  and  C_19
REMARK   16  A    between atoms: C_19  and  C_20
REMARK   17  A    between atoms: C_20  and  C_21
REMARK   18  A    between atoms: C_21  and  C_22
REMARK   19  A    between atoms: C_22  and  N_23
REMARK   20  A    between atoms: C_26  and  C_27
REMARK   21  A    between atoms: C_27  and  C_28
REMARK   22  A    between atoms: C_28  and  C_29
REMARK   23  A    between atoms: C_29  and  C_30
REMARK   24  A    between atoms: C_30  and  C_31
REMARK   25  A    between atoms: C_31  and  C_32
REMARK                            x       y       z     vdW  Elec       q    Type
REMARK                         _______ _______ _______ _____ _____    ______ ____
ROOT
ATOM      1  C   UNL     1       2.081   7.791  19.487  0.00  0.00    +0.000 C 
ENDROOT
BRANCH   1   2
ATOM      2  C   UNL     1       2.468   8.233  18.072  0.00  0.00    +0.000 C 
BRANCH   2   3
ATOM      3  C   UNL     1       2.012   9.661  17.767  0.00  0.00    +0.000 C 
BRANCH   3   4
ATOM      4  C   UNL     1       1.111  10.231  18.870  0.00  0.00    +0.000 C 
BRANCH   4   5
ATOM      5  C   UNL     1       1.056  11.761  18.870  0.00  0.00    +0.000 C 
BRANCH   5   6
ATOM      6  C   UNL     1       2.322  12.395  18.304  0.00  0.00    +0.000 C 
BRANCH   6   7
ATOM      7  C   UNL     1       2.250  13.915  18.386  0.00  0.00    +0.000 C 
BRANCH   7   8
ATOM      8  N   UNL     1       3.571  14.418  18.776  0.00  0.00    +0.000 N 
ATOM      9  C   UNL     1       4.498  14.670  17.819  0.00  0.00    +0.000 A 
ATOM     10  C   UNL     1       5.777  15.049  18.173  0.00  0.00    +0.000 A 
ATOM     11  C   UNL     1       6.103  15.188  19.525  0.00  0.00    +0.000 A 
ATOM     12  C   UNL     1       5.119  14.957  20.486  0.00  0.00    +0.000 A 
ATOM     13  C   UNL     1       3.852  14.577  20.079  0.00  0.00    +0.000 A 
BRANCH  11  14
ATOM     14  C   UNL     1       7.507  15.548  19.946  0.00  0.00    +0.000 C 
BRANCH  14  15
ATOM     15  C   UNL     1       8.551  14.639  19.304  0.00  0.00    +0.000 C 
BRANCH  15  16
ATOM     16  C   UNL     1       8.861  13.439  20.193  0.00  0.00    +0.000 C 
BRANCH  16  17
ATOM     17  C   UNL     1      10.161  13.672  20.957  0.00  0.00    +0.000 C 
BRANCH  17  18
ATOM     18  C   UNL     1      11.384  13.369  20.097  0.00  0.00    +0.000 C 
ATOM     19  C   UNL     1      11.498  11.877  19.832  0.00  0.00    +0.000 C 
ENDBRANCH  17  18
ENDBRANCH  16  17
ENDBRANCH  15  16
ENDBRANCH  14  15
ENDBRANCH  11  14
ENDBRANCH   7   8
ENDBRANCH   6   7
ENDBRANCH   5   6
ENDBRANCH   4   5
ENDBRANCH   3   4
ENDBRANCH   2   3
ENDBRANCH   1   2
BRANCH   1  20
ATOM     20  C   UNL     1       2.390   6.312  19.758  0.00  0.00    +0.000 C 
BRANCH  20  21
ATOM     21  C   UNL     1       1.506   5.702  20.847  0.00  0.00    +0.000 C 
BRANCH  21  22
ATOM     22  C   UNL     1       1.950   4.279  21.162  0.00  0.00    +0.000 C 
BRANCH  22  23
ATOM     23  C   UNL     1       1.025   3.248  20.548  0.00  0.00    +0.000 C 
BRANCH  23  24
ATOM     24  C   UNL     1       1.872   2.194  19.863  0.00  0.00    +0.000 C 
BRANCH  24  28
ATOM     25  C   UNL     1       4.579   3.774  17.050  0.00  0.00    +0.000 A 
ATOM     26  C   UNL     1       5.019   3.413  18.325  0.00  0.00    +0.000 A 
ATOM     27  C   UNL     1       4.105   2.938  19.248  0.00  0.00    +0.000 A 
ATOM     28  N   UNL     1       2.796   2.850  18.929  0.00  0.00    +0.000 N 
ATOM     29  C   UNL     1       2.335   3.300  17.743  0.00  0.00    +0.000 A 
ATOM     30  C   UNL     1       3.213   3.765  16.777  0.00  0.00    +0.000 A 
BRANCH  25  31
ATOM     31  C   UNL     1       5.583   4.041  15.955  0.00  0.00    +0.000 C 
BRANCH  31  32
ATOM     32  C   UNL     1       5.327   5.439  15.379  0.00  0.00    +0.000 C 
BRANCH  32  33
ATOM     33  C   UNL     1       5.846   6.544  16.287  0.00  0.00    +0.000 C 
BRANCH  33  34
ATOM     34  C   UNL     1       7.215   6.161  16.850  0.00  0.00    +0.000 C 
BRANCH  34  36
ATOM     35  C   UNL     1       7.938   5.726  19.216  0.00  0.00    +0.000 C 
ATOM     36  C   UNL     1       7.433   6.767  18.231  0.00  0.00    +0.000 C 
ENDBRANCH  34  36
ENDBRANCH  33  34
ENDBRANCH  32  33
ENDBRANCH  31  32
ENDBRANCH  25  31
ENDBRANCH  24  28
ENDBRANCH  23  24
ENDBRANCH  22  23
ENDBRANCH  21  22
ENDBRANCH  20  21
ENDBRANCH   1  20
TORSDOF 23
ENDMDL
MODEL 2
REMARK VINA RESULT:      -6.1      4.588     10.635
REMARK  Name = 
REMARK  25 active torsions:
REMARK  status: ('A' for Active; 'I' for Inactive)
REMARK    1  A    between atoms: C_1  and  C_2
REMARK    2  A    between atoms: C_2  and  C_3
REMARK    3  A    between atoms: C_3  and  C_4
REMARK    4  A    between atoms: C_4  and  C_5
REMARK    5  A    between atoms: C_5  and  C_6
REMARK    6  A    between atoms: C_6  and  C_7
REMARK    7  A    between atoms: N_10  and  C_11
REMARK    8  A    between atoms: C_11  and  C_12
REMARK    9  A    between atoms: C_12  and  C_13
REMARK   10  A    between atoms: C_13  and  C_14
REMARK   11  A    between atoms: C_14  and  C_15
REMARK   12  A    between atoms: C_15  and  C_16
REMARK   13  A    between atoms: C_16  and  C_17
REMARK   14  A    between atoms: C_17  and  C_18
REMARK   15  A    between atoms: C_18  and  C_19
REMARK   16  A    between atoms: C_19  and  C_20
REMARK   17  A    between atoms: C_20  and  C_21
REMARK   18  A    between atoms: C_21  and  C_22
REMARK   19  A    between atoms: C_22  and  N_23
REMARK   20  A    between atoms: C_26  and  C_27
REMARK   21  A    between atoms: C_27  and  C_28
REMARK   22  A    between atoms: C_28  and  C_29
REMARK   23  A    between atoms: C_29  and  C_30
REMARK   24  A    between atoms: C_30  and  C_31
REMARK   25  A    between atoms: C_31  and  C_32
REMARK                            x       y       z     vdW  Elec       q    Type
REMARK                         _______ _______ _______ _____ _____    ______ ____
ROOT
ATOM      1  C   UNL     1       2.308   6.531  18.360  0.00  0.00    +0.000 C 
ENDROOT
BRANCH   1   2
ATOM      2  C   UNL     1       2.643   6.628  19.852  0.00  0.00    +0.000 C 
BRANCH   2   3
ATOM      3  C   UNL     1       1.551   6.017  20.732  0.00  0.00    +0.000 C 
BRANCH   3   4
ATOM      4  C   UNL     1       1.841   4.552  21.083  0.00  0.00    +0.000 C 
BRANCH   4   5
ATOM      5  C   UNL     1       0.792   3.582  20.530  0.00  0.00    +0.000 C 
BRANCH   5   6
ATOM      6  C   UNL     1       1.236   2.915  19.232  0.00  0.00    +0.000 C 
BRANCH   6   7
ATOM      7  C   UNL     1       2.592   2.243  19.405  0.00  0.00    +0.000 C 
BRANCH   7   8
ATOM      8  N   UNL     1       3.593   3.032  18.680  0.00  0.00    +0.000 N 
ATOM      9  C   UNL     1       3.444   3.235  17.347  0.00  0.00    +0.000 A 
ATOM     10  C   UNL     1       4.425   3.889  16.630  0.00  0.00    +0.000 A 
ATOM     11  C   UNL     1       5.564   4.357  17.292  0.00  0.00    +0.000 A 
ATOM     12  C   UNL     1       5.673   4.166  18.669  0.00  0.00    +0.000 A 
ATOM     13  C   UNL     1       4.662   3.500  19.341  0.00  0.00    +0.000 A 
BRANCH  11  14
ATOM     14  C   UNL     1       6.678   5.028  16.528  0.00  0.00    +0.000 C 
BRANCH  14  15
ATOM     15  C   UNL     1       6.281   5.341  15.088  0.00  0.00    +0.000 C 
BRANCH  15  16
ATOM     16  C   UNL     1       6.483   4.131  14.182  0.00  0.00    +0.000 C 
BRANCH  16  17
ATOM     17  C   UNL     1       5.363   4.055  13.149  0.00  0.00    +0.000 C 
BRANCH  17  18
ATOM     18  C   UNL     1       5.744   3.170  11.966  0.00  0.00    +0.000 C 
ATOM     19  C   UNL     1       4.514   2.799  11.153  0.00  0.00    +0.000 C 
ENDBRANCH  17  18
ENDBRANCH  16  17
ENDBRANCH  15  16
ENDBRANCH  14  15
ENDBRANCH  11  14
ENDBRANCH   7   8
ENDBRANCH   6   7
ENDBRANCH   5   6
ENDBRANCH   4   5
ENDBRANCH   3   4
ENDBRANCH   2   3
ENDBRANCH   1   2
BRANCH   1  20
ATOM     20  C   UNL     1       3.240   7.375  17.481  0.00  0.00    +0.000 C 
BRANCH  20  21
ATOM     21  C   UNL     1       2.908   8.868  17.512  0.00  0.00    +0.000 C 
BRANCH  21  22
ATOM     22  C   UNL     1       1.414   9.080  17.727  0.00  0.00    +0.000 C 
BRANCH  22  23
ATOM     23  C   UNL     1       1.138  10.124  18.789  0.00  0.00    +0.000 C 
BRANCH  23  24
ATOM     24  C   UNL     1       0.419   9.454  19.943  0.00  0.00    +0.000 C 
BRANCH  24  28
ATOM     25  C   UNL     1      -1.060  12.497  22.452  0.00  0.00    +0.000 A 
ATOM     26  C   UNL     1      -0.952  11.187  22.922  0.00  0.00    +0.000 A 
ATOM     27  C   UNL     1      -0.505  10.194  22.068  0.00  0.00    +0.000 A 
ATOM     28  N   UNL     1      -0.205  10.483  20.784  0.00  0.00    +0.000 N 
ATOM     29  C   UNL     1      -0.411  11.719  20.280  0.00  0.00    +0.000 A 
ATOM     30  C   UNL     1      -0.836  12.752  21.100  0.00  0.00    +0.000 A 
BRANCH  25  31
ATOM     31  C   UNL     1      -1.288  13.629  23.423  0.00  0.00    +0.000 C 
BRANCH  31  32
ATOM     32  C   UNL     1      -2.797  13.853  23.577  0.00  0.00    +0.000 C 
BRANCH  32  33
ATOM     33  C   UNL     1      -3.605  13.103  22.528  0.00  0.00    +0.000 C 
BRANCH  33  34
ATOM     34  C   UNL     1      -4.745  13.985  22.016  0.00  0.00    +0.000 C 
BRANCH  34  36
ATOM     35  C   UNL     1      -5.063  12.432  20.067  0.00  0.00    +0.000 C 
ATOM     36  C   UNL     1      -4.887  13.877  20.502  0.00  0.00    +0.000 C 
ENDBRANCH  34  36
ENDBRANCH  33  34
ENDBRANCH  32  33
ENDBRANCH  31  32
ENDBRANCH  25  31
ENDBRANCH  24  28
ENDBRANCH  23  24
ENDBRANCH  22  23
ENDBRANCH  21  22
ENDBRANCH  20  21
ENDBRANCH   1  20
TORSDOF 23
ENDMDL
MODEL 3
REMARK VINA RESULT:      -5.7      3.475      8.900
REMARK  Name = 
REMARK  25 active torsions:
REMARK  status: ('A' for Active; 'I' for Inactive)
REMARK    1  A    between atoms: C_1  and  C_2
REMARK    2  A    between atoms: C_2  and  C_3
REMARK    3  A    between atoms: C_3  and  C_4
REMARK    4  A    between atoms: C_4  and  C_5
REMARK    5  A    between atoms: C_5  and  C_6
REMARK    6  A    between atoms: C_6  and  C_7
REMARK    7  A    between atoms: N_10  and  C_11
REMARK    8  A    between atoms: C_11  and  C_12
REMARK    9  A    between atoms: C_12  and  C_13
REMARK   10  A    between atoms: C_13  and  C_14
REMARK   11  A    between atoms: C_14  and  C_15
REMARK   12  A    between atoms: C_15  and  C_16
REMARK   13  A    between atoms: C_16  and  C_17
REMARK   14  A    between atoms: C_17  and  C_18
REMARK   15  A    between atoms: C_18  and  C_19
REMARK   16  A    between atoms: C_19  and  C_20
REMARK   17  A    between atoms: C_20  and  C_21
REMARK   18  A    between atoms: C_21  and  C_22
REMARK   19  A    between atoms: C_22  and  N_23
REMARK   20  A    between atoms: C_26  and  C_27
REMARK   21  A    between atoms: C_27  and  C_28
REMARK   22  A    between atoms: C_28  and  C_29
REMARK   23  A    between atoms: C_29  and  C_30
REMARK   24  A    between atoms: C_30  and  C_31
REMARK   25  A    between atoms: C_31  and  C_32
REMARK                            x       y       z     vdW  Elec       q    Type
REMARK                         _______ _______ _______ _____ _____    ______ ____
ROOT
ATOM      1  C   UNL     1       1.159   4.184  20.625  0.00  0.00    +0.000 C 
ENDROOT
BRANCH   1   2
ATOM      2  C   UNL     1       2.395   3.479  20.058  0.00  0.00    +0.000 C 
BRANCH   2   3
ATOM      3  C   UNL     1       2.033   2.213  19.280  0.00  0.00    +0.000 C 
BRANCH   3   4
ATOM      4  C   UNL     1       3.250   1.593  18.581  0.00  0.00    +0.000 C 
BRANCH   4   5
ATOM      5  C   UNL     1       3.547   2.226  17.218  0.00  0.00    +0.000 C 
BRANCH   5   6
ATOM      6  C   UNL     1       4.013   3.674  17.331  0.00  0.00    +0.000 C 
BRANCH   6   7
ATOM      7  C   UNL     1       5.232   3.921  16.452  0.00  0.00    +0.000 C 
BRANCH   7   8
ATOM      8  N   UNL     1       6.020   5.003  17.050  0.00  0.00    +0.000 N 
ATOM      9  C   UNL     1       6.216   6.149  16.352  0.00  0.00    +0.000 A 
ATOM     10  C   UNL     1       7.036   7.138  16.856  0.00  0.00    +0.000 A 
ATOM     11  C   UNL     1       7.649   6.955  18.100  0.00  0.00    +0.000 A 
ATOM     12  C   UNL     1       7.401   5.782  18.810  0.00  0.00    +0.000 A 
ATOM     13  C   UNL     1       6.572   4.819  18.259  0.00  0.00    +0.000 A 
BRANCH  11  14
ATOM     14  C   UNL     1       8.594   7.993  18.653  0.00  0.00    +0.000 C 
BRANCH  14  15
ATOM     15  C   UNL     1       8.335   9.378  18.066  0.00  0.00    +0.000 C 
BRANCH  15  16
ATOM     16  C   UNL     1       8.833  10.477  19.000  0.00  0.00    +0.000 C 
BRANCH  16  17
ATOM     17  C   UNL     1       9.353  11.660  18.189  0.00  0.00    +0.000 C 
BRANCH  17  18
ATOM     18  C   UNL     1      10.641  12.225  18.777  0.00  0.00    +0.000 C 
ATOM     19  C   UNL     1      11.857  11.591  18.121  0.00  0.00    +0.000 C 
ENDBRANCH  17  18
ENDBRANCH  16  17
ENDBRANCH  15  16
ENDBRANCH  14  15
ENDBRANCH  11  14
ENDBRANCH   7   8
ENDBRANCH   6   7
ENDBRANCH   5   6
ENDBRANCH   4   5
ENDBRANCH   3   4
ENDBRANCH   2   3
ENDBRANCH   1   2
BRANCH   1  20
ATOM     20  C   UNL     1       1.225   5.711  20.488  0.00  0.00    +0.000 C 
BRANCH  20  21
ATOM     21  C   UNL     1       2.113   6.174  19.332  0.00  0.00    +0.000 C 
BRANCH  21  22
ATOM     22  C   UNL     1       2.398   7.667  19.441  0.00  0.00    +0.000 C 
BRANCH  22  23
ATOM     23  C   UNL     1       1.805   8.442  18.283  0.00  0.00    +0.000 C 
BRANCH  23  24
ATOM     24  C   UNL     1       1.497   9.849  18.758  0.00  0.00    +0.000 C 
BRANCH  24  28
ATOM     25  C   UNL     1      -2.506  10.885  17.960  0.00  0.00    +0.000 A 
ATOM     26  C   UNL     1      -1.845  11.426  19.064  0.00  0.00    +0.000 A 
ATOM     27  C   UNL     1      -0.545  11.039  19.333  0.00  0.00    +0.000 A 
ATOM     28  N   UNL     1       0.069  10.125  18.553  0.00  0.00    +0.000 N 
ATOM     29  C   UNL     1      -0.590   9.506  17.550  0.00  0.00    +0.000 A 
ATOM     30  C   UNL     1      -1.887   9.875  17.228  0.00  0.00    +0.000 A 
BRANCH  25  31
ATOM     31  C   UNL     1      -3.813  11.482  17.498  0.00  0.00    +0.000 C 
BRANCH  31  32
ATOM     32  C   UNL     1      -4.966  10.632  18.045  0.00  0.00    +0.000 C 
BRANCH  32  33
ATOM     33  C   UNL     1      -6.300  11.362  17.993  0.00  0.00    +0.000 C 
BRANCH  33  34
ATOM     34  C   UNL     1      -6.265  12.587  18.908  0.00  0.00    +0.000 C 
BRANCH  34  36
ATOM     35  C   UNL     1      -5.868  12.350  21.377  0.00  0.00    +0.000 C 
ATOM     36  C   UNL     1      -6.897  12.282  20.261  0.00  0.00    +0.000 C 
ENDBRANCH  34  36
ENDBRANCH  33  34
ENDBRANCH  32  33
ENDBRANCH  31  32
ENDBRANCH  25  31
ENDBRANCH  24  28
ENDBRANCH  23  24
ENDBRANCH  22  23
ENDBRANCH  21  22
ENDBRANCH  20  21
ENDBRANCH   1  20
TORSDOF 23
ENDMDL
MODEL 4
REMARK VINA RESULT:      -5.7      4.627     10.706
REMARK  Name = 
REMARK  25 active torsions:
REMARK  status: ('A' for Active; 'I' for Inactive)
REMARK    1  A    between atoms: C_1  and  C_2
REMARK    2  A    between atoms: C_2  and  C_3
REMARK    3  A    between atoms: C_3  and  C_4
REMARK    4  A    between atoms: C_4  and  C_5
REMARK    5  A    between atoms: C_5  and  C_6
REMARK    6  A    between atoms: C_6  and  C_7
REMARK    7  A    between atoms: N_10  and  C_11
REMARK    8  A    between atoms: C_11  and  C_12
REMARK    9  A    between atoms: C_12  and  C_13
REMARK   10  A    between atoms: C_13  and  C_14
REMARK   11  A    between atoms: C_14  and  C_15
REMARK   12  A    between atoms: C_15  and  C_16
REMARK   13  A    between atoms: C_16  and  C_17
REMARK   14  A    between atoms: C_17  and  C_18
REMARK   15  A    between atoms: C_18  and  C_19
REMARK   16  A    between atoms: C_19  and  C_20
REMARK   17  A    between atoms: C_20  and  C_21
REMARK   18  A    between atoms: C_21  and  C_22
REMARK   19  A    between atoms: C_22  and  N_23
REMARK   20  A    between atoms: C_26  and  C_27
REMARK   21  A    between atoms: C_27  and  C_28
REMARK   22  A    between atoms: C_28  and  C_29
REMARK   23  A    between atoms: C_29  and  C_30
REMARK   24  A    between atoms: C_30  and  C_31
REMARK   25  A    between atoms: C_31  and  C_32
REMARK                            x       y       z     vdW  Elec       q    Type
REMARK                         _______ _______ _______ _____ _____    ______ ____
ROOT
ATOM      1  C   UNL     1       2.330   7.329  19.928  0.00  0.00    +0.000 C 
ENDROOT
BRANCH   1   2
ATOM      2  C   UNL     1       1.607   6.351  20.860  0.00  0.00    +0.000 C 
BRANCH   2   3
ATOM      3  C   UNL     1       1.714   4.904  20.376  0.00  0.00    +0.000 C 
BRANCH   3   4
ATOM      4  C   UNL     1       1.485   3.894  21.509  0.00  0.00    +0.000 C 
BRANCH   4   5
ATOM      5  C   UNL     1       1.437   2.444  21.020  0.00  0.00    +0.000 C 
BRANCH   5   6
ATOM      6  C   UNL     1       2.097   2.260  19.658  0.00  0.00    +0.000 C 
BRANCH   6   7
ATOM      7  C   UNL     1       3.602   2.077  19.805  0.00  0.00    +0.000 C 
BRANCH   7   8
ATOM      8  N   UNL     1       4.270   2.957  18.840  0.00  0.00    +0.000 N 
ATOM      9  C   UNL     1       5.176   3.864  19.282  0.00  0.00    +0.000 A 
ATOM     10  C   UNL     1       5.740   4.766  18.403  0.00  0.00    +0.000 A 
ATOM     11  C   UNL     1       5.383   4.725  17.052  0.00  0.00    +0.000 A 
ATOM     12  C   UNL     1       4.477   3.758  16.621  0.00  0.00    +0.000 A 
ATOM     13  C   UNL     1       3.937   2.878  17.543  0.00  0.00    +0.000 A 
BRANCH  11  14
ATOM     14  C   UNL     1       5.942   5.732  16.077  0.00  0.00    +0.000 C 
BRANCH  14  15
ATOM     15  C   UNL     1       5.577   5.399  14.633  0.00  0.00    +0.000 C 
BRANCH  15  16
ATOM     16  C   UNL     1       6.145   4.045  14.217  0.00  0.00    +0.000 C 
BRANCH  16  17
ATOM     17  C   UNL     1       6.571   4.082  12.752  0.00  0.00    +0.000 C 
BRANCH  17  18
ATOM     18  C   UNL     1       5.907   2.973  11.943  0.00  0.00    +0.000 C 
ATOM     19  C   UNL     1       4.432   3.272  11.731  0.00  0.00    +0.000 C 
ENDBRANCH  17  18
ENDBRANCH  16  17
ENDBRANCH  15  16
ENDBRANCH  14  15
ENDBRANCH  11  14
ENDBRANCH   7   8
ENDBRANCH   6   7
ENDBRANCH   5   6
ENDBRANCH   4   5
ENDBRANCH   3   4
ENDBRANCH   2   3
ENDBRANCH   1   2
BRANCH   1  20
ATOM     20  C   UNL     1       2.492   6.788  18.501  0.00  0.00    +0.000 C 
BRANCH  20  21
ATOM     21  C   UNL     1       3.100   7.807  17.536  0.00  0.00    +0.000 C 
BRANCH  21  22
ATOM     22  C   UNL     1       2.479   9.182  17.749  0.00  0.00    +0.000 C 
BRANCH  22  23
ATOM     23  C   UNL     1       0.986   9.098  17.991  0.00  0.00    +0.000 C 
BRANCH  23  24
ATOM     24  C   UNL     1       0.405  10.495  17.886  0.00  0.00    +0.000 C 
BRANCH  24  28
ATOM     25  C   UNL     1      -1.003  11.713  21.663  0.00  0.00    +0.000 A 
ATOM     26  C   UNL     1      -0.445  10.444  21.495  0.00  0.00    +0.000 A 
ATOM     27  C   UNL     1      -0.029  10.048  20.237  0.00  0.00    +0.000 A 
ATOM     28  N   UNL     1      -0.188  10.867  19.176  0.00  0.00    +0.000 N 
ATOM     29  C   UNL     1      -0.828  12.050  19.297  0.00  0.00    +0.000 A 
ATOM     30  C   UNL     1      -1.244  12.501  20.540  0.00  0.00    +0.000 A 
BRANCH  25  31
ATOM     31  C   UNL     1      -1.218  12.263  23.052  0.00  0.00    +0.000 C 
BRANCH  31  32
ATOM     32  C   UNL     1      -2.712  12.188  23.388  0.00  0.00    +0.000 C 
BRANCH  32  33
ATOM     33  C   UNL     1      -3.363  13.562  23.448  0.00  0.00    +0.000 C 
BRANCH  33  34
ATOM     34  C   UNL     1      -4.847  13.425  23.792  0.00  0.00    +0.000 C 
BRANCH  34  36
ATOM     35  C   UNL     1      -6.525  14.378  22.184  0.00  0.00    +0.000 C 
ATOM     36  C   UNL     1      -5.680  13.167  22.541  0.00  0.00    +0.000 C 
ENDBRANCH  34  36
ENDBRANCH  33  34
ENDBRANCH  32  33
ENDBRANCH  31  32
ENDBRANCH  25  31
ENDBRANCH  24  28
ENDBRANCH  23  24
ENDBRANCH  22  23
ENDBRANCH  21  22
ENDBRANCH  20  21
ENDBRANCH   1  20
TORSDOF 23
ENDMDL
MODEL 5
REMARK VINA RESULT:      -5.6      3.091     11.220
REMARK  Name = 
REMARK  25 active torsions:
REMARK  status: ('A' for Active; 'I' for Inactive)
REMARK    1  A    between atoms: C_1  and  C_2
REMARK    2  A    between atoms: C_2  and  C_3
REMARK    3  A    between atoms: C_3  and  C_4
REMARK    4  A    between atoms: C_4  and  C_5
REMARK    5  A    between atoms: C_5  and  C_6
REMARK    6  A    between atoms: C_6  and  C_7
REMARK    7  A    between atoms: N_10  and  C_11
REMARK    8  A    between atoms: C_11  and  C_12
REMARK    9  A    between atoms: C_12  and  C_13
REMARK   10  A    between atoms: C_13  and  C_14
REMARK   11  A    between atoms: C_14  and  C_15
REMARK   12  A    between atoms: C_15  and  C_16
REMARK   13  A    between atoms: C_16  and  C_17
REMARK   14  A    between atoms: C_17  and  C_18
REMARK   15  A    between atoms: C_18  and  C_19
REMARK   16  A    between atoms: C_19  and  C_20
REMARK   17  A    between atoms: C_20  and  C_21
REMARK   18  A    between atoms: C_21  and  C_22
REMARK   19  A    between atoms: C_22  and  N_23
REMARK   20  A    between atoms: C_26  and  C_27
REMARK   21  A    between atoms: C_27  and  C_28
REMARK   22  A    between atoms: C_28  and  C_29
REMARK   23  A    between atoms: C_29  and  C_30
REMARK   24  A    between atoms: C_30  and  C_31
REMARK   25  A    between atoms: C_31  and  C_32
REMARK                            x       y       z     vdW  Elec       q    Type
REMARK                         _______ _______ _______ _____ _____    ______ ____
ROOT
ATOM      1  C   UNL     1       8.778  10.733  18.318  0.00  0.00    +0.000 C 
ENDROOT
BRANCH   1   2
ATOM      2  C   UNL     1       8.807   9.203  18.252  0.00  0.00    +0.000 C 
BRANCH   2   3
ATOM      3  C   UNL     1       7.477   8.618  17.774  0.00  0.00    +0.000 C 
BRANCH   3   4
ATOM      4  C   UNL     1       7.624   7.178  17.268  0.00  0.00    +0.000 C 
BRANCH   4   5
ATOM      5  C   UNL     1       7.665   6.145  18.398  0.00  0.00    +0.000 C 
BRANCH   5   6
ATOM      6  C   UNL     1       7.558   4.711  17.889  0.00  0.00    +0.000 C 
BRANCH   6   7
ATOM      7  C   UNL     1       6.428   4.580  16.876  0.00  0.00    +0.000 C 
BRANCH   7   8
ATOM      8  N   UNL     1       5.227   4.123  17.582  0.00  0.00    +0.000 N 
ATOM      9  C   UNL     1       4.033   4.129  16.939  0.00  0.00    +0.000 A 
ATOM     10  C   UNL     1       2.878   3.798  17.617  0.00  0.00    +0.000 A 
ATOM     11  C   UNL     1       2.951   3.440  18.967  0.00  0.00    +0.000 A 
ATOM     12  C   UNL     1       4.196   3.408  19.592  0.00  0.00    +0.000 A 
ATOM     13  C   UNL     1       5.325   3.752  18.868  0.00  0.00    +0.000 A 
BRANCH  11  14
ATOM     14  C   UNL     1       1.699   3.125  19.749  0.00  0.00    +0.000 C 
BRANCH  14  15
ATOM     15  C   UNL     1       0.887   4.378  20.064  0.00  0.00    +0.000 C 
BRANCH  15  16
ATOM     16  C   UNL     1       1.729   5.414  20.801  0.00  0.00    +0.000 C 
BRANCH  16  17
ATOM     17  C   UNL     1       2.155   6.523  19.843  0.00  0.00    +0.000 C 
BRANCH  17  18
ATOM     18  C   UNL     1       1.845   7.906  20.407  0.00  0.00    +0.000 C 
ATOM     19  C   UNL     1       0.781   7.819  21.491  0.00  0.00    +0.000 C 
ENDBRANCH  17  18
ENDBRANCH  16  17
ENDBRANCH  15  16
ENDBRANCH  14  15
ENDBRANCH  11  14
ENDBRANCH   7   8
ENDBRANCH   6   7
ENDBRANCH   5   6
ENDBRANCH   4   5
ENDBRANCH   3   4
ENDBRANCH   2   3
ENDBRANCH   1   2
BRANCH   1  20
ATOM     20  C   UNL     1      10.094  11.378  17.863  0.00  0.00    +0.000 C 
BRANCH  20  21
ATOM     21  C   UNL     1      11.155  11.422  18.963  0.00  0.00    +0.000 C 
BRANCH  21  22
ATOM     22  C   UNL     1      12.042  12.651  18.802  0.00  0.00    +0.000 C 
BRANCH  22  23
ATOM     23  C   UNL     1      11.805  13.668  19.899  0.00  0.00    +0.000 C 
BRANCH  23  24
ATOM     24  C   UNL     1      10.570  14.474  19.545  0.00  0.00    +0.000 C 
BRANCH  24  28
ATOM     25  C   UNL     1       7.489  13.499  22.247  0.00  0.00    +0.000 A 
ATOM     26  C   UNL     1       7.269  14.436  21.236  0.00  0.00    +0.000 A 
ATOM     27  C   UNL     1       8.308  14.774  20.387  0.00  0.00    +0.000 A 
ATOM     28  N   UNL     1       9.530  14.226  20.552  0.00  0.00    +0.000 N 
ATOM     29  C   UNL     1       9.793  13.405  21.591  0.00  0.00    +0.000 A 
ATOM     30  C   UNL     1       8.781  13.019  22.457  0.00  0.00    +0.000 A 
BRANCH  25  31
ATOM     31  C   UNL     1       6.320  12.923  23.008  0.00  0.00    +0.000 C 
BRANCH  31  32
ATOM     32  C   UNL     1       6.822  12.384  24.353  0.00  0.00    +0.000 C 
BRANCH  32  33
ATOM     33  C   UNL     1       5.941  11.269  24.896  0.00  0.00    +0.000 C 
BRANCH  33  34
ATOM     34  C   UNL     1       5.842  11.375  26.419  0.00  0.00    +0.000 C 
BRANCH  34  36
ATOM     35  C   UNL     1       7.001  12.861  28.080  0.00  0.00    +0.000 C 
ATOM     36  C   UNL     1       7.179  11.775  27.032  0.00  0.00    +0.000 C 
ENDBRANCH  34  36
ENDBRANCH  33  34
ENDBRANCH  32  33
ENDBRANCH  31  32
ENDBRANCH  25  31
ENDBRANCH  24  28
ENDBRANCH  23  24
ENDBRANCH  22  23
ENDBRANCH  21  22
ENDBRANCH  20  21
ENDBRANCH   1  20
TORSDOF 23
ENDMDL
MODEL 6
REMARK VINA RESULT:      -5.6      2.084      9.565
REMARK  Name = 
REMARK  25 active torsions:
REMARK  status: ('A' for Active; 'I' for Inactive)
REMARK    1  A    between atoms: C_1  and  C_2
REMARK    2  A    between atoms: C_2  and  C_3
REMARK    3  A    between atoms: C_3  and  C_4
REMARK    4  A    between atoms: C_4  and  C_5
REMARK    5  A    between atoms: C_5  and  C_6
REMARK    6  A    between atoms: C_6  and  C_7
REMARK    7  A    between atoms: N_10  and  C_11
REMARK    8  A    between atoms: C_11  and  C_12
REMARK    9  A    between atoms: C_12  and  C_13
REMARK   10  A    between atoms: C_13  and  C_14
REMARK   11  A    between atoms: C_14  and  C_15
REMARK   12  A    between atoms: C_15  and  C_16
REMARK   13  A    between atoms: C_16  and  C_17
REMARK   14  A    between atoms: C_17  and  C_18
REMARK   15  A    between atoms: C_18  and  C_19
REMARK   16  A    between atoms: C_19  and  C_20
REMARK   17  A    between atoms: C_20  and  C_21
REMARK   18  A    between atoms: C_21  and  C_22
REMARK   19  A    between atoms: C_22  and  N_23
REMARK   20  A    between atoms: C_26  and  C_27
REMARK   21  A    between atoms: C_27  and  C_28
REMARK   22  A    between atoms: C_28  and  C_29
REMARK   23  A    between atoms: C_29  and  C_30
REMARK   24  A    between atoms: C_30  and  C_31
REMARK   25  A    between atoms: C_31  and  C_32
REMARK                            x       y       z     vdW  Elec       q    Type
REMARK                         _______ _______ _______ _____ _____    ______ ____
ROOT
ATOM      1  C   UNL     1       2.513   6.637  18.236  0.00  0.00    +0.000 C 
ENDROOT
BRANCH   1   2
ATOM      2  C   UNL     1       3.478   6.344  19.390  0.00  0.00    +0.000 C 
BRANCH   2   3
ATOM      3  C   UNL     1       2.795   5.605  20.542  0.00  0.00    +0.000 C 
BRANCH   3   4
ATOM      4  C   UNL     1       1.372   5.159  20.183  0.00  0.00    +0.000 C 
BRANCH   4   5
ATOM      5  C   UNL     1       1.034   3.757  20.699  0.00  0.00    +0.000 C 
BRANCH   5   6
ATOM      6  C   UNL     1       0.731   2.773  19.574  0.00  0.00    +0.000 C 
BRANCH   6   7
ATOM      7  C   UNL     1       1.937   1.886  19.291  0.00  0.00    +0.000 C 
BRANCH   7   8
ATOM      8  N   UNL     1       2.861   2.627  18.426  0.00  0.00    +0.000 N 
ATOM      9  C   UNL     1       2.420   3.106  17.235  0.00  0.00    +0.000 A 
ATOM     10  C   UNL     1       3.299   3.718  16.366  0.00  0.00    +0.000 A 
ATOM     11  C   UNL     1       4.642   3.856  16.729  0.00  0.00    +0.000 A 
ATOM     12  C   UNL     1       5.058   3.387  17.974  0.00  0.00    +0.000 A 
ATOM     13  C   UNL     1       4.138   2.778  18.809  0.00  0.00    +0.000 A 
BRANCH  11  14
ATOM     14  C   UNL     1       5.638   4.472  15.777  0.00  0.00    +0.000 C 
BRANCH  14  15
ATOM     15  C   UNL     1       6.091   5.856  16.233  0.00  0.00    +0.000 C 
BRANCH  15  16
ATOM     16  C   UNL     1       7.410   5.782  16.997  0.00  0.00    +0.000 C 
BRANCH  16  17
ATOM     17  C   UNL     1       7.287   6.514  18.330  0.00  0.00    +0.000 C 
BRANCH  17  18
ATOM     18  C   UNL     1       8.291   7.657  18.441  0.00  0.00    +0.000 C 
ATOM     19  C   UNL     1       7.822   8.865  17.646  0.00  0.00    +0.000 C 
ENDBRANCH  17  18
ENDBRANCH  16  17
ENDBRANCH  15  16
ENDBRANCH  14  15
ENDBRANCH  11  14
ENDBRANCH   7   8
ENDBRANCH   6   7
ENDBRANCH   5   6
ENDBRANCH   4   5
ENDBRANCH   3   4
ENDBRANCH   2   3
ENDBRANCH   1   2
BRANCH   1  20
ATOM     20  C   UNL     1       2.951   7.830  17.377  0.00  0.00    +0.000 C 
BRANCH  20  21
ATOM     21  C   UNL     1       2.438   9.171  17.903  0.00  0.00    +0.000 C 
BRANCH  21  22
ATOM     22  C   UNL     1       0.925   9.134  18.077  0.00  0.00    +0.000 C 
BRANCH  22  23
ATOM     23  C   UNL     1       0.449  10.129  19.116  0.00  0.00    +0.000 C 
BRANCH  23  24
ATOM     24  C   UNL     1      -0.239  11.275  18.401  0.00  0.00    +0.000 C 
BRANCH  24  28
ATOM     25  C   UNL     1       1.113  14.951  19.949  0.00  0.00    +0.000 A 
ATOM     26  C   UNL     1       1.688  13.753  20.377  0.00  0.00    +0.000 A 
ATOM     27  C   UNL     1       1.199  12.555  19.889  0.00  0.00    +0.000 A 
ATOM     28  N   UNL     1       0.158  12.542  19.030  0.00  0.00    +0.000 N 
ATOM     29  C   UNL     1      -0.484  13.681  18.694  0.00  0.00    +0.000 A 
ATOM     30  C   UNL     1      -0.020  14.908  19.139  0.00  0.00    +0.000 A 
BRANCH  25  31
ATOM     31  C   UNL     1       1.791  16.264  20.257  0.00  0.00    +0.000 C 
BRANCH  31  32
ATOM     32  C   UNL     1       3.292  16.014  20.444  0.00  0.00    +0.000 C 
BRANCH  32  33
ATOM     33  C   UNL     1       4.057  16.062  19.129  0.00  0.00    +0.000 C 
BRANCH  33  34
ATOM     34  C   UNL     1       5.486  16.551  19.372  0.00  0.00    +0.000 C 
BRANCH  34  36
ATOM     35  C   UNL     1       5.808  14.641  17.772  0.00  0.00    +0.000 C 
ATOM     36  C   UNL     1       6.484  15.782  18.513  0.00  0.00    +0.000 C 
ENDBRANCH  34  36
ENDBRANCH  33  34
ENDBRANCH  32  33
ENDBRANCH  31  32
ENDBRANCH  25  31
ENDBRANCH  24  28
ENDBRANCH  23  24
ENDBRANCH  22  23
ENDBRANCH  21  22
ENDBRANCH  20  21
ENDBRANCH   1  20
TORSDOF 23
ENDMDL
MODEL 7
REMARK VINA RESULT:      -5.6      2.215     10.215
REMARK  Name = 
REMARK  25 active torsions:
REMARK  status: ('A' for Active; 'I' for Inactive)
REMARK    1  A    between atoms: C_1  and  C_2
REMARK    2  A    between atoms: C_2  and  C_3
REMARK    3  A    between atoms: C_3  and  C_4
REMARK    4  A    between atoms: C_4  and  C_5
REMARK    5  A    between atoms: C_5  and  C_6
REMARK    6  A    between atoms: C_6  and  C_7
REMARK    7  A    between atoms: N_10  and  C_11
REMARK    8  A    between atoms: C_11  and  C_12
REMARK    9  A    between atoms: C_12  and  C_13
REMARK   10  A    between atoms: C_13  and  C_14
REMARK   11  A    between atoms: C_14  and  C_15
REMARK   12  A    between atoms: C_15  and  C_16
REMARK   13  A    between atoms: C_16  and  C_17
REMARK   14  A    between atoms: C_17  and  C_18
REMARK   15  A    between atoms: C_18  and  C_19
REMARK   16  A    between atoms: C_19  and  C_20
REMARK   17  A    between atoms: C_20  and  C_21
REMARK   18  A    between atoms: C_21  and  C_22
REMARK   19  A    between atoms: C_22  and  N_23
REMARK   20  A    between atoms: C_26  and  C_27
REMARK   21  A    between atoms: C_27  and  C_28
REMARK   22  A    between atoms: C_28  and  C_29
REMARK   23  A    between atoms: C_29  and  C_30
REMARK   24  A    between atoms: C_30  and  C_31
REMARK   25  A    between atoms: C_31  and  C_32
REMARK                            x       y       z     vdW  Elec       q    Type
REMARK                         _______ _______ _______ _____ _____    ______ ____
ROOT
ATOM      1  C   UNL     1       2.179   7.428  18.582  0.00  0.00    +0.000 C 
ENDROOT
BRANCH   1   2
ATOM      2  C   UNL     1       2.113   7.781  20.072  0.00  0.00    +0.000 C 
BRANCH   2   3
ATOM      3  C   UNL     1       1.232   6.809  20.859  0.00  0.00    +0.000 C 
BRANCH   3   4
ATOM      4  C   UNL     1       1.279   5.387  20.284  0.00  0.00    +0.000 C 
BRANCH   4   5
ATOM      5  C   UNL     1       2.104   4.421  21.139  0.00  0.00    +0.000 C 
BRANCH   5   6
ATOM      6  C   UNL     1       1.483   3.030  21.220  0.00  0.00    +0.000 C 
BRANCH   6   7
ATOM      7  C   UNL     1       2.432   1.979  20.659  0.00  0.00    +0.000 C 
BRANCH   7   8
ATOM      8  N   UNL     1       3.079   2.533  19.465  0.00  0.00    +0.000 N 
ATOM      9  C   UNL     1       4.323   3.066  19.567  0.00  0.00    +0.000 A 
ATOM     10  C   UNL     1       4.906   3.680  18.478  0.00  0.00    +0.000 A 
ATOM     11  C   UNL     1       4.213   3.733  17.265  0.00  0.00    +0.000 A 
ATOM     12  C   UNL     1       2.951   3.146  17.180  0.00  0.00    +0.000 A 
ATOM     13  C   UNL     1       2.409   2.545  18.303  0.00  0.00    +0.000 A 
BRANCH  11  14
ATOM     14  C   UNL     1       4.802   4.445  16.072  0.00  0.00    +0.000 C 
BRANCH  14  15
ATOM     15  C   UNL     1       6.304   4.207  15.943  0.00  0.00    +0.000 C 
BRANCH  15  16
ATOM     16  C   UNL     1       6.792   4.505  14.529  0.00  0.00    +0.000 C 
BRANCH  16  17
ATOM     17  C   UNL     1       5.646   4.349  13.534  0.00  0.00    +0.000 C 
BRANCH  17  18
ATOM     18  C   UNL     1       5.976   3.331  12.447  0.00  0.00    +0.000 C 
ATOM     19  C   UNL     1       4.750   3.035  11.597  0.00  0.00    +0.000 C 
ENDBRANCH  17  18
ENDBRANCH  16  17
ENDBRANCH  15  16
ENDBRANCH  14  15
ENDBRANCH  11  14
ENDBRANCH   7   8
ENDBRANCH   6   7
ENDBRANCH   5   6
ENDBRANCH   4   5
ENDBRANCH   3   4
ENDBRANCH   2   3
ENDBRANCH   1   2
BRANCH   1  20
ATOM     20  C   UNL     1       2.358   8.657  17.682  0.00  0.00    +0.000 C 
BRANCH  20  21
ATOM     21  C   UNL     1       1.600   9.887  18.184  0.00  0.00    +0.000 C 
BRANCH  21  22
ATOM     22  C   UNL     1       0.107   9.742  17.917  0.00  0.00    +0.000 C 
BRANCH  22  23
ATOM     23  C   UNL     1      -0.728  10.271  19.065  0.00  0.00    +0.000 C 
BRANCH  23  24
ATOM     24  C   UNL     1      -1.238  11.648  18.690  0.00  0.00    +0.000 C 
BRANCH  24  28
ATOM     25  C   UNL     1       1.188  14.334  20.844  0.00  0.00    +0.000 A 
ATOM     26  C   UNL     1       0.292  13.500  21.515  0.00  0.00    +0.000 A 
ATOM     27  C   UNL     1      -0.527  12.657  20.785  0.00  0.00    +0.000 A 
ATOM     28  N   UNL     1      -0.481  12.661  19.437  0.00  0.00    +0.000 N 
ATOM     29  C   UNL     1       0.295  13.540  18.767  0.00  0.00    +0.000 A 
ATOM     30  C   UNL     1       1.149  14.390  19.452  0.00  0.00    +0.000 A 
BRANCH  25  31
ATOM     31  C   UNL     1       2.263  15.060  21.614  0.00  0.00    +0.000 C 
BRANCH  31  32
ATOM     32  C   UNL     1       3.196  15.763  20.620  0.00  0.00    +0.000 C 
BRANCH  32  33
ATOM     33  C   UNL     1       4.632  15.272  20.725  0.00  0.00    +0.000 C 
BRANCH  33  34
ATOM     34  C   UNL     1       5.195  14.999  19.330  0.00  0.00    +0.000 C 
BRANCH  34  36
ATOM     35  C   UNL     1       7.237  15.251  17.888  0.00  0.00    +0.000 C 
ATOM     36  C   UNL     1       6.713  15.143  19.310  0.00  0.00    +0.000 C 
ENDBRANCH  34  36
ENDBRANCH  33  34
ENDBRANCH  32  33
ENDBRANCH  31  32
ENDBRANCH  25  31
ENDBRANCH  24  28
ENDBRANCH  23  24
ENDBRANCH  22  23
ENDBRANCH  21  22
ENDBRANCH  20  21
ENDBRANCH   1  20
TORSDOF 23
ENDMDL
MODEL 8
REMARK VINA RESULT:      -5.6      1.564      9.735
REMARK  Name = 
REMARK  25 active torsions:
REMARK  status: ('A' for Active; 'I' for Inactive)
REMARK    1  A    between atoms: C_1  and  C_2
REMARK    2  A    between atoms: C_2  and  C_3
REMARK    3  A    between atoms: C_3  and  C_4
REMARK    4  A    between atoms: C_4  and  C_5
REMARK    5  A    between atoms: C_5  and  C_6
REMARK    6  A    between atoms: C_6  and  C_7
REMARK    7  A    between atoms: N_10  and  C_11
REMARK    8  A    between atoms: C_11  and  C_12
REMARK    9  A    between atoms: C_12  and  C_13
REMARK   10  A    between atoms: C_13  and  C_14
REMARK   11  A    between atoms: C_14  and  C_15
REMARK   12  A    between atoms: C_15  and  C_16
REMARK   13  A    between atoms: C_16  and  C_17
REMARK   14  A    between atoms: C_17  and  C_18
REMARK   15  A    between atoms: C_18  and  C_19
REMARK   16  A    between atoms: C_19  and  C_20
REMARK   17  A    between atoms: C_20  and  C_21
REMARK   18  A    between atoms: C_21  and  C_22
REMARK   19  A    between atoms: C_22  and  N_23
REMARK   20  A    between atoms: C_26  and  C_27
REMARK   21  A    between atoms: C_27  and  C_28
REMARK   22  A    between atoms: C_28  and  C_29
REMARK   23  A    between atoms: C_29  and  C_30
REMARK   24  A    between atoms: C_30  and  C_31
REMARK   25  A    between atoms: C_31  and  C_32
REMARK                            x       y       z     vdW  Elec       q    Type
REMARK                         _______ _______ _______ _____ _____    ______ ____
ROOT
ATOM      1  C   UNL     1       2.283   7.989  19.309  0.00  0.00    +0.000 C 
ENDROOT
BRANCH   1   2
ATOM      2  C   UNL     1       2.542   6.688  18.541  0.00  0.00    +0.000 C 
BRANCH   2   3
ATOM      3  C   UNL     1       1.558   5.582  18.926  0.00  0.00    +0.000 C 
BRANCH   3   4
ATOM      4  C   UNL     1       1.555   5.306  20.435  0.00  0.00    +0.000 C 
BRANCH   4   5
ATOM      5  C   UNL     1       1.159   3.868  20.782  0.00  0.00    +0.000 C 
BRANCH   5   6
ATOM      6  C   UNL     1       2.224   3.146  21.602  0.00  0.00    +0.000 C 
BRANCH   6   7
ATOM      7  C   UNL     1       2.835   2.000  20.806  0.00  0.00    +0.000 C 
BRANCH   7   8
ATOM      8  N   UNL     1       3.435   2.554  19.587  0.00  0.00    +0.000 N 
ATOM      9  C   UNL     1       4.511   3.374  19.687  0.00  0.00    +0.000 A 
ATOM     10  C   UNL     1       5.027   3.983  18.562  0.00  0.00    +0.000 A 
ATOM     11  C   UNL     1       4.443   3.734  17.316  0.00  0.00    +0.000 A 
ATOM     12  C   UNL     1       3.360   2.859  17.240  0.00  0.00    +0.000 A 
ATOM     13  C   UNL     1       2.878   2.275  18.399  0.00  0.00    +0.000 A 
BRANCH  11  14
ATOM     14  C   UNL     1       4.950   4.426  16.075  0.00  0.00    +0.000 C 
BRANCH  14  15
ATOM     15  C   UNL     1       6.327   3.920  15.656  0.00  0.00    +0.000 C 
BRANCH  15  16
ATOM     16  C   UNL     1       7.437   4.798  16.226  0.00  0.00    +0.000 C 
BRANCH  16  17
ATOM     17  C   UNL     1       6.898   6.192  16.535  0.00  0.00    +0.000 C 
BRANCH  17  18
ATOM     18  C   UNL     1       7.500   6.758  17.817  0.00  0.00    +0.000 C 
ATOM     19  C   UNL     1       7.859   8.225  17.639  0.00  0.00    +0.000 C 
ENDBRANCH  17  18
ENDBRANCH  16  17
ENDBRANCH  15  16
ENDBRANCH  14  15
ENDBRANCH  11  14
ENDBRANCH   7   8
ENDBRANCH   6   7
ENDBRANCH   5   6
ENDBRANCH   4   5
ENDBRANCH   3   4
ENDBRANCH   2   3
ENDBRANCH   1   2
BRANCH   1  20
ATOM     20  C   UNL     1       1.968   9.175  18.389  0.00  0.00    +0.000 C 
BRANCH  20  21
ATOM     21  C   UNL     1       0.473   9.346  18.117  0.00  0.00    +0.000 C 
BRANCH  21  22
ATOM     22  C   UNL     1      -0.073  10.555  18.866  0.00  0.00    +0.000 C 
BRANCH  22  23
ATOM     23  C   UNL     1       0.717  11.812  18.564  0.00  0.00    +0.000 C 
BRANCH  23  24
ATOM     24  C   UNL     1       1.518  12.181  19.798  0.00  0.00    +0.000 C 
BRANCH  24  28
ATOM     25  C   UNL     1       3.892  15.581  19.061  0.00  0.00    +0.000 A 
ATOM     26  C   UNL     1       3.547  15.232  20.368  0.00  0.00    +0.000 A 
ATOM     27  C   UNL     1       2.730  14.138  20.585  0.00  0.00    +0.000 A 
ATOM     28  N   UNL     1       2.247  13.430  19.542  0.00  0.00    +0.000 N 
ATOM     29  C   UNL     1       2.475  13.818  18.269  0.00  0.00    +0.000 A 
ATOM     30  C   UNL     1       3.304  14.895  17.999  0.00  0.00    +0.000 A 
BRANCH  25  31
ATOM     31  C   UNL     1       4.981  16.596  18.814  0.00  0.00    +0.000 C 
BRANCH  31  32
ATOM     32  C   UNL     1       6.268  16.118  19.496  0.00  0.00    +0.000 C 
BRANCH  32  33
ATOM     33  C   UNL     1       7.516  16.725  18.873  0.00  0.00    +0.000 C 
BRANCH  33  34
ATOM     34  C   UNL     1       8.098  15.771  17.830  0.00  0.00    +0.000 C 
BRANCH  34  36
ATOM     35  C   UNL     1       7.387  13.395  17.425  0.00  0.00    +0.000 C 
ATOM     36  C   UNL     1       8.135  14.339  18.352  0.00  0.00    +0.000 C 
ENDBRANCH  34  36
ENDBRANCH  33  34
ENDBRANCH  32  33
ENDBRANCH  31  32
ENDBRANCH  25  31
ENDBRANCH  24  28
ENDBRANCH  23  24
ENDBRANCH  22  23
ENDBRANCH  21  22
ENDBRANCH  20  21
ENDBRANCH   1  20
TORSDOF 23
ENDMDL
MODEL 9
REMARK VINA RESULT:      -5.5      2.471      7.069
REMARK  Name = 
REMARK  25 active torsions:
REMARK  status: ('A' for Active; 'I' for Inactive)
REMARK    1  A    between atoms: C_1  and  C_2
REMARK    2  A    between atoms: C_2  and  C_3
REMARK    3  A    between atoms: C_3  and  C_4
REMARK    4  A    between atoms: C_4  and  C_5
REMARK    5  A    between atoms: C_5  and  C_6
REMARK    6  A    between atoms: C_6  and  C_7
REMARK    7  A    between atoms: N_10  and  C_11
REMARK    8  A    between atoms: C_11  and  C_12
REMARK    9  A    between atoms: C_12  and  C_13
REMARK   10  A    between atoms: C_13  and  C_14
REMARK   11  A    between atoms: C_14  and  C_15
REMARK   12  A    between atoms: C_15  and  C_16
REMARK   13  A    between atoms: C_16  and  C_17
REMARK   14  A    between atoms: C_17  and  C_18
REMARK   15  A    between atoms: C_18  and  C_19
REMARK   16  A    between atoms: C_19  and  C_20
REMARK   17  A    between atoms: C_20  and  C_21
REMARK   18  A    between atoms: C_21  and  C_22
REMARK   19  A    between atoms: C_22  and  N_23
REMARK   20  A    between atoms: C_26  and  C_27
REMARK   21  A    between atoms: C_27  and  C_28
REMARK   22  A    between atoms: C_28  and  C_29
REMARK   23  A    between atoms: C_29  and  C_30
REMARK   24  A    between atoms: C_30  and  C_31
REMARK   25  A    between atoms: C_31  and  C_32
REMARK                            x       y       z     vdW  Elec       q    Type
REMARK                         _______ _______ _______ _____ _____    ______ ____
ROOT
ATOM      1  C   UNL     1      10.501  11.436  17.962  0.00  0.00    +0.000 C 
ENDROOT
BRANCH   1   2
ATOM      2  C   UNL     1      10.633  12.960  17.869  0.00  0.00    +0.000 C 
BRANCH   2   3
ATOM      3  C   UNL     1       9.560  13.684  18.685  0.00  0.00    +0.000 C 
BRANCH   3   4
ATOM      4  C   UNL     1       9.104  14.987  18.016  0.00  0.00    +0.000 C 
BRANCH   4   5
ATOM      5  C   UNL     1       7.580  15.116  17.929  0.00  0.00    +0.000 C 
BRANCH   5   6
ATOM      6  C   UNL     1       6.999  15.987  19.037  0.00  0.00    +0.000 C 
BRANCH   6   7
ATOM      7  C   UNL     1       5.961  15.217  19.843  0.00  0.00    +0.000 C 
BRANCH   7   8
ATOM      8  N   UNL     1       4.635  15.752  19.516  0.00  0.00    +0.000 N 
ATOM      9  C   UNL     1       3.946  15.233  18.470  0.00  0.00    +0.000 A 
ATOM     10  C   UNL     1       2.743  15.789  18.086  0.00  0.00    +0.000 A 
ATOM     11  C   UNL     1       2.232  16.880  18.795  0.00  0.00    +0.000 A 
ATOM     12  C   UNL     1       2.945  17.370  19.888  0.00  0.00    +0.000 A 
ATOM     13  C   UNL     1       4.149  16.779  20.231  0.00  0.00    +0.000 A 
BRANCH  11  14
ATOM     14  C   UNL     1       0.946  17.543  18.367  0.00  0.00    +0.000 C 
BRANCH  14  15
ATOM     15  C   UNL     1      -0.212  16.553  18.283  0.00  0.00    +0.000 C 
BRANCH  15  16
ATOM     16  C   UNL     1      -1.036  16.555  19.567  0.00  0.00    +0.000 C 
BRANCH  16  17
ATOM     17  C   UNL     1      -0.729  15.307  20.389  0.00  0.00    +0.000 C 
BRANCH  17  18
ATOM     18  C   UNL     1      -0.784  15.590  21.887  0.00  0.00    +0.000 C 
ATOM     19  C   UNL     1       0.561  16.089  22.390  0.00  0.00    +0.000 C 
ENDBRANCH  17  18
ENDBRANCH  16  17
ENDBRANCH  15  16
ENDBRANCH  14  15
ENDBRANCH  11  14
ENDBRANCH   7   8
ENDBRANCH   6   7
ENDBRANCH   5   6
ENDBRANCH   4   5
ENDBRANCH   3   4
ENDBRANCH   2   3
ENDBRANCH   1   2
BRANCH   1  20
ATOM     20  C   UNL     1       9.390  10.988  18.920  0.00  0.00    +0.000 C 
BRANCH  20  21
ATOM     21  C   UNL     1       9.084   9.492  18.830  0.00  0.00    +0.000 C 
BRANCH  21  22
ATOM     22  C   UNL     1       7.858   9.249  17.959  0.00  0.00    +0.000 C 
BRANCH  22  23
ATOM     23  C   UNL     1       7.883   7.878  17.315  0.00  0.00    +0.000 C 
BRANCH  23  24
ATOM     24  C   UNL     1       7.809   6.834  18.412  0.00  0.00    +0.000 C 
BRANCH  24  28
ATOM     25  C   UNL     1       4.593   4.290  17.448  0.00  0.00    +0.000 A 
ATOM     26  C   UNL     1       4.969   4.477  18.780  0.00  0.00    +0.000 A 
ATOM     27  C   UNL     1       6.055   5.282  19.071  0.00  0.00    +0.000 A 
ATOM     28  N   UNL     1       6.764   5.858  18.077  0.00  0.00    +0.000 N 
ATOM     29  C   UNL     1       6.487   5.598  16.782  0.00  0.00    +0.000 A 
ATOM     30  C   UNL     1       5.395   4.816  16.438  0.00  0.00    +0.000 A 
BRANCH  25  31
ATOM     31  C   UNL     1       3.270   3.641  17.123  0.00  0.00    +0.000 C 
BRANCH  31  32
ATOM     32  C   UNL     1       2.212   4.152  18.109  0.00  0.00    +0.000 C 
BRANCH  32  33
ATOM     33  C   UNL     1       1.025   3.208  18.227  0.00  0.00    +0.000 C 
BRANCH  33  34
ATOM     34  C   UNL     1       1.180   2.321  19.463  0.00  0.00    +0.000 C 
BRANCH  34  36
ATOM     35  C   UNL     1       1.762   2.613  21.889  0.00  0.00    +0.000 C 
ATOM     36  C   UNL     1       2.161   2.931  20.458  0.00  0.00    +0.000 C 
ENDBRANCH  34  36
ENDBRANCH  33  34
ENDBRANCH  32  33
ENDBRANCH  31  32
ENDBRANCH  25  31
ENDBRANCH  24  28
ENDBRANCH  23  24
ENDBRANCH  22  23
ENDBRANCH  21  22
ENDBRANCH  20  21
ENDBRANCH   1  20
TORSDOF 23
ENDMDL
