MODEL 1
REMARK VINA RESULT:      -7.8      0.000      0.000
REMARK  Name = 
REMARK  6 active torsions:
REMARK  status: ('A' for Active; 'I' for Inactive)
REMARK    1  A    between atoms: C_1  and  C_2
REMARK    2  A    between atoms: C_3  and  C_4
REMARK    3  A    between atoms: N_6  and  C_7
REMARK    4  A    between atoms: N_6  and  C_8
REMARK    5  A    between atoms: C_8  and  C_9
REMARK    6  A    between atoms: C_22  and  C_23
REMARK                            x       y       z     vdW  Elec       q    Type
REMARK                         _______ _______ _______ _____ _____    ______ ____
ROOT
ATOM      1  C   UNL     1       1.471  11.699  20.296  0.00  0.00    +0.000 C 
ATOM      2  C   UNL     1       0.167  11.190  19.736  0.00  0.00    +0.000 A 
ATOM      3  C   UNL     1       0.140  10.054  18.899  0.00  0.00    +0.000 A 
ATOM      4  N   UNL     1      -0.954   9.697  18.185  0.00  0.00    +0.000 NA
ATOM      5  C   UNL     1      -2.056  10.430  18.274  0.00  0.00    +0.000 A 
ATOM      6  C   UNL     1      -3.123  10.025  17.479  0.00  0.00    +0.000 A 
ATOM      7  C   UNL     1      -4.334  10.711  17.460  0.00  0.00    +0.000 A 
ATOM      8  C   UNL     1      -4.477  11.845  18.237  0.00  0.00    +0.000 A 
ATOM      9  C   UNL     1      -3.411  12.269  19.034  0.00  0.00    +0.000 A 
ATOM     10  C   UNL     1      -2.181  11.555  19.112  0.00  0.00    +0.000 A 
ATOM     11  C   UNL     1      -1.059  11.906  19.953  0.00  0.00    +0.000 A 
ENDROOT
BRANCH  11  12
ATOM     12  C   UNL     1      -1.225  12.942  21.052  0.00  0.00    +0.000 A 
ATOM     13  C   UNL     1      -1.097  14.329  20.851  0.00  0.00    +0.000 A 
ATOM     14  C   UNL     1      -1.221  15.262  21.895  0.00  0.00    +0.000 A 
ATOM     15  C   UNL     1      -1.577  14.847  23.170  0.00  0.00    +0.000 A 
ATOM     16  C   UNL     1      -1.739  13.492  23.413  0.00  0.00    +0.000 A 
ATOM     17  C   UNL     1      -1.512  12.565  22.387  0.00  0.00    +0.000 A 
ATOM     18  F   UNL     1      -1.596  11.270  22.728  0.00  0.00    +0.000 F 
ENDBRANCH  11  12
BRANCH   3  19
ATOM     19  C   UNL     1       1.338   9.162  18.637  0.00  0.00    +0.000 C 
ATOM     20  O   UNL     1       1.897   9.245  17.545  0.00  0.00    +0.000 OA
ATOM     21  N   UNL     1       1.788   8.228  19.598  0.00  0.00    +0.000 N 
ATOM     22  C   UNL     1       1.256   8.020  20.941  0.00  0.00    +0.000 C 
BRANCH  21  23
ATOM     23  C   UNL     1       2.856   7.303  19.198  0.00  0.00    +0.000 C 
BRANCH  23  24
ATOM     24  C   UNL     1       2.372   5.870  19.167  0.00  0.00    +0.000 A 
ATOM     25  C   UNL     1       2.008   5.276  17.946  0.00  0.00    +0.000 A 
ATOM     26  C   UNL     1       1.466   3.996  17.907  0.00  0.00    +0.000 A 
ATOM     27  C   UNL     1       1.296   3.276  19.086  0.00  0.00    +0.000 A 
ATOM     28  C   UNL     1       1.696   3.832  20.302  0.00  0.00    +0.000 A 
ATOM     29  C   UNL     1       2.236   5.120  20.343  0.00  0.00    +0.000 A 
ENDBRANCH  23  24
ENDBRANCH  21  23
ENDBRANCH   3  19
TORSDOF 4
ENDMDL
MODEL 2
REMARK VINA RESULT:      -7.8      0.929      1.280
REMARK  Name = 
REMARK  6 active torsions:
REMARK  status: ('A' for Active; 'I' for Inactive)
REMARK    1  A    between atoms: C_1  and  C_2
REMARK    2  A    between atoms: C_3  and  C_4
REMARK    3  A    between atoms: N_6  and  C_7
REMARK    4  A    between atoms: N_6  and  C_8
REMARK    5  A    between atoms: C_8  and  C_9
REMARK    6  A    between atoms: C_22  and  C_23
REMARK                            x       y       z     vdW  Elec       q    Type
REMARK                         _______ _______ _______ _____ _____    ______ ____
ROOT
ATOM      1  C   UNL     1       1.127  11.582  20.481  0.00  0.00    +0.000 C 
ATOM      2  C   UNL     1      -0.093  11.092  19.744  0.00  0.00    +0.000 A 
ATOM      3  C   UNL     1       0.000  10.015  18.837  0.00  0.00    +0.000 A 
ATOM      4  N   UNL     1      -0.997   9.690  17.981  0.00  0.00    +0.000 NA
ATOM      5  C   UNL     1      -2.119  10.399  17.991  0.00  0.00    +0.000 A 
ATOM      6  C   UNL     1      -3.080  10.031  17.055  0.00  0.00    +0.000 A 
ATOM      7  C   UNL     1      -4.296  10.698  16.942  0.00  0.00    +0.000 A 
ATOM      8  C   UNL     1      -4.552  11.776  17.770  0.00  0.00    +0.000 A 
ATOM      9  C   UNL     1      -3.593  12.162  18.709  0.00  0.00    +0.000 A 
ATOM     10  C   UNL     1      -2.363  11.463  18.881  0.00  0.00    +0.000 A 
ATOM     11  C   UNL     1      -1.352  11.773  19.865  0.00  0.00    +0.000 A 
ENDROOT
BRANCH  11  12
ATOM     12  C   UNL     1      -1.665  12.730  21.004  0.00  0.00    +0.000 A 
ATOM     13  C   UNL     1      -2.165  12.324  22.255  0.00  0.00    +0.000 A 
ATOM     14  C   UNL     1      -2.479  13.236  23.278  0.00  0.00    +0.000 A 
ATOM     15  C   UNL     1      -2.212  14.589  23.122  0.00  0.00    +0.000 A 
ATOM     16  C   UNL     1      -1.696  15.034  21.914  0.00  0.00    +0.000 A 
ATOM     17  C   UNL     1      -1.483  14.127  20.868  0.00  0.00    +0.000 A 
ATOM     18  F   UNL     1      -1.073  14.652  19.702  0.00  0.00    +0.000 F 
ENDBRANCH  11  12
BRANCH   3  19
ATOM     19  C   UNL     1       1.240   9.161  18.657  0.00  0.00    +0.000 C 
ATOM     20  O   UNL     1       1.859   9.250  17.597  0.00  0.00    +0.000 OA
ATOM     21  N   UNL     1       1.665   8.253  19.654  0.00  0.00    +0.000 N 
ATOM     22  C   UNL     1       1.062   8.042  20.966  0.00  0.00    +0.000 C 
BRANCH  21  23
ATOM     23  C   UNL     1       2.783   7.360  19.328  0.00  0.00    +0.000 C 
BRANCH  23  24
ATOM     24  C   UNL     1       2.331   5.921  19.196  0.00  0.00    +0.000 A 
ATOM     25  C   UNL     1       2.212   5.335  17.925  0.00  0.00    +0.000 A 
ATOM     26  C   UNL     1       1.703   4.049  17.775  0.00  0.00    +0.000 A 
ATOM     27  C   UNL     1       1.322   3.318  18.896  0.00  0.00    +0.000 A 
ATOM     28  C   UNL     1       1.478   3.867  20.169  0.00  0.00    +0.000 A 
ATOM     29  C   UNL     1       1.985   5.160  20.321  0.00  0.00    +0.000 A 
ENDBRANCH  23  24
ENDBRANCH  21  23
ENDBRANCH   3  19
TORSDOF 4
ENDMDL
MODEL 3
REMARK VINA RESULT:      -7.8      3.094      8.904
REMARK  Name = 
REMARK  6 active torsions:
REMARK  status: ('A' for Active; 'I' for Inactive)
REMARK    1  A    between atoms: C_1  and  C_2
REMARK    2  A    between atoms: C_3  and  C_4
REMARK    3  A    between atoms: N_6  and  C_7
REMARK    4  A    between atoms: N_6  and  C_8
REMARK    5  A    between atoms: C_8  and  C_9
REMARK    6  A    between atoms: C_22  and  C_23
REMARK                            x       y       z     vdW  Elec       q    Type
REMARK                         _______ _______ _______ _____ _____    ______ ____
ROOT
ATOM      1  C   UNL     1       4.339   8.077  17.224  0.00  0.00    +0.000 C 
ATOM      2  C   UNL     1       3.501   7.084  17.988  0.00  0.00    +0.000 A 
ATOM      3  C   UNL     1       2.314   7.491  18.634  0.00  0.00    +0.000 A 
ATOM      4  N   UNL     1       1.656   6.707  19.520  0.00  0.00    +0.000 NA
ATOM      5  C   UNL     1       2.129   5.498  19.794  0.00  0.00    +0.000 A 
ATOM      6  C   UNL     1       1.423   4.768  20.745  0.00  0.00    +0.000 A 
ATOM      7  C   UNL     1       1.816   3.494  21.142  0.00  0.00    +0.000 A 
ATOM      8  C   UNL     1       2.958   2.940  20.593  0.00  0.00    +0.000 A 
ATOM      9  C   UNL     1       3.683   3.665  19.644  0.00  0.00    +0.000 A 
ATOM     10  C   UNL     1       3.272   4.948  19.181  0.00  0.00    +0.000 A 
ATOM     11  C   UNL     1       3.942   5.728  18.166  0.00  0.00    +0.000 A 
ENDROOT
BRANCH  11  12
ATOM     12  C   UNL     1       5.013   5.089  17.297  0.00  0.00    +0.000 A 
ATOM     13  C   UNL     1       4.753   4.459  16.066  0.00  0.00    +0.000 A 
ATOM     14  C   UNL     1       5.760   3.845  15.301  0.00  0.00    +0.000 A 
ATOM     15  C   UNL     1       7.089   3.923  15.693  0.00  0.00    +0.000 A 
ATOM     16  C   UNL     1       7.397   4.556  16.888  0.00  0.00    +0.000 A 
ATOM     17  C   UNL     1       6.373   5.074  17.690  0.00  0.00    +0.000 A 
ATOM     18  F   UNL     1       6.748   5.584  18.874  0.00  0.00    +0.000 F 
ENDBRANCH  11  12
BRANCH   3  19
ATOM     19  C   UNL     1       1.692   8.865  18.479  0.00  0.00    +0.000 C 
ATOM     20  O   UNL     1       1.825   9.446  17.403  0.00  0.00    +0.000 OA
ATOM     21  N   UNL     1       1.009   9.492  19.546  0.00  0.00    +0.000 N 
ATOM     22  C   UNL     1       0.744   8.937  20.870  0.00  0.00    +0.000 C 
BRANCH  21  23
ATOM     23  C   UNL     1       0.576  10.882  19.353  0.00  0.00    +0.000 C 
BRANCH  23  24
ATOM     24  C   UNL     1      -0.895  10.967  19.008  0.00  0.00    +0.000 A 
ATOM     25  C   UNL     1      -1.443  10.102  18.045  0.00  0.00    +0.000 A 
ATOM     26  C   UNL     1      -2.767  10.230  17.640  0.00  0.00    +0.000 A 
ATOM     27  C   UNL     1      -3.575  11.213  18.204  0.00  0.00    +0.000 A 
ATOM     28  C   UNL     1      -3.061  12.050  19.195  0.00  0.00    +0.000 A 
ATOM     29  C   UNL     1      -1.729  11.925  19.599  0.00  0.00    +0.000 A 
ENDBRANCH  23  24
ENDBRANCH  21  23
ENDBRANCH   3  19
TORSDOF 4
ENDMDL
MODEL 4
REMARK VINA RESULT:      -7.6      1.096      1.653
REMARK  Name = 
REMARK  6 active torsions:
REMARK  status: ('A' for Active; 'I' for Inactive)
REMARK    1  A    between atoms: C_1  and  C_2
REMARK    2  A    between atoms: C_3  and  C_4
REMARK    3  A    between atoms: N_6  and  C_7
REMARK    4  A    between atoms: N_6  and  C_8
REMARK    5  A    between atoms: C_8  and  C_9
REMARK    6  A    between atoms: C_22  and  C_23
REMARK                            x       y       z     vdW  Elec       q    Type
REMARK                         _______ _______ _______ _____ _____    ______ ____
ROOT
ATOM      1  C   UNL     1       2.099  11.856  18.750  0.00  0.00    +0.000 C 
ATOM      2  C   UNL     1       0.702  11.291  18.703  0.00  0.00    +0.000 A 
ATOM      3  C   UNL     1       0.488   9.923  18.429  0.00  0.00    +0.000 A 
ATOM      4  N   UNL     1      -0.734   9.416  18.143  0.00  0.00    +0.000 NA
ATOM      5  C   UNL     1      -1.785  10.224  18.125  0.00  0.00    +0.000 A 
ATOM      6  C   UNL     1      -2.999   9.638  17.781  0.00  0.00    +0.000 A 
ATOM      7  C   UNL     1      -4.180  10.370  17.706  0.00  0.00    +0.000 A 
ATOM      8  C   UNL     1      -4.146  11.730  17.957  0.00  0.00    +0.000 A 
ATOM      9  C   UNL     1      -2.933  12.334  18.295  0.00  0.00    +0.000 A 
ATOM     10  C   UNL     1      -1.721  11.598  18.431  0.00  0.00    +0.000 A 
ATOM     11  C   UNL     1      -0.445  12.147  18.828  0.00  0.00    +0.000 A 
ENDROOT
BRANCH  11  12
ATOM     12  C   UNL     1      -0.367  13.548  19.412  0.00  0.00    +0.000 A 
ATOM     13  C   UNL     1      -0.127  14.706  18.648  0.00  0.00    +0.000 A 
ATOM     14  C   UNL     1      -0.026  15.985  19.221  0.00  0.00    +0.000 A 
ATOM     15  C   UNL     1      -0.258  16.170  20.577  0.00  0.00    +0.000 A 
ATOM     16  C   UNL     1      -0.523  15.062  21.367  0.00  0.00    +0.000 A 
ATOM     17  C   UNL     1      -0.520  13.781  20.800  0.00  0.00    +0.000 A 
ATOM     18  F   UNL     1      -0.689  12.756  21.651  0.00  0.00    +0.000 F 
ENDBRANCH  11  12
BRANCH   3  19
ATOM     19  C   UNL     1       1.597   8.892  18.342  0.00  0.00    +0.000 C 
ATOM     20  O   UNL     1       2.168   8.742  17.263  0.00  0.00    +0.000 OA
ATOM     21  N   UNL     1       1.948   8.088  19.450  0.00  0.00    +0.000 N 
ATOM     22  C   UNL     1       1.390   8.152  20.797  0.00  0.00    +0.000 C 
BRANCH  21  23
ATOM     23  C   UNL     1       2.924   7.014  19.228  0.00  0.00    +0.000 C 
BRANCH  23  24
ATOM     24  C   UNL     1       2.257   5.657  19.165  0.00  0.00    +0.000 A 
ATOM     25  C   UNL     1       1.867   5.009  20.350  0.00  0.00    +0.000 A 
ATOM     26  C   UNL     1       1.346   3.720  20.321  0.00  0.00    +0.000 A 
ATOM     27  C   UNL     1       1.185   3.061  19.105  0.00  0.00    +0.000 A 
ATOM     28  C   UNL     1       1.523   3.708  17.916  0.00  0.00    +0.000 A 
ATOM     29  C   UNL     1       2.052   5.001  17.944  0.00  0.00    +0.000 A 
ENDBRANCH  23  24
ENDBRANCH  21  23
ENDBRANCH   3  19
TORSDOF 4
ENDMDL
MODEL 5
REMARK VINA RESULT:      -7.5      3.400      9.204
REMARK  Name = 
REMARK  6 active torsions:
REMARK  status: ('A' for Active; 'I' for Inactive)
REMARK    1  A    between atoms: C_1  and  C_2
REMARK    2  A    between atoms: C_3  and  C_4
REMARK    3  A    between atoms: N_6  and  C_7
REMARK    4  A    between atoms: N_6  and  C_8
REMARK    5  A    between atoms: C_8  and  C_9
REMARK    6  A    between atoms: C_22  and  C_23
REMARK                            x       y       z     vdW  Elec       q    Type
REMARK                         _______ _______ _______ _____ _____    ______ ____
ROOT
ATOM      1  C   UNL     1       4.623   7.419  18.268  0.00  0.00    +0.000 C 
ATOM      2  C   UNL     1       3.637   6.287  18.399  0.00  0.00    +0.000 A 
ATOM      3  C   UNL     1       2.470   6.437  19.179  0.00  0.00    +0.000 A 
ATOM      4  N   UNL     1       1.679   5.393  19.522  0.00  0.00    +0.000 NA
ATOM      5  C   UNL     1       1.996   4.173  19.107  0.00  0.00    +0.000 A 
ATOM      6  C   UNL     1       1.159   3.148  19.535  0.00  0.00    +0.000 A 
ATOM      7  C   UNL     1       1.382   1.818  19.190  0.00  0.00    +0.000 A 
ATOM      8  C   UNL     1       2.483   1.499  18.416  0.00  0.00    +0.000 A 
ATOM      9  C   UNL     1       3.337   2.518  17.986  0.00  0.00    +0.000 A 
ATOM     10  C   UNL     1       3.101   3.891  18.281  0.00  0.00    +0.000 A 
ATOM     11  C   UNL     1       3.910   4.999  17.825  0.00  0.00    +0.000 A 
ENDROOT
BRANCH  11  12
ATOM     12  C   UNL     1       4.949   4.786  16.736  0.00  0.00    +0.000 A 
ATOM     13  C   UNL     1       4.648   4.743  15.362  0.00  0.00    +0.000 A 
ATOM     14  C   UNL     1       5.625   4.509  14.378  0.00  0.00    +0.000 A 
ATOM     15  C   UNL     1       6.964   4.403  14.727  0.00  0.00    +0.000 A 
ATOM     16  C   UNL     1       7.313   4.464  16.068  0.00  0.00    +0.000 A 
ATOM     17  C   UNL     1       6.317   4.595  17.045  0.00  0.00    +0.000 A 
ATOM     18  F   UNL     1       6.729   4.548  18.322  0.00  0.00    +0.000 F 
ENDBRANCH  11  12
BRANCH   3  19
ATOM     19  C   UNL     1       2.017   7.751  19.785  0.00  0.00    +0.000 C 
ATOM     20  O   UNL     1       1.945   7.831  21.011  0.00  0.00    +0.000 OA
ATOM     21  N   UNL     1       1.648   8.850  18.977  0.00  0.00    +0.000 N 
ATOM     22  C   UNL     1       1.697   8.928  17.521  0.00  0.00    +0.000 C 
BRANCH  21  23
ATOM     23  C   UNL     1       1.077  10.025  19.648  0.00  0.00    +0.000 C 
BRANCH  23  24
ATOM     24  C   UNL     1      -0.140  10.550  18.918  0.00  0.00    +0.000 A 
ATOM     25  C   UNL     1      -0.233  11.915  18.597  0.00  0.00    +0.000 A 
ATOM     26  C   UNL     1      -1.385  12.436  18.018  0.00  0.00    +0.000 A 
ATOM     27  C   UNL     1      -2.459  11.598  17.730  0.00  0.00    +0.000 A 
ATOM     28  C   UNL     1      -2.365  10.232  17.998  0.00  0.00    +0.000 A 
ATOM     29  C   UNL     1      -1.210   9.709  18.585  0.00  0.00    +0.000 A 
ENDBRANCH  23  24
ENDBRANCH  21  23
ENDBRANCH   3  19
TORSDOF 4
ENDMDL
MODEL 6
REMARK VINA RESULT:      -7.4      2.349      4.073
REMARK  Name = 
REMARK  6 active torsions:
REMARK  status: ('A' for Active; 'I' for Inactive)
REMARK    1  A    between atoms: C_1  and  C_2
REMARK    2  A    between atoms: C_3  and  C_4
REMARK    3  A    between atoms: N_6  and  C_7
REMARK    4  A    between atoms: N_6  and  C_8
REMARK    5  A    between atoms: C_8  and  C_9
REMARK    6  A    between atoms: C_22  and  C_23
REMARK                            x       y       z     vdW  Elec       q    Type
REMARK                         _______ _______ _______ _____ _____    ______ ____
ROOT
ATOM      1  C   UNL     1      -1.530   9.058  19.788  0.00  0.00    +0.000 C 
ATOM      2  C   UNL     1      -0.625  10.207  19.427  0.00  0.00    +0.000 A 
ATOM      3  C   UNL     1       0.772  10.104  19.601  0.00  0.00    +0.000 A 
ATOM      4  N   UNL     1       1.601  11.172  19.519  0.00  0.00    +0.000 NA
ATOM      5  C   UNL     1       1.095  12.369  19.256  0.00  0.00    +0.000 A 
ATOM      6  C   UNL     1       2.003  13.422  19.230  0.00  0.00    +0.000 A 
ATOM      7  C   UNL     1       1.609  14.734  18.983  0.00  0.00    +0.000 A 
ATOM      8  C   UNL     1       0.268  15.007  18.779  0.00  0.00    +0.000 A 
ATOM      9  C   UNL     1      -0.656  13.960  18.810  0.00  0.00    +0.000 A 
ATOM     10  C   UNL     1      -0.272  12.603  19.008  0.00  0.00    +0.000 A 
ATOM     11  C   UNL     1      -1.166  11.467  18.999  0.00  0.00    +0.000 A 
ENDROOT
BRANCH  11  12
ATOM     12  C   UNL     1      -2.589  11.622  18.489  0.00  0.00    +0.000 A 
ATOM     13  C   UNL     1      -3.658  12.095  19.274  0.00  0.00    +0.000 A 
ATOM     14  C   UNL     1      -4.972  12.194  18.785  0.00  0.00    +0.000 A 
ATOM     15  C   UNL     1      -5.251  11.915  17.455  0.00  0.00    +0.000 A 
ATOM     16  C   UNL     1      -4.226  11.469  16.635  0.00  0.00    +0.000 A 
ATOM     17  C   UNL     1      -2.942  11.277  17.163  0.00  0.00    +0.000 A 
ATOM     18  F   UNL     1      -2.031  10.753  16.328  0.00  0.00    +0.000 F 
ENDBRANCH  11  12
BRANCH   3  19
ATOM     19  C   UNL     1       1.489   8.822  19.977  0.00  0.00    +0.000 C 
ATOM     20  O   UNL     1       1.513   8.496  21.163  0.00  0.00    +0.000 OA
ATOM     21  N   UNL     1       2.149   8.032  19.009  0.00  0.00    +0.000 N 
ATOM     22  C   UNL     1       2.197   8.262  17.568  0.00  0.00    +0.000 C 
BRANCH  21  23
ATOM     23  C   UNL     1       2.944   6.894  19.487  0.00  0.00    +0.000 C 
BRANCH  23  24
ATOM     24  C   UNL     1       2.184   5.591  19.370  0.00  0.00    +0.000 A 
ATOM     25  C   UNL     1       1.584   5.022  20.507  0.00  0.00    +0.000 A 
ATOM     26  C   UNL     1       0.968   3.777  20.442  0.00  0.00    +0.000 A 
ATOM     27  C   UNL     1       0.922   3.085  19.235  0.00  0.00    +0.000 A 
ATOM     28  C   UNL     1       1.471   3.657  18.086  0.00  0.00    +0.000 A 
ATOM     29  C   UNL     1       2.095   4.905  18.151  0.00  0.00    +0.000 A 
ENDBRANCH  23  24
ENDBRANCH  21  23
ENDBRANCH   3  19
TORSDOF 4
ENDMDL
MODEL 7
REMARK VINA RESULT:      -7.4      3.436      9.076
REMARK  Name = 
REMARK  6 active torsions:
REMARK  status: ('A' for Active; 'I' for Inactive)
REMARK    1  A    between atoms: C_1  and  C_2
REMARK    2  A    between atoms: C_3  and  C_4
REMARK    3  A    between atoms: N_6  and  C_7
REMARK    4  A    between atoms: N_6  and  C_8
REMARK    5  A    between atoms: C_8  and  C_9
REMARK    6  A    between atoms: C_22  and  C_23
REMARK                            x       y       z     vdW  Elec       q    Type
REMARK                         _______ _______ _______ _____ _____    ______ ____
ROOT
ATOM      1  C   UNL     1       3.945   8.052  17.418  0.00  0.00    +0.000 C 
ATOM      2  C   UNL     1       3.265   6.955  18.196  0.00  0.00    +0.000 A 
ATOM      3  C   UNL     1       2.061   7.205  18.889  0.00  0.00    +0.000 A 
ATOM      4  N   UNL     1       1.539   6.336  19.786  0.00  0.00    +0.000 NA
ATOM      5  C   UNL     1       2.168   5.193  20.027  0.00  0.00    +0.000 A 
ATOM      6  C   UNL     1       1.593   4.372  20.991  0.00  0.00    +0.000 A 
ATOM      7  C   UNL     1       2.156   3.153  21.357  0.00  0.00    +0.000 A 
ATOM      8  C   UNL     1       3.338   2.752  20.761  0.00  0.00    +0.000 A 
ATOM      9  C   UNL     1       3.931   3.570  19.797  0.00  0.00    +0.000 A 
ATOM     10  C   UNL     1       3.348   4.796  19.367  0.00  0.00    +0.000 A 
ATOM     11  C   UNL     1       3.878   5.664  18.340  0.00  0.00    +0.000 A 
ENDROOT
BRANCH  11  12
ATOM     12  C   UNL     1       4.988   5.172  17.426  0.00  0.00    +0.000 A 
ATOM     13  C   UNL     1       4.766   4.591  16.163  0.00  0.00    +0.000 A 
ATOM     14  C   UNL     1       5.812   4.113  15.354  0.00  0.00    +0.000 A 
ATOM     15  C   UNL     1       7.134   4.285  15.738  0.00  0.00    +0.000 A 
ATOM     16  C   UNL     1       7.404   4.875  16.964  0.00  0.00    +0.000 A 
ATOM     17  C   UNL     1       6.350   5.254  17.804  0.00  0.00    +0.000 A 
ATOM     18  F   UNL     1       6.696   5.728  19.012  0.00  0.00    +0.000 F 
ENDBRANCH  11  12
BRANCH   3  19
ATOM     19  C   UNL     1       1.268   8.492  18.776  0.00  0.00    +0.000 C 
ATOM     20  O   UNL     1       0.900   8.851  17.658  0.00  0.00    +0.000 OA
ATOM     21  N   UNL     1       0.984   9.288  19.908  0.00  0.00    +0.000 N 
ATOM     22  C   UNL     1       1.325   8.998  21.297  0.00  0.00    +0.000 C 
BRANCH  21  23
ATOM     23  C   UNL     1       0.346  10.591  19.681  0.00  0.00    +0.000 C 
BRANCH  23  24
ATOM     24  C   UNL     1       1.366  11.705  19.587  0.00  0.00    +0.000 A 
ATOM     25  C   UNL     1       1.628  12.515  20.706  0.00  0.00    +0.000 A 
ATOM     26  C   UNL     1       2.486  13.606  20.613  0.00  0.00    +0.000 A 
ATOM     27  C   UNL     1       3.113  13.897  19.405  0.00  0.00    +0.000 A 
ATOM     28  C   UNL     1       2.902  13.075  18.297  0.00  0.00    +0.000 A 
ATOM     29  C   UNL     1       2.036  11.982  18.388  0.00  0.00    +0.000 A 
ENDBRANCH  23  24
ENDBRANCH  21  23
ENDBRANCH   3  19
TORSDOF 4
ENDMDL
MODEL 8
REMARK VINA RESULT:      -7.3      2.125      3.920
REMARK  Name = 
REMARK  6 active torsions:
REMARK  status: ('A' for Active; 'I' for Inactive)
REMARK    1  A    between atoms: C_1  and  C_2
REMARK    2  A    between atoms: C_3  and  C_4
REMARK    3  A    between atoms: N_6  and  C_7
REMARK    4  A    between atoms: N_6  and  C_8
REMARK    5  A    between atoms: C_8  and  C_9
REMARK    6  A    between atoms: C_22  and  C_23
REMARK                            x       y       z     vdW  Elec       q    Type
REMARK                         _______ _______ _______ _____ _____    ______ ____
ROOT
ATOM      1  C   UNL     1      -1.511   9.037  19.680  0.00  0.00    +0.000 C 
ATOM      2  C   UNL     1      -0.602  10.196  19.357  0.00  0.00    +0.000 A 
ATOM      3  C   UNL     1       0.789  10.101  19.576  0.00  0.00    +0.000 A 
ATOM      4  N   UNL     1       1.613  11.174  19.529  0.00  0.00    +0.000 NA
ATOM      5  C   UNL     1       1.107  12.370  19.258  0.00  0.00    +0.000 A 
ATOM      6  C   UNL     1       2.008  13.430  19.269  0.00  0.00    +0.000 A 
ATOM      7  C   UNL     1       1.613  14.740  19.019  0.00  0.00    +0.000 A 
ATOM      8  C   UNL     1       0.278  15.006  18.773  0.00  0.00    +0.000 A 
ATOM      9  C   UNL     1      -0.640  13.953  18.767  0.00  0.00    +0.000 A 
ATOM     10  C   UNL     1      -0.253  12.597  18.967  0.00  0.00    +0.000 A 
ATOM     11  C   UNL     1      -1.138  11.455  18.921  0.00  0.00    +0.000 A 
ENDROOT
BRANCH  11  12
ATOM     12  C   UNL     1      -2.545  11.604  18.366  0.00  0.00    +0.000 A 
ATOM     13  C   UNL     1      -2.900  11.307  17.036  0.00  0.00    +0.000 A 
ATOM     14  C   UNL     1      -4.203  11.489  16.541  0.00  0.00    +0.000 A 
ATOM     15  C   UNL     1      -5.229  11.885  17.387  0.00  0.00    +0.000 A 
ATOM     16  C   UNL     1      -4.932  12.166  18.712  0.00  0.00    +0.000 A 
ATOM     17  C   UNL     1      -3.610  12.079  19.167  0.00  0.00    +0.000 A 
ATOM     18  F   UNL     1      -3.394  12.460  20.436  0.00  0.00    +0.000 F 
ENDBRANCH  11  12
BRANCH   3  19
ATOM     19  C   UNL     1       1.502   8.821  19.966  0.00  0.00    +0.000 C 
ATOM     20  O   UNL     1       1.516   8.502  21.155  0.00  0.00    +0.000 OA
ATOM     21  N   UNL     1       2.170   8.024  19.009  0.00  0.00    +0.000 N 
ATOM     22  C   UNL     1       2.231   8.246  17.567  0.00  0.00    +0.000 C 
BRANCH  21  23
ATOM     23  C   UNL     1       2.961   6.889  19.501  0.00  0.00    +0.000 C 
BRANCH  23  24
ATOM     24  C   UNL     1       2.204   5.585  19.378  0.00  0.00    +0.000 A 
ATOM     25  C   UNL     1       1.607   5.008  20.513  0.00  0.00    +0.000 A 
ATOM     26  C   UNL     1       0.995   3.762  20.442  0.00  0.00    +0.000 A 
ATOM     27  C   UNL     1       0.950   3.076  19.232  0.00  0.00    +0.000 A 
ATOM     28  C   UNL     1       1.495   3.655  18.086  0.00  0.00    +0.000 A 
ATOM     29  C   UNL     1       2.116   4.905  18.156  0.00  0.00    +0.000 A 
ENDBRANCH  23  24
ENDBRANCH  21  23
ENDBRANCH   3  19
TORSDOF 4
ENDMDL
MODEL 9
REMARK VINA RESULT:      -7.3      1.613      2.100
REMARK  Name = 
REMARK  6 active torsions:
REMARK  status: ('A' for Active; 'I' for Inactive)
REMARK    1  A    between atoms: C_1  and  C_2
REMARK    2  A    between atoms: C_3  and  C_4
REMARK    3  A    between atoms: N_6  and  C_7
REMARK    4  A    between atoms: N_6  and  C_8
REMARK    5  A    between atoms: C_8  and  C_9
REMARK    6  A    between atoms: C_22  and  C_23
REMARK                            x       y       z     vdW  Elec       q    Type
REMARK                         _______ _______ _______ _____ _____    ______ ____
ROOT
ATOM      1  C   UNL     1      -0.135  12.143  21.280  0.00  0.00    +0.000 C 
ATOM      2  C   UNL     1      -1.065  11.533  20.263  0.00  0.00    +0.000 A 
ATOM      3  C   UNL     1      -0.639  10.460  19.451  0.00  0.00    +0.000 A 
ATOM      4  N   UNL     1      -1.338  10.034  18.373  0.00  0.00    +0.000 NA
ATOM      5  C   UNL     1      -2.479  10.636  18.059  0.00  0.00    +0.000 A 
ATOM      6  C   UNL     1      -3.118  10.171  16.915  0.00  0.00    +0.000 A 
ATOM      7  C   UNL     1      -4.312  10.721  16.459  0.00  0.00    +0.000 A 
ATOM      8  C   UNL     1      -4.873  11.779  17.150  0.00  0.00    +0.000 A 
ATOM      9  C   UNL     1      -4.238  12.262  18.296  0.00  0.00    +0.000 A 
ATOM     10  C   UNL     1      -3.044  11.683  18.813  0.00  0.00    +0.000 A 
ATOM     11  C   UNL     1      -2.364  12.096  20.020  0.00  0.00    +0.000 A 
ENDROOT
BRANCH  11  12
ATOM     12  C   UNL     1      -3.053  13.032  21.000  0.00  0.00    +0.000 A 
ATOM     13  C   UNL     1      -4.000  12.613  21.953  0.00  0.00    +0.000 A 
ATOM     14  C   UNL     1      -4.647  13.508  22.823  0.00  0.00    +0.000 A 
ATOM     15  C   UNL     1      -4.299  14.851  22.838  0.00  0.00    +0.000 A 
ATOM     16  C   UNL     1      -3.352  15.307  21.934  0.00  0.00    +0.000 A 
ATOM     17  C   UNL     1      -2.790  14.423  21.004  0.00  0.00    +0.000 A 
ATOM     18  F   UNL     1      -1.955  14.963  20.102  0.00  0.00    +0.000 F 
ENDBRANCH  11  12
BRANCH   3  19
ATOM     19  C   UNL     1       0.673   9.723  19.638  0.00  0.00    +0.000 C 
ATOM     20  O   UNL     1       1.605   9.993  18.882  0.00  0.00    +0.000 OA
ATOM     21  N   UNL     1       0.825   8.722  20.625  0.00  0.00    +0.000 N 
ATOM     22  C   UNL     1      -0.165   8.298  21.610  0.00  0.00    +0.000 C 
BRANCH  21  23
ATOM     23  C   UNL     1       2.078   7.957  20.629  0.00  0.00    +0.000 C 
BRANCH  23  24
ATOM     24  C   UNL     1       1.922   6.621  19.934  0.00  0.00    +0.000 A 
ATOM     25  C   UNL     1       1.485   5.499  20.658  0.00  0.00    +0.000 A 
ATOM     26  C   UNL     1       1.431   4.242  20.065  0.00  0.00    +0.000 A 
ATOM     27  C   UNL     1       1.793   4.087  18.730  0.00  0.00    +0.000 A 
ATOM     28  C   UNL     1       2.184   5.199  17.983  0.00  0.00    +0.000 A 
ATOM     29  C   UNL     1       2.244   6.462  18.580  0.00  0.00    +0.000 A 
ENDBRANCH  23  24
ENDBRANCH  21  23
ENDBRANCH   3  19
TORSDOF 4
ENDMDL
