MODEL 1
REMARK VINA RESULT:      -7.5      0.000      0.000
REMARK  Name = 
REMARK  10 active torsions:
REMARK  status: ('A' for Active; 'I' for Inactive)
REMARK    1  A    between atoms: C_1  and  N_2
REMARK    2  A    between atoms: N_2  and  C_3
REMARK    3  A    between atoms: N_2  and  C_12
REMARK    4  A    between atoms: C_3  and  C_4
REMARK    5  A    between atoms: C_5  and  C_6
REMARK    6  A    between atoms: C_7  and  C_8
REMARK    7  A    between atoms: C_8  and  C_9
REMARK    8  A    between atoms: C_8  and  C_10
REMARK    9  A    between atoms: C_8  and  C_11
REMARK   10  A    between atoms: C_12  and  C_13
REMARK                            x       y       z     vdW  Elec       q    Type
REMARK                         _______ _______ _______ _____ _____    ______ ____
ROOT
ATOM      1  C   UNL     1       6.461   5.186  19.016  0.00  0.00    +0.000 C 
ATOM      2  N   UNL     1       5.746   6.160  18.149  0.00  0.00    +0.000 NA
ENDROOT
BRANCH   2   3
ATOM      3  C   UNL     1       6.618   6.669  17.044  0.00  0.00    +0.000 C 
BRANCH   3   4
ATOM      4  C   UNL     1       7.399   7.954  17.372  0.00  0.00    +0.000 C 
ATOM      5  C   UNL     1       8.229   8.098  18.361  0.00  0.00    +0.000 C 
BRANCH   5   6
ATOM      6  C   UNL     1       8.916   9.349  18.748  0.00  0.00    +0.000 C 
ATOM      7  C   UNL     1       9.438  10.487  19.115  0.00  0.00    +0.000 C 
BRANCH   7   8
ATOM      8  C   UNL     1      10.048  11.812  19.541  0.00  0.00    +0.000 C 
ATOM      9  C   UNL     1      11.581  11.679  19.467  0.00  0.00    +0.000 C 
ATOM     10  C   UNL     1       9.596  12.915  18.571  0.00  0.00    +0.000 C 
ATOM     11  C   UNL     1       9.642  12.128  20.986  0.00  0.00    +0.000 C 
ENDBRANCH   7   8
ENDBRANCH   5   6
ENDBRANCH   3   4
ENDBRANCH   2   3
BRANCH   2  12
ATOM     12  C   UNL     1       4.513   5.508  17.635  0.00  0.00    +0.000 C 
BRANCH  12  13
ATOM     13  C   UNL     1       3.469   5.374  18.717  0.00  0.00    +0.000 A 
ATOM     14  C   UNL     1       2.993   6.520  19.377  0.00  0.00    +0.000 A 
ATOM     15  C   UNL     1       1.916   6.429  20.269  0.00  0.00    +0.000 A 
ATOM     16 CL   UNL     1       1.347   7.873  21.082  0.00  0.00    +0.000 Cl
ATOM     17  C   UNL     1       1.281   5.194  20.488  0.00  0.00    +0.000 A 
ATOM     18  C   UNL     1       1.751   4.058  19.823  0.00  0.00    +0.000 A 
ATOM     19  C   UNL     1       1.205   2.770  19.879  0.00  0.00    +0.000 A 
ATOM     20  C   UNL     1       1.874   1.850  19.075  0.00  0.00    +0.000 A 
ATOM     21  S   UNL     1       3.165   2.616  18.343  0.00  0.00    +0.000 S 
ATOM     22  C   UNL     1       2.843   4.146  18.987  0.00  0.00    +0.000 A 
ENDBRANCH  12  13
ENDBRANCH   2  12
TORSDOF 6
ENDMDL
MODEL 2
REMARK VINA RESULT:      -7.5      0.520      1.014
REMARK  Name = 
REMARK  10 active torsions:
REMARK  status: ('A' for Active; 'I' for Inactive)
REMARK    1  A    between atoms: C_1  and  N_2
REMARK    2  A    between atoms: N_2  and  C_3
REMARK    3  A    between atoms: N_2  and  C_12
REMARK    4  A    between atoms: C_3  and  C_4
REMARK    5  A    between atoms: C_5  and  C_6
REMARK    6  A    between atoms: C_7  and  C_8
REMARK    7  A    between atoms: C_8  and  C_9
REMARK    8  A    between atoms: C_8  and  C_10
REMARK    9  A    between atoms: C_8  and  C_11
REMARK   10  A    between atoms: C_12  and  C_13
REMARK                            x       y       z     vdW  Elec       q    Type
REMARK                         _______ _______ _______ _____ _____    ______ ____
ROOT
ATOM      1  C   UNL     1       6.217   4.439  17.849  0.00  0.00    +0.000 C 
ATOM      2  N   UNL     1       5.571   5.765  17.662  0.00  0.00    +0.000 NA
ENDROOT
BRANCH   2   3
ATOM      3  C   UNL     1       6.320   6.617  16.685  0.00  0.00    +0.000 C 
BRANCH   3   4
ATOM      4  C   UNL     1       6.939   7.895  17.279  0.00  0.00    +0.000 C 
ATOM      5  C   UNL     1       8.112   7.976  17.832  0.00  0.00    +0.000 C 
BRANCH   5   6
ATOM      6  C   UNL     1       8.685   9.169  18.492  0.00  0.00    +0.000 C 
ATOM      7  C   UNL     1       9.167  10.270  18.999  0.00  0.00    +0.000 C 
BRANCH   7   8
ATOM      8  C   UNL     1       9.730  11.552  19.591  0.00  0.00    +0.000 C 
ATOM      9  C   UNL     1       9.412  11.563  21.098  0.00  0.00    +0.000 C 
ATOM     10  C   UNL     1      11.254  11.572  19.402  0.00  0.00    +0.000 C 
ATOM     11  C   UNL     1       9.061  12.764  18.929  0.00  0.00    +0.000 C 
ENDBRANCH   7   8
ENDBRANCH   5   6
ENDBRANCH   3   4
ENDBRANCH   2   3
BRANCH   2  12
ATOM     12  C   UNL     1       4.162   5.542  17.244  0.00  0.00    +0.000 C 
BRANCH  12  13
ATOM     13  C   UNL     1       3.245   5.433  18.439  0.00  0.00    +0.000 A 
ATOM     14  C   UNL     1       2.928   6.581  19.185  0.00  0.00    +0.000 A 
ATOM     15  C   UNL     1       1.958   6.525  20.196  0.00  0.00    +0.000 A 
ATOM     16 CL   UNL     1       1.587   7.970  21.114  0.00  0.00    +0.000 Cl
ATOM     17  C   UNL     1       1.271   5.325  20.451  0.00  0.00    +0.000 A 
ATOM     18  C   UNL     1       1.583   4.187  19.701  0.00  0.00    +0.000 A 
ATOM     19  C   UNL     1       0.962   2.935  19.782  0.00  0.00    +0.000 A 
ATOM     20  C   UNL     1       1.469   2.007  18.877  0.00  0.00    +0.000 A 
ATOM     21  S   UNL     1       2.714   2.716  18.020  0.00  0.00    +0.000 S 
ATOM     22  C   UNL     1       2.574   4.238  18.744  0.00  0.00    +0.000 A 
ENDBRANCH  12  13
ENDBRANCH   2  12
TORSDOF 6
ENDMDL
MODEL 3
REMARK VINA RESULT:      -7.4      1.138      1.696
REMARK  Name = 
REMARK  10 active torsions:
REMARK  status: ('A' for Active; 'I' for Inactive)
REMARK    1  A    between atoms: C_1  and  N_2
REMARK    2  A    between atoms: N_2  and  C_3
REMARK    3  A    between atoms: N_2  and  C_12
REMARK    4  A    between atoms: C_3  and  C_4
REMARK    5  A    between atoms: C_5  and  C_6
REMARK    6  A    between atoms: C_7  and  C_8
REMARK    7  A    between atoms: C_8  and  C_9
REMARK    8  A    between atoms: C_8  and  C_10
REMARK    9  A    between atoms: C_8  and  C_11
REMARK   10  A    between atoms: C_12  and  C_13
REMARK                            x       y       z     vdW  Elec       q    Type
REMARK                         _______ _______ _______ _____ _____    ______ ____
ROOT
ATOM      1  C   UNL     1       6.820   5.256  15.525  0.00  0.00    +0.000 C 
ATOM      2  N   UNL     1       6.075   5.157  16.808  0.00  0.00    +0.000 NA
ENDROOT
BRANCH   2   3
ATOM      3  C   UNL     1       6.867   5.701  17.956  0.00  0.00    +0.000 C 
BRANCH   3   4
ATOM      4  C   UNL     1       7.330   7.159  17.793  0.00  0.00    +0.000 C 
ATOM      5  C   UNL     1       8.284   7.726  18.469  0.00  0.00    +0.000 C 
BRANCH   5   6
ATOM      6  C   UNL     1       8.679   9.149  18.394  0.00  0.00    +0.000 C 
ATOM      7  C   UNL     1       8.938  10.425  18.323  0.00  0.00    +0.000 C 
BRANCH   7   8
ATOM      8  C   UNL     1       9.242  11.913  18.240  0.00  0.00    +0.000 C 
ATOM      9  C   UNL     1       8.134  12.581  17.403  0.00  0.00    +0.000 C 
ATOM     10  C   UNL     1       9.230  12.514  19.654  0.00  0.00    +0.000 C 
ATOM     11  C   UNL     1      10.592  12.127  17.545  0.00  0.00    +0.000 C 
ENDBRANCH   7   8
ENDBRANCH   5   6
ENDBRANCH   3   4
ENDBRANCH   2   3
BRANCH   2  12
ATOM     12  C   UNL     1       4.773   5.856  16.645  0.00  0.00    +0.000 C 
BRANCH  12  13
ATOM     13  C   UNL     1       3.880   5.642  17.844  0.00  0.00    +0.000 A 
ATOM     14  C   UNL     1       3.362   6.750  18.537  0.00  0.00    +0.000 A 
ATOM     15  C   UNL     1       2.409   6.571  19.550  0.00  0.00    +0.000 A 
ATOM     16 CL   UNL     1       1.785   7.968  20.402  0.00  0.00    +0.000 Cl
ATOM     17  C   UNL     1       1.940   5.282  19.860  0.00  0.00    +0.000 A 
ATOM     18  C   UNL     1       2.451   4.184  19.162  0.00  0.00    +0.000 A 
ATOM     19  C   UNL     1       2.057   2.847  19.301  0.00  0.00    +0.000 A 
ATOM     20  C   UNL     1       2.725   1.982  18.438  0.00  0.00    +0.000 A 
ATOM     21  S   UNL     1       3.833   2.858  17.549  0.00  0.00    +0.000 S 
ATOM     22  C   UNL     1       3.425   4.364  18.203  0.00  0.00    +0.000 A 
ENDBRANCH  12  13
ENDBRANCH   2  12
TORSDOF 6
ENDMDL
MODEL 4
REMARK VINA RESULT:      -7.2      1.453      1.639
REMARK  Name = 
REMARK  10 active torsions:
REMARK  status: ('A' for Active; 'I' for Inactive)
REMARK    1  A    between atoms: C_1  and  N_2
REMARK    2  A    between atoms: N_2  and  C_3
REMARK    3  A    between atoms: N_2  and  C_12
REMARK    4  A    between atoms: C_3  and  C_4
REMARK    5  A    between atoms: C_5  and  C_6
REMARK    6  A    between atoms: C_7  and  C_8
REMARK    7  A    between atoms: C_8  and  C_9
REMARK    8  A    between atoms: C_8  and  C_10
REMARK    9  A    between atoms: C_8  and  C_11
REMARK   10  A    between atoms: C_12  and  C_13
REMARK                            x       y       z     vdW  Elec       q    Type
REMARK                         _______ _______ _______ _____ _____    ______ ____
ROOT
ATOM      1  C   UNL     1       7.900   5.609  19.490  0.00  0.00    +0.000 C 
ATOM      2  N   UNL     1       6.796   5.966  18.559  0.00  0.00    +0.000 NA
ENDROOT
BRANCH   2   3
ATOM      3  C   UNL     1       7.312   6.495  17.258  0.00  0.00    +0.000 C 
BRANCH   3   4
ATOM      4  C   UNL     1       7.655   7.995  17.257  0.00  0.00    +0.000 C 
ATOM      5  C   UNL     1       8.486   8.577  18.067  0.00  0.00    +0.000 C 
BRANCH   5   6
ATOM      6  C   UNL     1       8.757  10.029  18.144  0.00  0.00    +0.000 C 
ATOM      7  C   UNL     1       9.058  11.291  18.278  0.00  0.00    +0.000 C 
BRANCH   7   8
ATOM      8  C   UNL     1       9.408  12.762  18.433  0.00  0.00    +0.000 C 
ATOM      9  C   UNL     1      10.461  13.119  17.367  0.00  0.00    +0.000 C 
ATOM     10  C   UNL     1       8.150  13.611  18.196  0.00  0.00    +0.000 C 
ATOM     11  C   UNL     1      10.003  13.008  19.826  0.00  0.00    +0.000 C 
ENDBRANCH   7   8
ENDBRANCH   5   6
ENDBRANCH   3   4
ENDBRANCH   2   3
BRANCH   2  12
ATOM     12  C   UNL     1       5.937   4.766  18.375  0.00  0.00    +0.000 C 
BRANCH  12  13
ATOM     13  C   UNL     1       4.472   5.126  18.419  0.00  0.00    +0.000 A 
ATOM     14  C   UNL     1       4.068   6.450  18.170  0.00  0.00    +0.000 A 
ATOM     15  C   UNL     1       2.707   6.765  18.052  0.00  0.00    +0.000 A 
ATOM     16 CL   UNL     1       2.232   8.424  17.747  0.00  0.00    +0.000 Cl
ATOM     17  C   UNL     1       1.735   5.754  18.151  0.00  0.00    +0.000 A 
ATOM     18  C   UNL     1       2.141   4.438  18.390  0.00  0.00    +0.000 A 
ATOM     19  C   UNL     1       1.317   3.308  18.459  0.00  0.00    +0.000 A 
ATOM     20  C   UNL     1       2.019   2.125  18.674  0.00  0.00    +0.000 A 
ATOM     21  S   UNL     1       3.642   2.484  18.831  0.00  0.00    +0.000 S 
ATOM     22  C   UNL     1       3.477   4.144  18.556  0.00  0.00    +0.000 A 
ENDBRANCH  12  13
ENDBRANCH   2  12
TORSDOF 6
ENDMDL
MODEL 5
REMARK VINA RESULT:      -7.1      2.241      3.317
REMARK  Name = 
REMARK  10 active torsions:
REMARK  status: ('A' for Active; 'I' for Inactive)
REMARK    1  A    between atoms: C_1  and  N_2
REMARK    2  A    between atoms: N_2  and  C_3
REMARK    3  A    between atoms: N_2  and  C_12
REMARK    4  A    between atoms: C_3  and  C_4
REMARK    5  A    between atoms: C_5  and  C_6
REMARK    6  A    between atoms: C_7  and  C_8
REMARK    7  A    between atoms: C_8  and  C_9
REMARK    8  A    between atoms: C_8  and  C_10
REMARK    9  A    between atoms: C_8  and  C_11
REMARK   10  A    between atoms: C_12  and  C_13
REMARK                            x       y       z     vdW  Elec       q    Type
REMARK                         _______ _______ _______ _____ _____    ______ ____
ROOT
ATOM      1  C   UNL     1       4.956   5.081  15.604  0.00  0.00    +0.000 C 
ATOM      2  N   UNL     1       5.094   5.484  17.029  0.00  0.00    +0.000 NA
ENDROOT
BRANCH   2   3
ATOM      3  C   UNL     1       6.528   5.584  17.444  0.00  0.00    +0.000 C 
BRANCH   3   4
ATOM      4  C   UNL     1       7.133   6.996  17.354  0.00  0.00    +0.000 C 
ATOM      5  C   UNL     1       7.954   7.519  18.215  0.00  0.00    +0.000 C 
BRANCH   5   6
ATOM      6  C   UNL     1       8.471   8.905  18.198  0.00  0.00    +0.000 C 
ATOM      7  C   UNL     1       8.860  10.149  18.242  0.00  0.00    +0.000 C 
BRANCH   7   8
ATOM      8  C   UNL     1       9.314  11.599  18.293  0.00  0.00    +0.000 C 
ATOM      9  C   UNL     1       9.366  12.032  19.770  0.00  0.00    +0.000 C 
ATOM     10  C   UNL     1      10.722  11.712  17.690  0.00  0.00    +0.000 C 
ATOM     11  C   UNL     1       8.305  12.483  17.547  0.00  0.00    +0.000 C 
ENDBRANCH   7   8
ENDBRANCH   5   6
ENDBRANCH   3   4
ENDBRANCH   2   3
BRANCH   2  12
ATOM     12  C   UNL     1       4.364   6.764  17.224  0.00  0.00    +0.000 C 
BRANCH  12  13
ATOM     13  C   UNL     1       3.334   6.649  18.322  0.00  0.00    +0.000 A 
ATOM     14  C   UNL     1       3.315   5.512  19.148  0.00  0.00    +0.000 A 
ATOM     15  C   UNL     1       2.471   5.462  20.266  0.00  0.00    +0.000 A 
ATOM     16 CL   UNL     1       2.463   4.031  21.276  0.00  0.00    +0.000 Cl
ATOM     17  C   UNL     1       1.657   6.563  20.588  0.00  0.00    +0.000 A 
ATOM     18  C   UNL     1       1.685   7.695  19.769  0.00  0.00    +0.000 A 
ATOM     19  C   UNL     1       0.988   8.892  19.973  0.00  0.00    +0.000 A 
ATOM     20  C   UNL     1       1.249   9.855  19.001  0.00  0.00    +0.000 A 
ATOM     21  S   UNL     1       2.291   9.208  17.869  0.00  0.00    +0.000 S 
ATOM     22  C   UNL     1       2.480   7.716  18.643  0.00  0.00    +0.000 A 
ENDBRANCH  12  13
ENDBRANCH   2  12
TORSDOF 6
ENDMDL
MODEL 6
REMARK VINA RESULT:      -7.0      1.539      1.934
REMARK  Name = 
REMARK  10 active torsions:
REMARK  status: ('A' for Active; 'I' for Inactive)
REMARK    1  A    between atoms: C_1  and  N_2
REMARK    2  A    between atoms: N_2  and  C_3
REMARK    3  A    between atoms: N_2  and  C_12
REMARK    4  A    between atoms: C_3  and  C_4
REMARK    5  A    between atoms: C_5  and  C_6
REMARK    6  A    between atoms: C_7  and  C_8
REMARK    7  A    between atoms: C_8  and  C_9
REMARK    8  A    between atoms: C_8  and  C_10
REMARK    9  A    between atoms: C_8  and  C_11
REMARK   10  A    between atoms: C_12  and  C_13
REMARK                            x       y       z     vdW  Elec       q    Type
REMARK                         _______ _______ _______ _____ _____    ______ ____
ROOT
ATOM      1  C   UNL     1       7.796   5.678  19.293  0.00  0.00    +0.000 C 
ATOM      2  N   UNL     1       6.823   6.342  18.386  0.00  0.00    +0.000 NA
ENDROOT
BRANCH   2   3
ATOM      3  C   UNL     1       7.504   7.207  17.372  0.00  0.00    +0.000 C 
BRANCH   3   4
ATOM      4  C   UNL     1       7.827   8.634  17.847  0.00  0.00    +0.000 C 
ATOM      5  C   UNL     1       8.879   8.981  18.525  0.00  0.00    +0.000 C 
BRANCH   5   6
ATOM      6  C   UNL     1       9.160  10.327  19.072  0.00  0.00    +0.000 C 
ATOM      7  C   UNL     1       9.386  11.480  19.637  0.00  0.00    +0.000 C 
BRANCH   7   8
ATOM      8  C   UNL     1       9.648  12.825  20.296  0.00  0.00    +0.000 C 
ATOM      9  C   UNL     1       8.814  13.890  19.558  0.00  0.00    +0.000 C 
ATOM     10  C   UNL     1       9.200  12.769  21.764  0.00  0.00    +0.000 C 
ATOM     11  C   UNL     1      11.136  13.181  20.170  0.00  0.00    +0.000 C 
ENDBRANCH   7   8
ENDBRANCH   5   6
ENDBRANCH   3   4
ENDBRANCH   2   3
BRANCH   2  12
ATOM     12  C   UNL     1       5.985   5.290  17.753  0.00  0.00    +0.000 C 
BRANCH  12  13
ATOM     13  C   UNL     1       4.514   5.561  17.955  0.00  0.00    +0.000 A 
ATOM     14  C   UNL     1       4.028   6.879  17.883  0.00  0.00    +0.000 A 
ATOM     15  C   UNL     1       2.649   7.129  17.911  0.00  0.00    +0.000 A 
ATOM     16 CL   UNL     1       2.072   8.780  17.825  0.00  0.00    +0.000 Cl
ATOM     17  C   UNL     1       1.738   6.060  17.982  0.00  0.00    +0.000 A 
ATOM     18  C   UNL     1       2.224   4.751  18.045  0.00  0.00    +0.000 A 
ATOM     19  C   UNL     1       1.463   3.576  18.061  0.00  0.00    +0.000 A 
ATOM     20  C   UNL     1       2.236   2.418  18.090  0.00  0.00    +0.000 A 
ATOM     21  S   UNL     1       3.848   2.849  18.150  0.00  0.00    +0.000 S 
ATOM     22  C   UNL     1       3.582   4.517  18.068  0.00  0.00    +0.000 A 
ENDBRANCH  12  13
ENDBRANCH   2  12
TORSDOF 6
ENDMDL
MODEL 7
REMARK VINA RESULT:      -6.9      1.909      2.638
REMARK  Name = 
REMARK  10 active torsions:
REMARK  status: ('A' for Active; 'I' for Inactive)
REMARK    1  A    between atoms: C_1  and  N_2
REMARK    2  A    between atoms: N_2  and  C_3
REMARK    3  A    between atoms: N_2  and  C_12
REMARK    4  A    between atoms: C_3  and  C_4
REMARK    5  A    between atoms: C_5  and  C_6
REMARK    6  A    between atoms: C_7  and  C_8
REMARK    7  A    between atoms: C_8  and  C_9
REMARK    8  A    between atoms: C_8  and  C_10
REMARK    9  A    between atoms: C_8  and  C_11
REMARK   10  A    between atoms: C_12  and  C_13
REMARK                            x       y       z     vdW  Elec       q    Type
REMARK                         _______ _______ _______ _____ _____    ______ ____
ROOT
ATOM      1  C   UNL     1       7.447   4.420  17.952  0.00  0.00    +0.000 C 
ATOM      2  N   UNL     1       6.304   5.309  17.613  0.00  0.00    +0.000 NA
ENDROOT
BRANCH   2   3
ATOM      3  C   UNL     1       6.622   6.213  16.463  0.00  0.00    +0.000 C 
BRANCH   3   4
ATOM      4  C   UNL     1       7.408   7.483  16.834  0.00  0.00    +0.000 C 
ATOM      5  C   UNL     1       7.827   7.787  18.025  0.00  0.00    +0.000 C 
BRANCH   5   6
ATOM      6  C   UNL     1       8.498   9.045  18.418  0.00  0.00    +0.000 C 
ATOM      7  C   UNL     1       9.112  10.167  18.676  0.00  0.00    +0.000 C 
BRANCH   7   8
ATOM      8  C   UNL     1       9.827  11.474  18.978  0.00  0.00    +0.000 C 
ATOM      9  C   UNL     1      11.163  11.477  18.210  0.00  0.00    +0.000 C 
ATOM     10  C   UNL     1       8.967  12.649  18.489  0.00  0.00    +0.000 C 
ATOM     11  C   UNL     1      10.116  11.570  20.482  0.00  0.00    +0.000 C 
ENDBRANCH   7   8
ENDBRANCH   5   6
ENDBRANCH   3   4
ENDBRANCH   2   3
BRANCH   2  12
ATOM     12  C   UNL     1       5.117   4.456  17.343  0.00  0.00    +0.000 C 
BRANCH  12  13
ATOM     13  C   UNL     1       4.043   4.661  18.385  0.00  0.00    +0.000 A 
ATOM     14  C   UNL     1       3.818   3.676  19.362  0.00  0.00    +0.000 A 
ATOM     15  C   UNL     1       2.938   3.919  20.425  0.00  0.00    +0.000 A 
ATOM     16 CL   UNL     1       2.670   2.671  21.625  0.00  0.00    +0.000 Cl
ATOM     17  C   UNL     1       2.296   5.165  20.541  0.00  0.00    +0.000 A 
ATOM     18  C   UNL     1       2.529   6.146  19.572  0.00  0.00    +0.000 A 
ATOM     19  C   UNL     1       2.023   7.451  19.565  0.00  0.00    +0.000 A 
ATOM     20  C   UNL     1       2.465   8.209  18.483  0.00  0.00    +0.000 A 
ATOM     21  S   UNL     1       3.432   7.252  17.516  0.00  0.00    +0.000 S 
ATOM     22  C   UNL     1       3.357   5.880  18.503  0.00  0.00    +0.000 A 
ENDBRANCH  12  13
ENDBRANCH   2  12
TORSDOF 6
ENDMDL
MODEL 8
REMARK VINA RESULT:      -6.9      1.968      2.845
REMARK  Name = 
REMARK  10 active torsions:
REMARK  status: ('A' for Active; 'I' for Inactive)
REMARK    1  A    between atoms: C_1  and  N_2
REMARK    2  A    between atoms: N_2  and  C_3
REMARK    3  A    between atoms: N_2  and  C_12
REMARK    4  A    between atoms: C_3  and  C_4
REMARK    5  A    between atoms: C_5  and  C_6
REMARK    6  A    between atoms: C_7  and  C_8
REMARK    7  A    between atoms: C_8  and  C_9
REMARK    8  A    between atoms: C_8  and  C_10
REMARK    9  A    between atoms: C_8  and  C_11
REMARK   10  A    between atoms: C_12  and  C_13
REMARK                            x       y       z     vdW  Elec       q    Type
REMARK                         _______ _______ _______ _____ _____    ______ ____
ROOT
ATOM      1  C   UNL     1       7.820   5.196  18.756  0.00  0.00    +0.000 C 
ATOM      2  N   UNL     1       6.680   6.054  18.336  0.00  0.00    +0.000 NA
ENDROOT
BRANCH   2   3
ATOM      3  C   UNL     1       7.121   7.168  17.439  0.00  0.00    +0.000 C 
BRANCH   3   4
ATOM      4  C   UNL     1       8.044   8.207  18.100  0.00  0.00    +0.000 C 
ATOM      5  C   UNL     1       8.139   9.456  17.756  0.00  0.00    +0.000 C 
BRANCH   5   6
ATOM      6  C   UNL     1       9.087  10.445  18.314  0.00  0.00    +0.000 C 
ATOM      7  C   UNL     1       9.942  11.256  18.872  0.00  0.00    +0.000 C 
BRANCH   7   8
ATOM      8  C   UNL     1      10.939  12.202  19.522  0.00  0.00    +0.000 C 
ATOM      9  C   UNL     1      10.983  13.497  18.688  0.00  0.00    +0.000 C 
ATOM     10  C   UNL     1      10.466  12.540  20.944  0.00  0.00    +0.000 C 
ATOM     11  C   UNL     1      12.333  11.562  19.525  0.00  0.00    +0.000 C 
ENDBRANCH   7   8
ENDBRANCH   5   6
ENDBRANCH   3   4
ENDBRANCH   2   3
BRANCH   2  12
ATOM     12  C   UNL     1       5.659   5.187  17.691  0.00  0.00    +0.000 C 
BRANCH  12  13
ATOM     13  C   UNL     1       4.375   5.165  18.485  0.00  0.00    +0.000 A 
ATOM     14  C   UNL     1       4.129   4.117  19.390  0.00  0.00    +0.000 A 
ATOM     15  C   UNL     1       3.020   4.165  20.246  0.00  0.00    +0.000 A 
ATOM     16 CL   UNL     1       2.734   2.843  21.359  0.00  0.00    +0.000 Cl
ATOM     17  C   UNL     1       2.160   5.278  20.228  0.00  0.00    +0.000 A 
ATOM     18  C   UNL     1       2.413   6.321  19.333  0.00  0.00    +0.000 A 
ATOM     19  C   UNL     1       1.698   7.520  19.223  0.00  0.00    +0.000 A 
ATOM     20  C   UNL     1       2.214   8.384  18.261  0.00  0.00    +0.000 A 
ATOM     21  S   UNL     1       3.511   7.645  17.515  0.00  0.00    +0.000 S 
ATOM     22  C   UNL     1       3.476   6.243  18.460  0.00  0.00    +0.000 A 
ENDBRANCH  12  13
ENDBRANCH   2  12
TORSDOF 6
ENDMDL
MODEL 9
REMARK VINA RESULT:      -6.9      1.934      2.970
REMARK  Name = 
REMARK  10 active torsions:
REMARK  status: ('A' for Active; 'I' for Inactive)
REMARK    1  A    between atoms: C_1  and  N_2
REMARK    2  A    between atoms: N_2  and  C_3
REMARK    3  A    between atoms: N_2  and  C_12
REMARK    4  A    between atoms: C_3  and  C_4
REMARK    5  A    between atoms: C_5  and  C_6
REMARK    6  A    between atoms: C_7  and  C_8
REMARK    7  A    between atoms: C_8  and  C_9
REMARK    8  A    between atoms: C_8  and  C_10
REMARK    9  A    between atoms: C_8  and  C_11
REMARK   10  A    between atoms: C_12  and  C_13
REMARK                            x       y       z     vdW  Elec       q    Type
REMARK                         _______ _______ _______ _____ _____    ______ ____
ROOT
ATOM      1  C   UNL     1       6.225   4.392  18.559  0.00  0.00    +0.000 C 
ATOM      2  N   UNL     1       5.886   5.782  18.153  0.00  0.00    +0.000 NA
ENDROOT
BRANCH   2   3
ATOM      3  C   UNL     1       6.916   6.362  17.235  0.00  0.00    +0.000 C 
BRANCH   3   4
ATOM      4  C   UNL     1       7.781   7.476  17.852  0.00  0.00    +0.000 C 
ATOM      5  C   UNL     1       7.656   8.746  17.609  0.00  0.00    +0.000 C 
BRANCH   5   6
ATOM      6  C   UNL     1       8.536   9.822  18.116  0.00  0.00    +0.000 C 
ATOM      7  C   UNL     1       9.358  10.705  18.609  0.00  0.00    +0.000 C 
BRANCH   7   8
ATOM      8  C   UNL     1      10.316  11.736  19.184  0.00  0.00    +0.000 C 
ATOM      9  C   UNL     1       9.824  13.134  18.762  0.00  0.00    +0.000 C 
ATOM     10  C   UNL     1      10.302  11.644  20.717  0.00  0.00    +0.000 C 
ATOM     11  C   UNL     1      11.723  11.509  18.616  0.00  0.00    +0.000 C 
ENDBRANCH   7   8
ENDBRANCH   5   6
ENDBRANCH   3   4
ENDBRANCH   2   3
BRANCH   2  12
ATOM     12  C   UNL     1       4.532   5.769  17.538  0.00  0.00    +0.000 C 
BRANCH  12  13
ATOM     13  C   UNL     1       3.450   5.861  18.587  0.00  0.00    +0.000 A 
ATOM     14  C   UNL     1       3.285   4.818  19.516  0.00  0.00    +0.000 A 
ATOM     15  C   UNL     1       2.394   4.959  20.588  0.00  0.00    +0.000 A 
ATOM     16 CL   UNL     1       2.203   3.642  21.727  0.00  0.00    +0.000 Cl
ATOM     17  C   UNL     1       1.680   6.158  20.762  0.00  0.00    +0.000 A 
ATOM     18  C   UNL     1       1.853   7.195  19.842  0.00  0.00    +0.000 A 
ATOM     19  C   UNL     1       1.270   8.467  19.896  0.00  0.00    +0.000 A 
ATOM     20  C   UNL     1       1.665   9.300  18.852  0.00  0.00    +0.000 A 
ATOM     21  S   UNL     1       2.685   8.449  17.841  0.00  0.00    +0.000 S 
ATOM     22  C   UNL     1       2.693   7.030  18.762  0.00  0.00    +0.000 A 
ENDBRANCH  12  13
ENDBRANCH   2  12
TORSDOF 6
ENDMDL
