MODEL 1
REMARK VINA RESULT:      -8.8      0.000      0.000
REMARK  Name = 
REMARK  7 active torsions:
REMARK  status: ('A' for Active; 'I' for Inactive)
REMARK    1  A    between atoms: C_1  and  C_2
REMARK    2  A    between atoms: C_4  and  O_5
REMARK    3  A    between atoms: C_8  and  N_9
REMARK    4  A    between atoms: C_10  and  C_12
REMARK    5  A    between atoms: C_14  and  N_15
REMARK    6  A    between atoms: N_15  and  C_16
REMARK    7  A    between atoms: C_21  and  C_22
REMARK                            x       y       z     vdW  Elec       q    Type
REMARK                         _______ _______ _______ _____ _____    ______ ____
ROOT
ATOM      1  C   UNL     1       3.148   4.801  19.923  0.00  0.00    +0.000 A 
ATOM      2  C   UNL     1       4.388   5.309  19.555  0.00  0.00    +0.000 A 
ATOM      3  C   UNL     1       5.395   4.415  19.258  0.00  0.00    +0.000 A 
ATOM      4  N   UNL     1       5.152   3.097  19.292  0.00  0.00    +0.000 NA
ATOM      5  C   UNL     1       3.908   2.700  19.636  0.00  0.00    +0.000 A 
ATOM      6  N   UNL     1       2.872   3.484  19.988  0.00  0.00    +0.000 NA
ENDROOT
BRANCH   1   8
ATOM      7  N   UNL     1       2.377   7.145  20.167  0.00  0.00    +0.000 N 
ATOM      8  C   UNL     1       2.063   5.786  20.248  0.00  0.00    +0.000 C 
ATOM      9  O   UNL     1       0.975   5.310  20.538  0.00  0.00    +0.000 OA
ATOM     10  H   UNL     1       3.336   7.364  19.932  0.00  0.00    +0.000 HD
BRANCH   7  17
ATOM     11  C   UNL     1       1.664   8.995  17.938  0.00  0.00    +0.000 C 
ATOM     12  C   UNL     1       1.151   9.139  19.346  0.00  0.00    +0.000 A 
ATOM     13  C   UNL     1       0.277  10.225  19.608  0.00  0.00    +0.000 A 
ATOM     14  C   UNL     1      -0.284  10.401  20.865  0.00  0.00    +0.000 A 
ATOM     15  C   UNL     1      -0.009   9.503  21.873  0.00  0.00    +0.000 A 
ATOM     16  C   UNL     1       0.854   8.433  21.634  0.00  0.00    +0.000 A 
ATOM     17  C   UNL     1       1.471   8.232  20.383  0.00  0.00    +0.000 A 
BRANCH  14  18
ATOM     18  O   UNL     1      -1.116  11.442  21.147  0.00  0.00    +0.000 OA
ATOM     19  H   UNL     1      -0.606  12.268  21.129  0.00  0.00    +0.000 HD
ENDBRANCH  14  18
ENDBRANCH   7  17
ENDBRANCH   1   8
BRANCH   3  20
ATOM     20  N   UNL     1       6.677   4.930  19.041  0.00  0.00    +0.000 N 
ATOM     21  H   UNL     1       6.905   5.698  19.663  0.00  0.00    +0.000 HD
BRANCH  20  22
ATOM     22  C   UNL     1       7.238   5.052  17.690  0.00  0.00    +0.000 C 
ATOM     23  C   UNL     1       6.414   4.258  16.664  0.00  0.00    +0.000 C 
ATOM     24  C   UNL     1       5.043   4.861  16.339  0.00  0.00    +0.000 C 
ATOM     25  C   UNL     1       5.081   6.354  16.032  0.00  0.00    +0.000 C 
ATOM     26  C   UNL     1       5.904   7.154  17.036  0.00  0.00    +0.000 C 
ATOM     27  C   UNL     1       7.295   6.544  17.262  0.00  0.00    +0.000 C 
ATOM     28  C   UNL     1       8.106   7.402  18.235  0.00  0.00    +0.000 C 
ENDBRANCH  20  22
ENDBRANCH   3  20
TORSDOF 5
ENDMDL
MODEL 2
REMARK VINA RESULT:      -8.3      2.665      4.611
REMARK  Name = 
REMARK  7 active torsions:
REMARK  status: ('A' for Active; 'I' for Inactive)
REMARK    1  A    between atoms: C_1  and  C_2
REMARK    2  A    between atoms: C_4  and  O_5
REMARK    3  A    between atoms: C_8  and  N_9
REMARK    4  A    between atoms: C_10  and  C_12
REMARK    5  A    between atoms: C_14  and  N_15
REMARK    6  A    between atoms: N_15  and  C_16
REMARK    7  A    between atoms: C_21  and  C_22
REMARK                            x       y       z     vdW  Elec       q    Type
REMARK                         _______ _______ _______ _____ _____    ______ ____
ROOT
ATOM      1  C   UNL     1       2.532   8.303  18.154  0.00  0.00    +0.000 A 
ATOM      2  C   UNL     1       2.298   7.275  19.060  0.00  0.00    +0.000 A 
ATOM      3  C   UNL     1       3.096   6.152  18.991  0.00  0.00    +0.000 A 
ATOM      4  N   UNL     1       4.088   6.091  18.092  0.00  0.00    +0.000 NA
ATOM      5  C   UNL     1       4.254   7.151  17.271  0.00  0.00    +0.000 A 
ATOM      6  N   UNL     1       3.506   8.268  17.224  0.00  0.00    +0.000 NA
ENDROOT
BRANCH   1   8
ATOM      7  N   UNL     1       0.504   9.429  19.029  0.00  0.00    +0.000 N 
ATOM      8  C   UNL     1       1.652   9.516  18.238  0.00  0.00    +0.000 C 
ATOM      9  O   UNL     1       2.032  10.498  17.618  0.00  0.00    +0.000 OA
ATOM     10  H   UNL     1       0.328   8.529  19.457  0.00  0.00    +0.000 HD
BRANCH   7  17
ATOM     11  C   UNL     1      -1.793   9.900  17.185  0.00  0.00    +0.000 C 
ATOM     12  C   UNL     1      -1.500  10.746  18.395  0.00  0.00    +0.000 A 
ATOM     13  C   UNL     1      -2.381  11.826  18.657  0.00  0.00    +0.000 A 
ATOM     14  C   UNL     1      -2.216  12.624  19.780  0.00  0.00    +0.000 A 
ATOM     15  C   UNL     1      -1.196  12.359  20.668  0.00  0.00    +0.000 A 
ATOM     16  C   UNL     1      -0.317  11.304  20.422  0.00  0.00    +0.000 A 
ATOM     17  C   UNL     1      -0.427  10.488  19.279  0.00  0.00    +0.000 A 
BRANCH  14  18
ATOM     18  O   UNL     1      -3.039  13.675  20.050  0.00  0.00    +0.000 OA
ATOM     19  H   UNL     1      -3.808  13.354  20.548  0.00  0.00    +0.000 HD
ENDBRANCH  14  18
ENDBRANCH   7  17
ENDBRANCH   1   8
BRANCH   3  20
ATOM     20  N   UNL     1       2.755   5.063  19.800  0.00  0.00    +0.000 N 
ATOM     21  H   UNL     1       3.565   4.580  20.175  0.00  0.00    +0.000 HD
BRANCH  20  22
ATOM     22  C   UNL     1       1.621   4.190  19.474  0.00  0.00    +0.000 C 
ATOM     23  C   UNL     1       1.448   4.032  17.956  0.00  0.00    +0.000 C 
ATOM     24  C   UNL     1       2.525   3.182  17.274  0.00  0.00    +0.000 C 
ATOM     25  C   UNL     1       2.801   1.855  17.973  0.00  0.00    +0.000 C 
ATOM     26  C   UNL     1       2.964   1.994  19.482  0.00  0.00    +0.000 C 
ATOM     27  C   UNL     1       1.815   2.790  20.119  0.00  0.00    +0.000 C 
ATOM     28  C   UNL     1       1.990   2.864  21.637  0.00  0.00    +0.000 C 
ENDBRANCH  20  22
ENDBRANCH   3  20
TORSDOF 5
ENDMDL
MODEL 3
REMARK VINA RESULT:      -8.2      2.580      4.668
REMARK  Name = 
REMARK  7 active torsions:
REMARK  status: ('A' for Active; 'I' for Inactive)
REMARK    1  A    between atoms: C_1  and  C_2
REMARK    2  A    between atoms: C_4  and  O_5
REMARK    3  A    between atoms: C_8  and  N_9
REMARK    4  A    between atoms: C_10  and  C_12
REMARK    5  A    between atoms: C_14  and  N_15
REMARK    6  A    between atoms: N_15  and  C_16
REMARK    7  A    between atoms: C_21  and  C_22
REMARK                            x       y       z     vdW  Elec       q    Type
REMARK                         _______ _______ _______ _____ _____    ______ ____
ROOT
ATOM      1  C   UNL     1       2.583   8.242  18.099  0.00  0.00    +0.000 A 
ATOM      2  C   UNL     1       2.375   7.221  19.019  0.00  0.00    +0.000 A 
ATOM      3  C   UNL     1       3.204   6.120  18.969  0.00  0.00    +0.000 A 
ATOM      4  N   UNL     1       4.201   6.074  18.075  0.00  0.00    +0.000 NA
ATOM      5  C   UNL     1       4.341   7.126  17.240  0.00  0.00    +0.000 A 
ATOM      6  N   UNL     1       3.562   8.222  17.174  0.00  0.00    +0.000 NA
ENDROOT
BRANCH   1   8
ATOM      7  N   UNL     1       0.466   9.286  18.857  0.00  0.00    +0.000 N 
ATOM      8  C   UNL     1       1.670   9.431  18.163  0.00  0.00    +0.000 C 
ATOM      9  O   UNL     1       2.072  10.447  17.614  0.00  0.00    +0.000 OA
ATOM     10  H   UNL     1       0.281   8.366  19.234  0.00  0.00    +0.000 HD
BRANCH   7  17
ATOM     11  C   UNL     1       0.470  10.869  21.385  0.00  0.00    +0.000 C 
ATOM     12  C   UNL     1      -0.541  11.048  20.284  0.00  0.00    +0.000 A 
ATOM     13  C   UNL     1      -1.543  12.032  20.479  0.00  0.00    +0.000 A 
ATOM     14  C   UNL     1      -2.482  12.299  19.493  0.00  0.00    +0.000 A 
ATOM     15  C   UNL     1      -2.437  11.616  18.297  0.00  0.00    +0.000 A 
ATOM     16  C   UNL     1      -1.461  10.639  18.092  0.00  0.00    +0.000 A 
ATOM     17  C   UNL     1      -0.508  10.313  19.076  0.00  0.00    +0.000 A 
BRANCH  14  18
ATOM     18  O   UNL     1      -3.462  13.230  19.659  0.00  0.00    +0.000 OA
ATOM     19  H   UNL     1      -3.126  14.096  19.375  0.00  0.00    +0.000 HD
ENDBRANCH  14  18
ENDBRANCH   7  17
ENDBRANCH   1   8
BRANCH   3  20
ATOM     20  N   UNL     1       2.890   5.034  19.792  0.00  0.00    +0.000 N 
ATOM     21  H   UNL     1       3.712   4.546  20.133  0.00  0.00    +0.000 HD
BRANCH  20  22
ATOM     22  C   UNL     1       1.738   4.167  19.514  0.00  0.00    +0.000 C 
ATOM     23  C   UNL     1       1.485   4.031  18.005  0.00  0.00    +0.000 C 
ATOM     24  C   UNL     1       2.523   3.187  17.256  0.00  0.00    +0.000 C 
ATOM     25  C   UNL     1       2.830   1.851  17.922  0.00  0.00    +0.000 C 
ATOM     26  C   UNL     1       3.073   1.968  19.422  0.00  0.00    +0.000 C 
ATOM     27  C   UNL     1       1.961   2.759  20.130  0.00  0.00    +0.000 C 
ATOM     28  C   UNL     1       2.215   2.811  21.637  0.00  0.00    +0.000 C 
ENDBRANCH  20  22
ENDBRANCH   3  20
TORSDOF 5
ENDMDL
MODEL 4
REMARK VINA RESULT:      -8.1      2.880      4.807
REMARK  Name = 
REMARK  7 active torsions:
REMARK  status: ('A' for Active; 'I' for Inactive)
REMARK    1  A    between atoms: C_1  and  C_2
REMARK    2  A    between atoms: C_4  and  O_5
REMARK    3  A    between atoms: C_8  and  N_9
REMARK    4  A    between atoms: C_10  and  C_12
REMARK    5  A    between atoms: C_14  and  N_15
REMARK    6  A    between atoms: N_15  and  C_16
REMARK    7  A    between atoms: C_21  and  C_22
REMARK                            x       y       z     vdW  Elec       q    Type
REMARK                         _______ _______ _______ _____ _____    ______ ____
ROOT
ATOM      1  C   UNL     1       1.959   8.676  18.747  0.00  0.00    +0.000 A 
ATOM      2  C   UNL     1       2.005   7.507  19.497  0.00  0.00    +0.000 A 
ATOM      3  C   UNL     1       2.806   6.477  19.049  0.00  0.00    +0.000 A 
ATOM      4  N   UNL     1       3.540   6.635  17.939  0.00  0.00    +0.000 NA
ATOM      5  C   UNL     1       3.449   7.817  17.292  0.00  0.00    +0.000 A 
ATOM      6  N   UNL     1       2.667   8.863  17.616  0.00  0.00    +0.000 NA
ENDROOT
BRANCH   1   8
ATOM      7  N   UNL     1       0.334   9.551  20.401  0.00  0.00    +0.000 N 
ATOM      8  C   UNL     1       1.079   9.785  19.244  0.00  0.00    +0.000 C 
ATOM      9  O   UNL     1       1.107  10.823  18.598  0.00  0.00    +0.000 OA
ATOM     10  H   UNL     1       0.413   8.624  20.799  0.00  0.00    +0.000 HD
BRANCH   7  17
ATOM     11  C   UNL     1       0.035   9.515  23.369  0.00  0.00    +0.000 C 
ATOM     12  C   UNL     1      -0.697  10.469  22.463  0.00  0.00    +0.000 A 
ATOM     13  C   UNL     1      -1.574  11.398  23.077  0.00  0.00    +0.000 A 
ATOM     14  C   UNL     1      -2.247  12.348  22.322  0.00  0.00    +0.000 A 
ATOM     15  C   UNL     1      -2.051  12.409  20.959  0.00  0.00    +0.000 A 
ATOM     16  C   UNL     1      -1.196  11.497  20.339  0.00  0.00    +0.000 A 
ATOM     17  C   UNL     1      -0.516  10.496  21.061  0.00  0.00    +0.000 A 
BRANCH  14  18
ATOM     18  O   UNL     1      -3.106  13.245  22.883  0.00  0.00    +0.000 OA
ATOM     19  H   UNL     1      -2.900  13.330  23.828  0.00  0.00    +0.000 HD
ENDBRANCH  14  18
ENDBRANCH   7  17
ENDBRANCH   1   8
BRANCH   3  20
ATOM     20  N   UNL     1       2.726   5.253  19.722  0.00  0.00    +0.000 N 
ATOM     21  H   UNL     1       3.634   4.826  19.875  0.00  0.00    +0.000 HD
BRANCH  20  22
ATOM     22  C   UNL     1       1.641   4.300  19.458  0.00  0.00    +0.000 C 
ATOM     23  C   UNL     1       1.461   4.053  17.952  0.00  0.00    +0.000 C 
ATOM     24  C   UNL     1       2.578   3.231  17.301  0.00  0.00    +0.000 C 
ATOM     25  C   UNL     1       2.937   1.961  18.064  0.00  0.00    +0.000 C 
ATOM     26  C   UNL     1       3.108   2.188  19.562  0.00  0.00    +0.000 C 
ATOM     27  C   UNL     1       1.922   2.950  20.172  0.00  0.00    +0.000 C 
ATOM     28  C   UNL     1       2.108   3.114  21.681  0.00  0.00    +0.000 C 
ENDBRANCH  20  22
ENDBRANCH   3  20
TORSDOF 5
ENDMDL
MODEL 5
REMARK VINA RESULT:      -8.1      2.102      2.990
REMARK  Name = 
REMARK  7 active torsions:
REMARK  status: ('A' for Active; 'I' for Inactive)
REMARK    1  A    between atoms: C_1  and  C_2
REMARK    2  A    between atoms: C_4  and  O_5
REMARK    3  A    between atoms: C_8  and  N_9
REMARK    4  A    between atoms: C_10  and  C_12
REMARK    5  A    between atoms: C_14  and  N_15
REMARK    6  A    between atoms: N_15  and  C_16
REMARK    7  A    between atoms: C_21  and  C_22
REMARK                            x       y       z     vdW  Elec       q    Type
REMARK                         _______ _______ _______ _____ _____    ______ ____
ROOT
ATOM      1  C   UNL     1       1.874   7.306  19.981  0.00  0.00    +0.000 A 
ATOM      2  C   UNL     1       2.742   7.087  18.918  0.00  0.00    +0.000 A 
ATOM      3  C   UNL     1       3.254   5.817  18.747  0.00  0.00    +0.000 A 
ATOM      4  N   UNL     1       2.881   4.829  19.572  0.00  0.00    +0.000 NA
ATOM      5  C   UNL     1       2.012   5.134  20.560  0.00  0.00    +0.000 A 
ATOM      6  N   UNL     1       1.492   6.343  20.842  0.00  0.00    +0.000 NA
ENDROOT
BRANCH   1   8
ATOM      7  N   UNL     1       1.216   9.494  19.018  0.00  0.00    +0.000 N 
ATOM      8  C   UNL     1       1.330   8.694  20.157  0.00  0.00    +0.000 C 
ATOM      9  O   UNL     1       1.006   9.003  21.295  0.00  0.00    +0.000 OA
ATOM     10  H   UNL     1       1.552   9.086  18.156  0.00  0.00    +0.000 HD
BRANCH   7  17
ATOM     11  C   UNL     1      -1.484   9.986  17.850  0.00  0.00    +0.000 C 
ATOM     12  C   UNL     1      -0.591  11.072  18.388  0.00  0.00    +0.000 A 
ATOM     13  C   UNL     1      -1.082  12.401  18.327  0.00  0.00    +0.000 A 
ATOM     14  C   UNL     1      -0.347  13.457  18.848  0.00  0.00    +0.000 A 
ATOM     15  C   UNL     1       0.868  13.217  19.452  0.00  0.00    +0.000 A 
ATOM     16  C   UNL     1       1.368  11.915  19.515  0.00  0.00    +0.000 A 
ATOM     17  C   UNL     1       0.672  10.818  18.971  0.00  0.00    +0.000 A 
BRANCH  14  18
ATOM     18  O   UNL     1      -0.788  14.744  18.793  0.00  0.00    +0.000 OA
ATOM     19  H   UNL     1      -0.140  15.279  18.306  0.00  0.00    +0.000 HD
ENDBRANCH  14  18
ENDBRANCH   7  17
ENDBRANCH   1   8
BRANCH   3  20
ATOM     20  N   UNL     1       4.243   5.642  17.774  0.00  0.00    +0.000 N 
ATOM     21  H   UNL     1       3.973   6.006  16.866  0.00  0.00    +0.000 HD
BRANCH  20  22
ATOM     22  C   UNL     1       5.065   4.426  17.724  0.00  0.00    +0.000 C 
ATOM     23  C   UNL     1       4.872   3.669  16.402  0.00  0.00    +0.000 C 
ATOM     24  C   UNL     1       5.493   4.349  15.178  0.00  0.00    +0.000 C 
ATOM     25  C   UNL     1       6.933   4.805  15.387  0.00  0.00    +0.000 C 
ATOM     26  C   UNL     1       7.142   5.550  16.701  0.00  0.00    +0.000 C 
ATOM     27  C   UNL     1       6.566   4.782  17.901  0.00  0.00    +0.000 C 
ATOM     28  C   UNL     1       6.840   5.537  19.203  0.00  0.00    +0.000 C 
ENDBRANCH  20  22
ENDBRANCH   3  20
TORSDOF 5
ENDMDL
MODEL 6
REMARK VINA RESULT:      -8.1      2.869      4.698
REMARK  Name = 
REMARK  7 active torsions:
REMARK  status: ('A' for Active; 'I' for Inactive)
REMARK    1  A    between atoms: C_1  and  C_2
REMARK    2  A    between atoms: C_4  and  O_5
REMARK    3  A    between atoms: C_8  and  N_9
REMARK    4  A    between atoms: C_10  and  C_12
REMARK    5  A    between atoms: C_14  and  N_15
REMARK    6  A    between atoms: N_15  and  C_16
REMARK    7  A    between atoms: C_21  and  C_22
REMARK                            x       y       z     vdW  Elec       q    Type
REMARK                         _______ _______ _______ _____ _____    ______ ____
ROOT
ATOM      1  C   UNL     1       1.745   8.624  19.022  0.00  0.00    +0.000 A 
ATOM      2  C   UNL     1       1.865   7.413  19.692  0.00  0.00    +0.000 A 
ATOM      3  C   UNL     1       2.743   6.475  19.189  0.00  0.00    +0.000 A 
ATOM      4  N   UNL     1       3.478   6.761  18.106  0.00  0.00    +0.000 NA
ATOM      5  C   UNL     1       3.311   7.976  17.540  0.00  0.00    +0.000 A 
ATOM      6  N   UNL     1       2.453   8.939  17.920  0.00  0.00    +0.000 NA
ENDROOT
BRANCH   1   8
ATOM      7  N   UNL     1       0.979  10.060  20.893  0.00  0.00    +0.000 N 
ATOM      8  C   UNL     1       0.781   9.632  19.578  0.00  0.00    +0.000 C 
ATOM      9  O   UNL     1      -0.093  10.017  18.814  0.00  0.00    +0.000 OA
ATOM     10  H   UNL     1       1.741   9.620  21.391  0.00  0.00    +0.000 HD
BRANCH   7  17
ATOM     11  C   UNL     1       1.394  12.962  20.343  0.00  0.00    +0.000 C 
ATOM     12  C   UNL     1       0.416  12.431  21.357  0.00  0.00    +0.000 A 
ATOM     13  C   UNL     1      -0.344  13.383  22.083  0.00  0.00    +0.000 A 
ATOM     14  C   UNL     1      -1.306  12.979  22.999  0.00  0.00    +0.000 A 
ATOM     15  C   UNL     1      -1.545  11.637  23.197  0.00  0.00    +0.000 A 
ATOM     16  C   UNL     1      -0.801  10.687  22.496  0.00  0.00    +0.000 A 
ATOM     17  C   UNL     1       0.206  11.050  21.580  0.00  0.00    +0.000 A 
BRANCH  14  18
ATOM     18  O   UNL     1      -2.041  13.871  23.718  0.00  0.00    +0.000 OA
ATOM     19  H   UNL     1      -1.808  14.771  23.438  0.00  0.00    +0.000 HD
ENDBRANCH  14  18
ENDBRANCH   7  17
ENDBRANCH   1   8
BRANCH   3  20
ATOM     20  N   UNL     1       2.742   5.205  19.776  0.00  0.00    +0.000 N 
ATOM     21  H   UNL     1       3.672   4.808  19.858  0.00  0.00    +0.000 HD
BRANCH  20  22
ATOM     22  C   UNL     1       1.684   4.229  19.492  0.00  0.00    +0.000 C 
ATOM     23  C   UNL     1       1.474   4.047  17.981  0.00  0.00    +0.000 C 
ATOM     24  C   UNL     1       2.602   3.295  17.265  0.00  0.00    +0.000 C 
ATOM     25  C   UNL     1       3.023   2.004  17.958  0.00  0.00    +0.000 C 
ATOM     26  C   UNL     1       3.224   2.167  19.461  0.00  0.00    +0.000 C 
ATOM     27  C   UNL     1       2.028   2.857  20.135  0.00  0.00    +0.000 C 
ATOM     28  C   UNL     1       2.247   2.956  21.645  0.00  0.00    +0.000 C 
ENDBRANCH  20  22
ENDBRANCH   3  20
TORSDOF 5
ENDMDL
MODEL 7
REMARK VINA RESULT:      -8.0      2.310      3.535
REMARK  Name = 
REMARK  7 active torsions:
REMARK  status: ('A' for Active; 'I' for Inactive)
REMARK    1  A    between atoms: C_1  and  C_2
REMARK    2  A    between atoms: C_4  and  O_5
REMARK    3  A    between atoms: C_8  and  N_9
REMARK    4  A    between atoms: C_10  and  C_12
REMARK    5  A    between atoms: C_14  and  N_15
REMARK    6  A    between atoms: N_15  and  C_16
REMARK    7  A    between atoms: C_21  and  C_22
REMARK                            x       y       z     vdW  Elec       q    Type
REMARK                         _______ _______ _______ _____ _____    ______ ____
ROOT
ATOM      1  C   UNL     1       2.246   7.804  18.769  0.00  0.00    +0.000 A 
ATOM      2  C   UNL     1       2.933   7.195  17.726  0.00  0.00    +0.000 A 
ATOM      3  C   UNL     1       3.445   5.931  17.934  0.00  0.00    +0.000 A 
ATOM      4  N   UNL     1       3.241   5.310  19.104  0.00  0.00    +0.000 NA
ATOM      5  C   UNL     1       2.537   5.973  20.048  0.00  0.00    +0.000 A 
ATOM      6  N   UNL     1       2.037   7.219  19.965  0.00  0.00    +0.000 NA
ENDROOT
BRANCH   1   8
ATOM      7  N   UNL     1       0.876   9.730  19.515  0.00  0.00    +0.000 N 
ATOM      8  C   UNL     1       1.699   9.181  18.530  0.00  0.00    +0.000 C 
ATOM      9  O   UNL     1       2.045   9.722  17.490  0.00  0.00    +0.000 OA
ATOM     10  H   UNL     1       0.674   9.133  20.306  0.00  0.00    +0.000 HD
BRANCH   7  17
ATOM     11  C   UNL     1      -1.699  10.251  18.102  0.00  0.00    +0.000 C 
ATOM     12  C   UNL     1      -0.896  11.314  18.802  0.00  0.00    +0.000 A 
ATOM     13  C   UNL     1      -1.412  12.635  18.778  0.00  0.00    +0.000 A 
ATOM     14  C   UNL     1      -0.763  13.665  19.444  0.00  0.00    +0.000 A 
ATOM     15  C   UNL     1       0.388  13.407  20.156  0.00  0.00    +0.000 A 
ATOM     16  C   UNL     1       0.913  12.114  20.184  0.00  0.00    +0.000 A 
ATOM     17  C   UNL     1       0.305  11.044  19.498  0.00  0.00    +0.000 A 
BRANCH  14  18
ATOM     18  O   UNL     1      -1.229  14.945  19.427  0.00  0.00    +0.000 OA
ATOM     19  H   UNL     1      -1.179  15.311  20.325  0.00  0.00    +0.000 HD
ENDBRANCH  14  18
ENDBRANCH   7  17
ENDBRANCH   1   8
BRANCH   3  20
ATOM     20  N   UNL     1       4.266   5.391  16.938  0.00  0.00    +0.000 N 
ATOM     21  H   UNL     1       4.391   4.389  17.029  0.00  0.00    +0.000 HD
BRANCH  20  22
ATOM     22  C   UNL     1       5.446   6.110  16.442  0.00  0.00    +0.000 C 
ATOM     23  C   UNL     1       6.288   6.676  17.596  0.00  0.00    +0.000 C 
ATOM     24  C   UNL     1       7.053   5.624  18.406  0.00  0.00    +0.000 C 
ATOM     25  C   UNL     1       7.826   4.626  17.552  0.00  0.00    +0.000 C 
ATOM     26  C   UNL     1       7.006   4.063  16.396  0.00  0.00    +0.000 C 
ATOM     27  C   UNL     1       6.326   5.169  15.574  0.00  0.00    +0.000 C 
ATOM     28  C   UNL     1       5.557   4.568  14.397  0.00  0.00    +0.000 C 
ENDBRANCH  20  22
ENDBRANCH   3  20
TORSDOF 5
ENDMDL
MODEL 8
REMARK VINA RESULT:      -7.9      2.226      3.141
REMARK  Name = 
REMARK  7 active torsions:
REMARK  status: ('A' for Active; 'I' for Inactive)
REMARK    1  A    between atoms: C_1  and  C_2
REMARK    2  A    between atoms: C_4  and  O_5
REMARK    3  A    between atoms: C_8  and  N_9
REMARK    4  A    between atoms: C_10  and  C_12
REMARK    5  A    between atoms: C_14  and  N_15
REMARK    6  A    between atoms: N_15  and  C_16
REMARK    7  A    between atoms: C_21  and  C_22
REMARK                            x       y       z     vdW  Elec       q    Type
REMARK                         _______ _______ _______ _____ _____    ______ ____
ROOT
ATOM      1  C   UNL     1       2.224   7.885  18.944  0.00  0.00    +0.000 A 
ATOM      2  C   UNL     1       3.086   7.500  17.924  0.00  0.00    +0.000 A 
ATOM      3  C   UNL     1       3.710   6.274  18.027  0.00  0.00    +0.000 A 
ATOM      4  N   UNL     1       3.448   5.475  19.071  0.00  0.00    +0.000 NA
ATOM      5  C   UNL     1       2.575   5.926  19.998  0.00  0.00    +0.000 A 
ATOM      6  N   UNL     1       1.951   7.118  20.018  0.00  0.00    +0.000 NA
ENDROOT
BRANCH   1   8
ATOM      7  N   UNL     1       0.520   9.514  19.709  0.00  0.00    +0.000 N 
ATOM      8  C   UNL     1       1.558   9.224  18.821  0.00  0.00    +0.000 C 
ATOM      9  O   UNL     1       2.001   9.967  17.957  0.00  0.00    +0.000 OA
ATOM     10  H   UNL     1       0.265   8.773  20.349  0.00  0.00    +0.000 HD
BRANCH   7  17
ATOM     11  C   UNL     1      -1.783  10.051  17.891  0.00  0.00    +0.000 C 
ATOM     12  C   UNL     1      -1.270  11.034  18.909  0.00  0.00    +0.000 A 
ATOM     13  C   UNL     1      -1.935  12.283  18.993  0.00  0.00    +0.000 A 
ATOM     14  C   UNL     1      -1.562  13.227  19.939  0.00  0.00    +0.000 A 
ATOM     15  C   UNL     1      -0.545  12.947  20.826  0.00  0.00    +0.000 A 
ATOM     16  C   UNL     1       0.125  11.725  20.752  0.00  0.00    +0.000 A 
ATOM     17  C   UNL     1      -0.199  10.750  19.788  0.00  0.00    +0.000 A 
BRANCH  14  18
ATOM     18  O   UNL     1      -2.175  14.440  20.034  0.00  0.00    +0.000 OA
ATOM     19  H   UNL     1      -3.128  14.303  20.157  0.00  0.00    +0.000 HD
ENDBRANCH  14  18
ENDBRANCH   7  17
ENDBRANCH   1   8
BRANCH   3  20
ATOM     20  N   UNL     1       4.690   5.962  17.080  0.00  0.00    +0.000 N 
ATOM     21  H   UNL     1       4.475   6.320  16.155  0.00  0.00    +0.000 HD
BRANCH  20  22
ATOM     22  C   UNL     1       5.381   4.667  17.086  0.00  0.00    +0.000 C 
ATOM     23  C   UNL     1       4.967   3.801  15.886  0.00  0.00    +0.000 C 
ATOM     24  C   UNL     1       5.508   4.280  14.535  0.00  0.00    +0.000 C 
ATOM     25  C   UNL     1       6.999   4.598  14.542  0.00  0.00    +0.000 C 
ATOM     26  C   UNL     1       7.426   5.448  15.733  0.00  0.00    +0.000 C 
ATOM     27  C   UNL     1       6.920   4.876  17.065  0.00  0.00    +0.000 C 
ATOM     28  C   UNL     1       7.412   5.728  18.237  0.00  0.00    +0.000 C 
ENDBRANCH  20  22
ENDBRANCH   3  20
TORSDOF 5
ENDMDL
MODEL 9
REMARK VINA RESULT:      -7.9      3.146      5.023
REMARK  Name = 
REMARK  7 active torsions:
REMARK  status: ('A' for Active; 'I' for Inactive)
REMARK    1  A    between atoms: C_1  and  C_2
REMARK    2  A    between atoms: C_4  and  O_5
REMARK    3  A    between atoms: C_8  and  N_9
REMARK    4  A    between atoms: C_10  and  C_12
REMARK    5  A    between atoms: C_14  and  N_15
REMARK    6  A    between atoms: N_15  and  C_16
REMARK    7  A    between atoms: C_21  and  C_22
REMARK                            x       y       z     vdW  Elec       q    Type
REMARK                         _______ _______ _______ _____ _____    ______ ____
ROOT
ATOM      1  C   UNL     1       1.572   8.737  20.096  0.00  0.00    +0.000 A 
ATOM      2  C   UNL     1       1.868   7.435  20.480  0.00  0.00    +0.000 A 
ATOM      3  C   UNL     1       2.311   6.556  19.513  0.00  0.00    +0.000 A 
ATOM      4  N   UNL     1       2.480   6.979  18.252  0.00  0.00    +0.000 NA
ATOM      5  C   UNL     1       2.191   8.270  17.982  0.00  0.00    +0.000 A 
ATOM      6  N   UNL     1       1.710   9.192  18.836  0.00  0.00    +0.000 NA
ENDROOT
BRANCH   1   8
ATOM      7  N   UNL     1       0.261  10.734  20.759  0.00  0.00    +0.000 N 
ATOM      8  C   UNL     1       1.086   9.680  21.159  0.00  0.00    +0.000 C 
ATOM      9  O   UNL     1       1.438   9.428  22.302  0.00  0.00    +0.000 OA
ATOM     10  H   UNL     1       0.086  10.808  19.766  0.00  0.00    +0.000 HD
BRANCH   7  17
ATOM     11  C   UNL     1       1.220  13.559  20.792  0.00  0.00    +0.000 C 
ATOM     12  C   UNL     1       0.121  13.035  21.677  0.00  0.00    +0.000 A 
ATOM     13  C   UNL     1      -0.482  13.955  22.572  0.00  0.00    +0.000 A 
ATOM     14  C   UNL     1      -1.538  13.570  23.386  0.00  0.00    +0.000 A 
ATOM     15  C   UNL     1      -2.026  12.283  23.317  0.00  0.00    +0.000 A 
ATOM     16  C   UNL     1      -1.439  11.363  22.446  0.00  0.00    +0.000 A 
ATOM     17  C   UNL     1      -0.346  11.701  21.624  0.00  0.00    +0.000 A 
BRANCH  14  18
ATOM     18  O   UNL     1      -2.127  14.429  24.263  0.00  0.00    +0.000 OA
ATOM     19  H   UNL     1      -2.843  14.902  23.809  0.00  0.00    +0.000 HD
ENDBRANCH  14  18
ENDBRANCH   7  17
ENDBRANCH   1   8
BRANCH   3  20
ATOM     20  N   UNL     1       2.457   5.213  19.874  0.00  0.00    +0.000 N 
ATOM     21  H   UNL     1       3.422   4.902  19.858  0.00  0.00    +0.000 HD
BRANCH  20  22
ATOM     22  C   UNL     1       1.482   4.196  19.461  0.00  0.00    +0.000 C 
ATOM     23  C   UNL     1       1.462   4.021  17.935  0.00  0.00    +0.000 C 
ATOM     24  C   UNL     1       2.698   3.324  17.355  0.00  0.00    +0.000 C 
ATOM     25  C   UNL     1       3.087   2.044  18.087  0.00  0.00    +0.000 C 
ATOM     26  C   UNL     1       3.101   2.200  19.603  0.00  0.00    +0.000 C 
ATOM     27  C   UNL     1       1.805   2.834  20.133  0.00  0.00    +0.000 C 
ATOM     28  C   UNL     1       1.837   2.926  21.659  0.00  0.00    +0.000 C 
ENDBRANCH  20  22
ENDBRANCH   3  20
TORSDOF 5
ENDMDL
