MODEL 1
REMARK VINA RESULT:      -7.5      0.000      0.000
REMARK  Name = 
REMARK  9 active torsions:
REMARK  status: ('A' for Active; 'I' for Inactive)
REMARK    1  A    between atoms: C_1  and  C_2
REMARK    2  A    between atoms: C_4  and  C_5
REMARK    3  A    between atoms: C_10  and  C_11
REMARK    4  A    between atoms: N_13  and  C_14
REMARK    5  A    between atoms: N_13  and  C_22
REMARK    6  A    between atoms: C_14  and  C_15
REMARK    7  A    between atoms: C_15  and  C_16
REMARK    8  A    between atoms: C_22  and  C_23
REMARK    9  A    between atoms: N_27  and  C_28
REMARK                            x       y       z     vdW  Elec       q    Type
REMARK                         _______ _______ _______ _____ _____    ______ ____
ROOT
ATOM      1  C   UNL     1       6.028   4.915  18.134  0.00  0.00    +0.000 C 
ATOM      2  O   UNL     1       5.729   4.579  19.278  0.00  0.00    +0.000 OA
ATOM      3  N   UNL     1       5.677   4.138  16.992  0.00  0.00    +0.000 N 
ENDROOT
BRANCH   1  10
ATOM      4  C   UNL     1       4.998   7.618  16.929  0.00  0.00    +0.000 C 
ATOM      5  C   UNL     1       6.407   7.293  17.304  0.00  0.00    +0.000 A 
ATOM      6  N   UNL     1       7.181   8.392  17.178  0.00  0.00    +0.000 NA
ATOM      7  C   UNL     1       8.178   8.582  18.051  0.00  0.00    +0.000 A 
ATOM      8  N   UNL     1       8.560   7.625  18.915  0.00  0.00    +0.000 NA
ATOM      9  C   UNL     1       7.876   6.438  18.852  0.00  0.00    +0.000 A 
ATOM     10  C   UNL     1       6.800   6.183  18.012  0.00  0.00    +0.000 A 
BRANCH   7  11
ATOM     11  C   UNL     1       8.619  10.025  18.112  0.00  0.00    +0.000 C 
ATOM     12  C   UNL     1       9.280  10.396  19.445  0.00  0.00    +0.000 C 
ATOM     13  C   UNL     1      10.024  10.559  18.161  0.00  0.00    +0.000 C 
ENDBRANCH   7  11
ENDBRANCH   1  10
BRANCH   3  14
ATOM     14  C   UNL     1       4.831   2.939  17.219  0.00  0.00    +0.000 C 
BRANCH  14  15
ATOM     15  C   UNL     1       3.289   3.011  17.132  0.00  0.00    +0.000 C 
BRANCH  15  16
ATOM     16  C   UNL     1       2.490   3.370  18.361  0.00  0.00    +0.000 A 
ATOM     17  C   UNL     1       2.386   4.729  18.719  0.00  0.00    +0.000 A 
ATOM     18  C   UNL     1       1.709   5.120  19.871  0.00  0.00    +0.000 A 
ATOM     19  C   UNL     1       1.117   4.157  20.692  0.00  0.00    +0.000 A 
ATOM     20  C   UNL     1       1.150   2.822  20.307  0.00  0.00    +0.000 A 
ATOM     21  C   UNL     1       1.829   2.427  19.152  0.00  0.00    +0.000 A 
ENDBRANCH  15  16
ENDBRANCH  14  15
ENDBRANCH   3  14
BRANCH   3  22
ATOM     22  C   UNL     1       6.693   3.908  15.930  0.00  0.00    +0.000 C 
BRANCH  22  23
ATOM     23  C   UNL     1       6.336   4.434  14.512  0.00  0.00    +0.000 C 
ATOM     24  C   UNL     1       7.586   5.029  13.878  0.00  0.00    +0.000 C 
ATOM     25  C   UNL     1       7.506   5.242  12.381  0.00  0.00    +0.000 C 
ATOM     26  C   UNL     1       7.046   3.973  11.694  0.00  0.00    +0.000 C 
ATOM     27  N   UNL     1       5.719   3.604  12.202  0.00  0.00    +0.000 NA
ATOM     28  C   UNL     1       5.221   2.458  11.436  0.00  0.00    +0.000 C 
ATOM     29  C   UNL     1       5.761   3.288  13.638  0.00  0.00    +0.000 C 
ENDBRANCH  22  23
ENDBRANCH   3  22
TORSDOF 7
ENDMDL
MODEL 2
REMARK VINA RESULT:      -7.4      2.574      4.862
REMARK  Name = 
REMARK  9 active torsions:
REMARK  status: ('A' for Active; 'I' for Inactive)
REMARK    1  A    between atoms: C_1  and  C_2
REMARK    2  A    between atoms: C_4  and  C_5
REMARK    3  A    between atoms: C_10  and  C_11
REMARK    4  A    between atoms: N_13  and  C_14
REMARK    5  A    between atoms: N_13  and  C_22
REMARK    6  A    between atoms: C_14  and  C_15
REMARK    7  A    between atoms: C_15  and  C_16
REMARK    8  A    between atoms: C_22  and  C_23
REMARK    9  A    between atoms: N_27  and  C_28
REMARK                            x       y       z     vdW  Elec       q    Type
REMARK                         _______ _______ _______ _____ _____    ______ ____
ROOT
ATOM      1  C   UNL     1       5.978   5.280  17.202  0.00  0.00    +0.000 C 
ATOM      2  O   UNL     1       6.634   4.406  16.639  0.00  0.00    +0.000 OA
ATOM      3  N   UNL     1       4.562   5.204  17.340  0.00  0.00    +0.000 N 
ENDROOT
BRANCH   1  10
ATOM      4  C   UNL     1       8.436   5.163  19.141  0.00  0.00    +0.000 C 
ATOM      5  C   UNL     1       7.696   6.391  18.720  0.00  0.00    +0.000 A 
ATOM      6  N   UNL     1       8.324   7.489  19.189  0.00  0.00    +0.000 NA
ATOM      7  C   UNL     1       8.333   8.598  18.439  0.00  0.00    +0.000 A 
ATOM      8  N   UNL     1       7.573   8.716  17.335  0.00  0.00    +0.000 NA
ATOM      9  C   UNL     1       6.781   7.641  17.021  0.00  0.00    +0.000 A 
ATOM     10  C   UNL     1       6.755   6.441  17.719  0.00  0.00    +0.000 A 
BRANCH   7  11
ATOM     11  C   UNL     1       9.444   9.544  18.826  0.00  0.00    +0.000 C 
ATOM     12  C   UNL     1       9.264  10.952  18.247  0.00  0.00    +0.000 C 
ATOM     13  C   UNL     1       9.361  10.747  19.723  0.00  0.00    +0.000 C 
ENDBRANCH   7  11
ENDBRANCH   1  10
BRANCH   3  14
ATOM     14  C   UNL     1       3.897   3.964  16.868  0.00  0.00    +0.000 C 
BRANCH  14  15
ATOM     15  C   UNL     1       3.780   2.716  17.774  0.00  0.00    +0.000 C 
BRANCH  15  16
ATOM     16  C   UNL     1       2.931   2.779  19.021  0.00  0.00    +0.000 A 
ATOM     17  C   UNL     1       1.544   2.984  18.876  0.00  0.00    +0.000 A 
ATOM     18  C   UNL     1       0.716   3.106  19.989  0.00  0.00    +0.000 A 
ATOM     19  C   UNL     1       1.258   3.022  21.274  0.00  0.00    +0.000 A 
ATOM     20  C   UNL     1       2.611   2.744  21.424  0.00  0.00    +0.000 A 
ATOM     21  C   UNL     1       3.445   2.622  20.310  0.00  0.00    +0.000 A 
ENDBRANCH  15  16
ENDBRANCH  14  15
ENDBRANCH   3  14
BRANCH   3  22
ATOM     22  C   UNL     1       3.739   6.414  17.067  0.00  0.00    +0.000 C 
BRANCH  22  23
ATOM     23  C   UNL     1       2.534   6.655  18.017  0.00  0.00    +0.000 C 
ATOM     24  C   UNL     1       2.926   6.234  19.426  0.00  0.00    +0.000 C 
ATOM     25  C   UNL     1       2.017   6.743  20.524  0.00  0.00    +0.000 C 
ATOM     26  C   UNL     1       1.821   8.239  20.392  0.00  0.00    +0.000 C 
ATOM     27  N   UNL     1       1.216   8.532  19.086  0.00  0.00    +0.000 NA
ATOM     28  C   UNL     1       0.902   9.962  19.020  0.00  0.00    +0.000 C 
ATOM     29  C   UNL     1       2.107   8.146  17.982  0.00  0.00    +0.000 C 
ENDBRANCH  22  23
ENDBRANCH   3  22
TORSDOF 7
ENDMDL
MODEL 3
REMARK VINA RESULT:      -7.2      4.695      7.913
REMARK  Name = 
REMARK  9 active torsions:
REMARK  status: ('A' for Active; 'I' for Inactive)
REMARK    1  A    between atoms: C_1  and  C_2
REMARK    2  A    between atoms: C_4  and  C_5
REMARK    3  A    between atoms: C_10  and  C_11
REMARK    4  A    between atoms: N_13  and  C_14
REMARK    5  A    between atoms: N_13  and  C_22
REMARK    6  A    between atoms: C_14  and  C_15
REMARK    7  A    between atoms: C_15  and  C_16
REMARK    8  A    between atoms: C_22  and  C_23
REMARK    9  A    between atoms: N_27  and  C_28
REMARK                            x       y       z     vdW  Elec       q    Type
REMARK                         _______ _______ _______ _____ _____    ______ ____
ROOT
ATOM      1  C   UNL     1       1.757   9.072  18.602  0.00  0.00    +0.000 C 
ATOM      2  O   UNL     1       1.767   9.630  17.507  0.00  0.00    +0.000 OA
ATOM      3  N   UNL     1       2.390   7.816  18.828  0.00  0.00    +0.000 N 
ENDROOT
BRANCH   1  10
ATOM      4  C   UNL     1      -1.219  10.049  18.501  0.00  0.00    +0.000 C 
ATOM      5  C   UNL     1      -0.211  10.382  19.553  0.00  0.00    +0.000 A 
ATOM      6  N   UNL     1      -0.801  11.068  20.553  0.00  0.00    +0.000 NA
ATOM      7  C   UNL     1      -0.386  10.862  21.809  0.00  0.00    +0.000 A 
ATOM      8  N   UNL     1       0.724  10.154  22.085  0.00  0.00    +0.000 NA
ATOM      9  C   UNL     1       1.414   9.657  21.009  0.00  0.00    +0.000 A 
ATOM     10  C   UNL     1       1.020   9.785  19.684  0.00  0.00    +0.000 A 
BRANCH   7  11
ATOM     11  C   UNL     1      -1.416  11.284  22.831  0.00  0.00    +0.000 C 
ATOM     12  C   UNL     1      -1.332  12.771  23.191  0.00  0.00    +0.000 C 
ATOM     13  C   UNL     1      -2.592  12.198  22.632  0.00  0.00    +0.000 C 
ENDBRANCH   7  11
ENDBRANCH   1  10
BRANCH   3  14
ATOM     14  C   UNL     1       3.170   7.237  17.705  0.00  0.00    +0.000 C 
BRANCH  14  15
ATOM     15  C   UNL     1       4.716   7.281  17.689  0.00  0.00    +0.000 C 
BRANCH  15  16
ATOM     16  C   UNL     1       5.481   6.242  16.906  0.00  0.00    +0.000 A 
ATOM     17  C   UNL     1       6.471   5.495  17.576  0.00  0.00    +0.000 A 
ATOM     18  C   UNL     1       7.249   4.560  16.896  0.00  0.00    +0.000 A 
ATOM     19  C   UNL     1       7.050   4.349  15.529  0.00  0.00    +0.000 A 
ATOM     20  C   UNL     1       6.025   5.026  14.879  0.00  0.00    +0.000 A 
ATOM     21  C   UNL     1       5.244   5.965  15.557  0.00  0.00    +0.000 A 
ENDBRANCH  15  16
ENDBRANCH  14  15
ENDBRANCH   3  14
BRANCH   3  22
ATOM     22  C   UNL     1       1.672   6.770  19.604  0.00  0.00    +0.000 C 
BRANCH  22  23
ATOM     23  C   UNL     1       2.441   5.441  19.843  0.00  0.00    +0.000 C 
ATOM     24  C   UNL     1       1.954   4.817  21.144  0.00  0.00    +0.000 C 
ATOM     25  C   UNL     1       2.321   3.361  21.333  0.00  0.00    +0.000 C 
ATOM     26  C   UNL     1       1.925   2.557  20.112  0.00  0.00    +0.000 C 
ATOM     27  N   UNL     1       2.631   3.085  18.938  0.00  0.00    +0.000 NA
ATOM     28  C   UNL     1       2.352   2.220  17.789  0.00  0.00    +0.000 C 
ATOM     29  C   UNL     1       2.232   4.472  18.650  0.00  0.00    +0.000 C 
ENDBRANCH  22  23
ENDBRANCH   3  22
TORSDOF 7
ENDMDL
MODEL 4
REMARK VINA RESULT:      -7.2      7.471     10.064
REMARK  Name = 
REMARK  9 active torsions:
REMARK  status: ('A' for Active; 'I' for Inactive)
REMARK    1  A    between atoms: C_1  and  C_2
REMARK    2  A    between atoms: C_4  and  C_5
REMARK    3  A    between atoms: C_10  and  C_11
REMARK    4  A    between atoms: N_13  and  C_14
REMARK    5  A    between atoms: N_13  and  C_22
REMARK    6  A    between atoms: C_14  and  C_15
REMARK    7  A    between atoms: C_15  and  C_16
REMARK    8  A    between atoms: C_22  and  C_23
REMARK    9  A    between atoms: N_27  and  C_28
REMARK                            x       y       z     vdW  Elec       q    Type
REMARK                         _______ _______ _______ _____ _____    ______ ____
ROOT
ATOM      1  C   UNL     1       0.709  10.180  20.736  0.00  0.00    +0.000 C 
ATOM      2  O   UNL     1       1.242  10.326  21.834  0.00  0.00    +0.000 OA
ATOM      3  N   UNL     1      -0.367  11.002  20.292  0.00  0.00    +0.000 N 
ENDROOT
BRANCH   1  10
ATOM      4  C   UNL     1       2.044  10.453  17.915  0.00  0.00    +0.000 C 
ATOM      5  C   UNL     1       1.643   9.181  18.586  0.00  0.00    +0.000 A 
ATOM      6  N   UNL     1       2.063   8.125  17.860  0.00  0.00    +0.000 NA
ATOM      7  C   UNL     1       2.471   7.021  18.499  0.00  0.00    +0.000 A 
ATOM      8  N   UNL     1       2.286   6.856  19.821  0.00  0.00    +0.000 NA
ATOM      9  C   UNL     1       1.651   7.877  20.481  0.00  0.00    +0.000 A 
ATOM     10  C   UNL     1       1.247   9.071  19.898  0.00  0.00    +0.000 A 
BRANCH   7  11
ATOM     11  C   UNL     1       3.351   6.150  17.636  0.00  0.00    +0.000 C 
ATOM     12  C   UNL     1       4.843   6.291  17.962  0.00  0.00    +0.000 C 
ATOM     13  C   UNL     1       4.170   4.961  18.058  0.00  0.00    +0.000 C 
ENDBRANCH   7  11
ENDBRANCH   1  10
BRANCH   3  14
ATOM     14  C   UNL     1      -0.766  12.132  21.168  0.00  0.00    +0.000 C 
BRANCH  14  15
ATOM     15  C   UNL     1      -1.437  11.892  22.540  0.00  0.00    +0.000 C 
BRANCH  15  16
ATOM     16  C   UNL     1      -2.859  12.345  22.763  0.00  0.00    +0.000 A 
ATOM     17  C   UNL     1      -3.601  12.789  21.650  0.00  0.00    +0.000 A 
ATOM     18  C   UNL     1      -4.900  13.270  21.798  0.00  0.00    +0.000 A 
ATOM     19  C   UNL     1      -5.487  13.314  23.065  0.00  0.00    +0.000 A 
ATOM     20  C   UNL     1      -4.790  12.808  24.155  0.00  0.00    +0.000 A 
ATOM     21  C   UNL     1      -3.487  12.325  24.010  0.00  0.00    +0.000 A 
ENDBRANCH  15  16
ENDBRANCH  14  15
ENDBRANCH   3  14
BRANCH   3  22
ATOM     22  C   UNL     1      -1.541  10.368  19.632  0.00  0.00    +0.000 C 
BRANCH  22  23
ATOM     23  C   UNL     1      -1.981  10.982  18.275  0.00  0.00    +0.000 C 
ATOM     24  C   UNL     1      -1.782   9.945  17.178  0.00  0.00    +0.000 C 
ATOM     25  C   UNL     1      -2.500  10.241  15.878  0.00  0.00    +0.000 C 
ATOM     26  C   UNL     1      -3.960  10.545  16.141  0.00  0.00    +0.000 C 
ATOM     27  N   UNL     1      -4.057  11.713  17.026  0.00  0.00    +0.000 NA
ATOM     28  C   UNL     1      -5.468  12.085  17.165  0.00  0.00    +0.000 C 
ATOM     29  C   UNL     1      -3.461  11.442  18.343  0.00  0.00    +0.000 C 
ENDBRANCH  22  23
ENDBRANCH   3  22
TORSDOF 7
ENDMDL
MODEL 5
REMARK VINA RESULT:      -7.1      7.561     10.083
REMARK  Name = 
REMARK  9 active torsions:
REMARK  status: ('A' for Active; 'I' for Inactive)
REMARK    1  A    between atoms: C_1  and  C_2
REMARK    2  A    between atoms: C_4  and  C_5
REMARK    3  A    between atoms: C_10  and  C_11
REMARK    4  A    between atoms: N_13  and  C_14
REMARK    5  A    between atoms: N_13  and  C_22
REMARK    6  A    between atoms: C_14  and  C_15
REMARK    7  A    between atoms: C_15  and  C_16
REMARK    8  A    between atoms: C_22  and  C_23
REMARK    9  A    between atoms: N_27  and  C_28
REMARK                            x       y       z     vdW  Elec       q    Type
REMARK                         _______ _______ _______ _____ _____    ______ ____
ROOT
ATOM      1  C   UNL     1       0.717  10.312  21.541  0.00  0.00    +0.000 C 
ATOM      2  O   UNL     1       1.720  10.068  22.209  0.00  0.00    +0.000 OA
ATOM      3  N   UNL     1       0.439   9.654  20.309  0.00  0.00    +0.000 N 
ENDROOT
BRANCH   1  10
ATOM      4  C   UNL     1       0.686  13.347  20.765  0.00  0.00    +0.000 C 
ATOM      5  C   UNL     1      -0.058  12.713  21.895  0.00  0.00    +0.000 A 
ATOM      6  N   UNL     1      -0.874  13.619  22.474  0.00  0.00    +0.000 NA
ATOM      7  C   UNL     1      -2.059  13.212  22.944  0.00  0.00    +0.000 A 
ATOM      8  N   UNL     1      -2.377  11.909  23.041  0.00  0.00    +0.000 NA
ATOM      9  C   UNL     1      -1.418  11.015  22.638  0.00  0.00    +0.000 A 
ATOM     10  C   UNL     1      -0.188  11.359  22.093  0.00  0.00    +0.000 A 
BRANCH   7  11
ATOM     11  C   UNL     1      -3.038  14.351  23.095  0.00  0.00    +0.000 C 
ATOM     12  C   UNL     1      -3.285  14.742  24.557  0.00  0.00    +0.000 C 
ATOM     13  C   UNL     1      -2.763  15.746  23.583  0.00  0.00    +0.000 C 
ENDBRANCH   7  11
ENDBRANCH   1  10
BRANCH   3  14
ATOM     14  C   UNL     1       1.360   8.566  19.895  0.00  0.00    +0.000 C 
BRANCH  14  15
ATOM     15  C   UNL     1       1.967   8.518  18.474  0.00  0.00    +0.000 C 
BRANCH  15  16
ATOM     16  C   UNL     1       2.716   7.286  18.026  0.00  0.00    +0.000 A 
ATOM     17  C   UNL     1       2.127   6.026  18.253  0.00  0.00    +0.000 A 
ATOM     18  C   UNL     1       2.791   4.850  17.912  0.00  0.00    +0.000 A 
ATOM     19  C   UNL     1       4.061   4.910  17.332  0.00  0.00    +0.000 A 
ATOM     20  C   UNL     1       4.614   6.149  17.035  0.00  0.00    +0.000 A 
ATOM     21  C   UNL     1       3.952   7.330  17.376  0.00  0.00    +0.000 A 
ENDBRANCH  15  16
ENDBRANCH  14  15
ENDBRANCH   3  14
BRANCH   3  22
ATOM     22  C   UNL     1      -0.030  10.456  19.147  0.00  0.00    +0.000 C 
BRANCH  22  23
ATOM     23  C   UNL     1      -1.516  10.264  18.734  0.00  0.00    +0.000 C 
ATOM     24  C   UNL     1      -2.294  11.523  19.092  0.00  0.00    +0.000 C 
ATOM     25  C   UNL     1      -3.649  11.650  18.429  0.00  0.00    +0.000 C 
ATOM     26  C   UNL     1      -3.524  11.443  16.934  0.00  0.00    +0.000 C 
ATOM     27  N   UNL     1      -2.982  10.102  16.677  0.00  0.00    +0.000 NA
ATOM     28  C   UNL     1      -2.994   9.855  15.233  0.00  0.00    +0.000 C 
ATOM     29  C   UNL     1      -1.621   9.959  17.216  0.00  0.00    +0.000 C 
ENDBRANCH  22  23
ENDBRANCH   3  22
TORSDOF 7
ENDMDL
MODEL 6
REMARK VINA RESULT:      -7.0      6.811      9.849
REMARK  Name = 
REMARK  9 active torsions:
REMARK  status: ('A' for Active; 'I' for Inactive)
REMARK    1  A    between atoms: C_1  and  C_2
REMARK    2  A    between atoms: C_4  and  C_5
REMARK    3  A    between atoms: C_10  and  C_11
REMARK    4  A    between atoms: N_13  and  C_14
REMARK    5  A    between atoms: N_13  and  C_22
REMARK    6  A    between atoms: C_14  and  C_15
REMARK    7  A    between atoms: C_15  and  C_16
REMARK    8  A    between atoms: C_22  and  C_23
REMARK    9  A    between atoms: N_27  and  C_28
REMARK                            x       y       z     vdW  Elec       q    Type
REMARK                         _______ _______ _______ _____ _____    ______ ____
ROOT
ATOM      1  C   UNL     1       0.612  10.111  20.718  0.00  0.00    +0.000 C 
ATOM      2  O   UNL     1       1.079  10.271  21.844  0.00  0.00    +0.000 OA
ATOM      3  N   UNL     1      -0.446  10.918  20.207  0.00  0.00    +0.000 N 
ENDROOT
BRANCH   1  10
ATOM      4  C   UNL     1       2.032  10.367  17.938  0.00  0.00    +0.000 C 
ATOM      5  C   UNL     1       1.644   9.097  18.622  0.00  0.00    +0.000 A 
ATOM      6  N   UNL     1       2.118   8.040  17.931  0.00  0.00    +0.000 NA
ATOM      7  C   UNL     1       2.534   6.961  18.606  0.00  0.00    +0.000 A 
ATOM      8  N   UNL     1       2.310   6.817  19.925  0.00  0.00    +0.000 NA
ATOM      9  C   UNL     1       1.626   7.832  20.542  0.00  0.00    +0.000 A 
ATOM     10  C   UNL     1       1.208   9.002  19.922  0.00  0.00    +0.000 A 
BRANCH   7  11
ATOM     11  C   UNL     1       3.467   6.098  17.791  0.00  0.00    +0.000 C 
ATOM     12  C   UNL     1       4.669   6.870  17.234  0.00  0.00    +0.000 C 
ATOM     13  C   UNL     1       4.875   5.689  18.125  0.00  0.00    +0.000 C 
ENDBRANCH   7  11
ENDBRANCH   1  10
BRANCH   3  14
ATOM     14  C   UNL     1      -0.906  12.050  21.050  0.00  0.00    +0.000 C 
BRANCH  14  15
ATOM     15  C   UNL     1      -0.508  13.510  20.728  0.00  0.00    +0.000 C 
BRANCH  15  16
ATOM     16  C   UNL     1       0.871  13.803  20.189  0.00  0.00    +0.000 A 
ATOM     17  C   UNL     1       1.034  13.912  18.793  0.00  0.00    +0.000 A 
ATOM     18  C   UNL     1       2.290  14.128  18.231  0.00  0.00    +0.000 A 
ATOM     19  C   UNL     1       3.412  14.243  19.055  0.00  0.00    +0.000 A 
ATOM     20  C   UNL     1       3.248  14.212  20.435  0.00  0.00    +0.000 A 
ATOM     21  C   UNL     1       1.990  13.995  21.002  0.00  0.00    +0.000 A 
ENDBRANCH  15  16
ENDBRANCH  14  15
ENDBRANCH   3  14
BRANCH   3  22
ATOM     22  C   UNL     1      -1.573  10.266  19.487  0.00  0.00    +0.000 C 
BRANCH  22  23
ATOM     23  C   UNL     1      -2.031  10.946  18.167  0.00  0.00    +0.000 C 
ATOM     24  C   UNL     1      -1.855   9.962  17.019  0.00  0.00    +0.000 C 
ATOM     25  C   UNL     1      -2.590  10.323  15.746  0.00  0.00    +0.000 C 
ATOM     26  C   UNL     1      -4.044  10.621  16.046  0.00  0.00    +0.000 C 
ATOM     27  N   UNL     1      -4.121  11.747  16.986  0.00  0.00    +0.000 NA
ATOM     28  C   UNL     1      -5.527  12.119  17.165  0.00  0.00    +0.000 C 
ATOM     29  C   UNL     1      -3.507  11.410  18.280  0.00  0.00    +0.000 C 
ENDBRANCH  22  23
ENDBRANCH   3  22
TORSDOF 7
ENDMDL
MODEL 7
REMARK VINA RESULT:      -7.0      3.234      6.974
REMARK  Name = 
REMARK  9 active torsions:
REMARK  status: ('A' for Active; 'I' for Inactive)
REMARK    1  A    between atoms: C_1  and  C_2
REMARK    2  A    between atoms: C_4  and  C_5
REMARK    3  A    between atoms: C_10  and  C_11
REMARK    4  A    between atoms: N_13  and  C_14
REMARK    5  A    between atoms: N_13  and  C_22
REMARK    6  A    between atoms: C_14  and  C_15
REMARK    7  A    between atoms: C_15  and  C_16
REMARK    8  A    between atoms: C_22  and  C_23
REMARK    9  A    between atoms: N_27  and  C_28
REMARK                            x       y       z     vdW  Elec       q    Type
REMARK                         _______ _______ _______ _____ _____    ______ ____
ROOT
ATOM      1  C   UNL     1       3.432   6.757  17.624  0.00  0.00    +0.000 C 
ATOM      2  O   UNL     1       3.925   7.589  16.865  0.00  0.00    +0.000 OA
ATOM      3  N   UNL     1       3.562   5.354  17.411  0.00  0.00    +0.000 N 
ENDROOT
BRANCH   1  10
ATOM      4  C   UNL     1       1.358   9.104  17.540  0.00  0.00    +0.000 C 
ATOM      5  C   UNL     1       1.919   8.460  18.765  0.00  0.00    +0.000 A 
ATOM      6  N   UNL     1       1.300   8.942  19.863  0.00  0.00    +0.000 NA
ATOM      7  C   UNL     1       1.078   8.118  20.894  0.00  0.00    +0.000 A 
ATOM      8  N   UNL     1       1.627   6.891  20.955  0.00  0.00    +0.000 NA
ATOM      9  C   UNL     1       2.432   6.530  19.905  0.00  0.00    +0.000 A 
ATOM     10  C   UNL     1       2.668   7.307  18.779  0.00  0.00    +0.000 A 
BRANCH   7  11
ATOM     11  C   UNL     1      -0.019   8.617  21.803  0.00  0.00    +0.000 C 
ATOM     12  C   UNL     1       0.512   9.367  23.031  0.00  0.00    +0.000 C 
ATOM     13  C   UNL     1      -0.416  10.042  22.074  0.00  0.00    +0.000 C 
ENDBRANCH   7  11
ENDBRANCH   1  10
BRANCH   3  14
ATOM     14  C   UNL     1       4.417   4.915  16.279  0.00  0.00    +0.000 C 
BRANCH  14  15
ATOM     15  C   UNL     1       5.925   4.631  16.470  0.00  0.00    +0.000 C 
BRANCH  15  16
ATOM     16  C   UNL     1       6.748   5.542  17.349  0.00  0.00    +0.000 A 
ATOM     17  C   UNL     1       7.034   6.841  16.884  0.00  0.00    +0.000 A 
ATOM     18  C   UNL     1       7.833   7.709  17.625  0.00  0.00    +0.000 A 
ATOM     19  C   UNL     1       8.361   7.296  18.850  0.00  0.00    +0.000 A 
ATOM     20  C   UNL     1       8.021   6.045  19.350  0.00  0.00    +0.000 A 
ATOM     21  C   UNL     1       7.221   5.172  18.610  0.00  0.00    +0.000 A 
ENDBRANCH  15  16
ENDBRANCH  14  15
ENDBRANCH   3  14
BRANCH   3  22
ATOM     22  C   UNL     1       2.369   4.480  17.578  0.00  0.00    +0.000 C 
BRANCH  22  23
ATOM     23  C   UNL     1       2.557   3.225  18.473  0.00  0.00    +0.000 C 
ATOM     24  C   UNL     1       4.023   3.119  18.873  0.00  0.00    +0.000 C 
ATOM     25  C   UNL     1       4.307   2.185  20.029  0.00  0.00    +0.000 C 
ATOM     26  C   UNL     1       3.400   2.507  21.199  0.00  0.00    +0.000 C 
ATOM     27  N   UNL     1       2.001   2.351  20.783  0.00  0.00    +0.000 NA
ATOM     28  C   UNL     1       1.136   2.528  21.952  0.00  0.00    +0.000 C 
ATOM     29  C   UNL     1       1.645   3.309  19.725  0.00  0.00    +0.000 C 
ENDBRANCH  22  23
ENDBRANCH   3  22
TORSDOF 7
ENDMDL
MODEL 8
REMARK VINA RESULT:      -7.0      3.513      6.790
REMARK  Name = 
REMARK  9 active torsions:
REMARK  status: ('A' for Active; 'I' for Inactive)
REMARK    1  A    between atoms: C_1  and  C_2
REMARK    2  A    between atoms: C_4  and  C_5
REMARK    3  A    between atoms: C_10  and  C_11
REMARK    4  A    between atoms: N_13  and  C_14
REMARK    5  A    between atoms: N_13  and  C_22
REMARK    6  A    between atoms: C_14  and  C_15
REMARK    7  A    between atoms: C_15  and  C_16
REMARK    8  A    between atoms: C_22  and  C_23
REMARK    9  A    between atoms: N_27  and  C_28
REMARK                            x       y       z     vdW  Elec       q    Type
REMARK                         _______ _______ _______ _____ _____    ______ ____
ROOT
ATOM      1  C   UNL     1       3.020   7.202  18.170  0.00  0.00    +0.000 C 
ATOM      2  O   UNL     1       2.811   8.323  17.707  0.00  0.00    +0.000 OA
ATOM      3  N   UNL     1       2.325   6.704  19.310  0.00  0.00    +0.000 N 
ENDROOT
BRANCH   1  10
ATOM      4  C   UNL     1       2.636   4.381  16.863  0.00  0.00    +0.000 C 
ATOM      5  C   UNL     1       3.934   5.086  17.085  0.00  0.00    +0.000 A 
ATOM      6  N   UNL     1       4.939   4.391  16.513  0.00  0.00    +0.000 NA
ATOM      7  C   UNL     1       5.956   5.064  15.959  0.00  0.00    +0.000 A 
ATOM      8  N   UNL     1       6.109   6.389  16.130  0.00  0.00    +0.000 NA
ATOM      9  C   UNL     1       5.171   7.017  16.908  0.00  0.00    +0.000 A 
ATOM     10  C   UNL     1       4.063   6.399  17.473  0.00  0.00    +0.000 A 
BRANCH   7  11
ATOM     11  C   UNL     1       6.717   4.230  14.956  0.00  0.00    +0.000 C 
ATOM     12  C   UNL     1       5.911   3.931  13.687  0.00  0.00    +0.000 C 
ATOM     13  C   UNL     1       7.219   4.646  13.602  0.00  0.00    +0.000 C 
ENDBRANCH   7  11
ENDBRANCH   1  10
BRANCH   3  14
ATOM     14  C   UNL     1       1.245   7.552  19.873  0.00  0.00    +0.000 C 
BRANCH  14  15
ATOM     15  C   UNL     1       1.374   8.202  21.270  0.00  0.00    +0.000 C 
BRANCH  15  16
ATOM     16  C   UNL     1       0.440   9.322  21.658  0.00  0.00    +0.000 A 
ATOM     17  C   UNL     1       0.138  10.306  20.694  0.00  0.00    +0.000 A 
ATOM     18  C   UNL     1      -0.673  11.394  21.008  0.00  0.00    +0.000 A 
ATOM     19  C   UNL     1      -1.204  11.520  22.293  0.00  0.00    +0.000 A 
ATOM     20  C   UNL     1      -0.974  10.516  23.226  0.00  0.00    +0.000 A 
ATOM     21  C   UNL     1      -0.160   9.424  22.916  0.00  0.00    +0.000 A 
ENDBRANCH  15  16
ENDBRANCH  14  15
ENDBRANCH   3  14
BRANCH   3  22
ATOM     22  C   UNL     1       3.089   5.997  20.373  0.00  0.00    +0.000 C 
BRANCH  22  23
ATOM     23  C   UNL     1       2.661   4.534  20.671  0.00  0.00    +0.000 C 
ATOM     24  C   UNL     1       1.192   4.367  20.307  0.00  0.00    +0.000 C 
ATOM     25  C   UNL     1       0.721   2.933  20.182  0.00  0.00    +0.000 C 
ATOM     26  C   UNL     1       1.645   2.155  19.268  0.00  0.00    +0.000 C 
ATOM     27  N   UNL     1       3.003   2.172  19.827  0.00  0.00    +0.000 NA
ATOM     28  C   UNL     1       3.860   1.305  19.015  0.00  0.00    +0.000 C 
ATOM     29  C   UNL     1       3.547   3.538  19.876  0.00  0.00    +0.000 C 
ENDBRANCH  22  23
ENDBRANCH   3  22
TORSDOF 7
ENDMDL
MODEL 9
REMARK VINA RESULT:      -6.8      6.965     10.188
REMARK  Name = 
REMARK  9 active torsions:
REMARK  status: ('A' for Active; 'I' for Inactive)
REMARK    1  A    between atoms: C_1  and  C_2
REMARK    2  A    between atoms: C_4  and  C_5
REMARK    3  A    between atoms: C_10  and  C_11
REMARK    4  A    between atoms: N_13  and  C_14
REMARK    5  A    between atoms: N_13  and  C_22
REMARK    6  A    between atoms: C_14  and  C_15
REMARK    7  A    between atoms: C_15  and  C_16
REMARK    8  A    between atoms: C_22  and  C_23
REMARK    9  A    between atoms: N_27  and  C_28
REMARK                            x       y       z     vdW  Elec       q    Type
REMARK                         _______ _______ _______ _____ _____    ______ ____
ROOT
ATOM      1  C   UNL     1       0.636  10.687  20.523  0.00  0.00    +0.000 C 
ATOM      2  O   UNL     1       1.116  11.095  21.579  0.00  0.00    +0.000 OA
ATOM      3  N   UNL     1      -0.348  11.418  19.797  0.00  0.00    +0.000 N 
ENDROOT
BRANCH   1  10
ATOM      4  C   UNL     1       2.318  10.135  17.938  0.00  0.00    +0.000 C 
ATOM      5  C   UNL     1       1.692   9.109  18.825  0.00  0.00    +0.000 A 
ATOM      6  N   UNL     1       2.067   7.874  18.434  0.00  0.00    +0.000 NA
ATOM      7  C   UNL     1       2.262   6.932  19.366  0.00  0.00    +0.000 A 
ATOM      8  N   UNL     1       1.904   7.117  20.649  0.00  0.00    +0.000 NA
ATOM      9  C   UNL     1       1.322   8.321  20.953  0.00  0.00    +0.000 A 
ATOM     10  C   UNL     1       1.133   9.363  20.055  0.00  0.00    +0.000 A 
BRANCH   7  11
ATOM     11  C   UNL     1       3.129   5.801  18.867  0.00  0.00    +0.000 C 
ATOM     12  C   UNL     1       2.379   4.827  17.951  0.00  0.00    +0.000 C 
ATOM     13  C   UNL     1       3.593   5.545  17.460  0.00  0.00    +0.000 C 
ENDBRANCH   7  11
ENDBRANCH   1  10
BRANCH   3  14
ATOM     14  C   UNL     1      -0.708  12.765  20.306  0.00  0.00    +0.000 C 
BRANCH  14  15
ATOM     15  C   UNL     1      -0.152  14.051  19.652  0.00  0.00    +0.000 C 
BRANCH  15  16
ATOM     16  C   UNL     1       1.340  14.228  19.508  0.00  0.00    +0.000 A 
ATOM     17  C   UNL     1       2.059  14.757  20.599  0.00  0.00    +0.000 A 
ATOM     18  C   UNL     1       3.429  14.995  20.509  0.00  0.00    +0.000 A 
ATOM     19  C   UNL     1       4.111  14.705  19.325  0.00  0.00    +0.000 A 
ATOM     20  C   UNL     1       3.424  14.113  18.273  0.00  0.00    +0.000 A 
ATOM     21  C   UNL     1       2.050  13.874  18.358  0.00  0.00    +0.000 A 
ENDBRANCH  15  16
ENDBRANCH  14  15
ENDBRANCH   3  14
BRANCH   3  22
ATOM     22  C   UNL     1      -1.528  10.699  19.245  0.00  0.00    +0.000 C 
BRANCH  22  23
ATOM     23  C   UNL     1      -2.143  11.284  17.945  0.00  0.00    +0.000 C 
ATOM     24  C   UNL     1      -1.931  10.291  16.809  0.00  0.00    +0.000 C 
ATOM     25  C   UNL     1      -2.783  10.530  15.581  0.00  0.00    +0.000 C 
ATOM     26  C   UNL     1      -4.239  10.673  15.972  0.00  0.00    +0.000 C 
ATOM     27  N   UNL     1      -4.383  11.810  16.889  0.00  0.00    +0.000 NA
ATOM     28  C   UNL     1      -5.807  12.028  17.154  0.00  0.00    +0.000 C 
ATOM     29  C   UNL     1      -3.652  11.583  18.145  0.00  0.00    +0.000 C 
ENDBRANCH  22  23
ENDBRANCH   3  22
TORSDOF 7
ENDMDL
