MODEL 1
REMARK VINA RESULT:      -7.2      0.000      0.000
REMARK  Name = 
REMARK  7 active torsions:
REMARK  status: ('A' for Active; 'I' for Inactive)
REMARK    1  A    between atoms: C_2  and  O_3
REMARK    2  A    between atoms: C_2  and  C_4
REMARK    3  A    between atoms: C_4  and  C_5
REMARK    4  A    between atoms: C_8  and  O_9
REMARK    5  A    between atoms: O_9  and  C_10
REMARK    6  A    between atoms: C_10  and  C_11
REMARK    7  A    between atoms: C_13  and  C_14
REMARK                            x       y       z     vdW  Elec       q    Type
REMARK                         _______ _______ _______ _____ _____    ______ ____
ROOT
ATOM      1  O   UNL     1       6.685   5.375  19.613  0.00  0.00    +0.000 OA
ENDROOT
BRANCH   1   5
ATOM      2  C   UNL     1       2.827   4.312  18.410  0.00  0.00    +0.000 A 
ATOM      3  C   UNL     1       3.111   5.556  18.988  0.00  0.00    +0.000 A 
ATOM      4  C   UNL     1       4.417   5.872  19.373  0.00  0.00    +0.000 A 
ATOM      5  C   UNL     1       5.450   4.950  19.204  0.00  0.00    +0.000 A 
ATOM      6  C   UNL     1       5.181   3.722  18.602  0.00  0.00    +0.000 A 
ATOM      7  C   UNL     1       3.877   3.407  18.203  0.00  0.00    +0.000 A 
BRANCH   2   8
ATOM      8  C   UNL     1       1.415   3.960  18.000  0.00  0.00    +0.000 C 
BRANCH   8  10
ATOM      9  O   UNL     1       0.244   1.910  18.422  0.00  0.00    +0.000 OA
ATOM     10  C   UNL     1       0.669   2.969  18.868  0.00  0.00    +0.000 C 
BRANCH  10  11
ATOM     11  O   UNL     1       0.481   3.305  20.161  0.00  0.00    +0.000 OA
ATOM     12  H   UNL     1       1.103   3.970  20.513  0.00  0.00    +0.000 HD
ENDBRANCH  10  11
ENDBRANCH   8  10
ENDBRANCH   2   8
ENDBRANCH   1   5
BRANCH   1  13
ATOM     13  C   UNL     1       7.679   5.462  18.590  0.00  0.00    +0.000 C 
BRANCH  13  14
ATOM     14  C   UNL     1       7.883   6.901  18.288  0.00  0.00    +0.000 A 
ATOM     15  N   UNL     1       8.604   7.795  18.928  0.00  0.00    +0.000 NA
ATOM     16  C   UNL     1       8.342   8.938  18.215  0.00  0.00    +0.000 A 
ATOM     17  N   UNL     1       7.504   8.778  17.182  0.00  0.00    +0.000 NA
ATOM     18  O   UNL     1       7.193   7.418  17.229  0.00  0.00    +0.000 OA
BRANCH  16  19
ATOM     19  C   UNL     1       8.914  10.222  18.627  0.00  0.00    +0.000 A 
ATOM     20  C   UNL     1       9.485  10.435  19.919  0.00  0.00    +0.000 A 
ATOM     21  C   UNL     1       9.937  11.728  20.082  0.00  0.00    +0.000 A 
ATOM     22  S   UNL     1       9.678  12.678  18.683  0.00  0.00    +0.000 S 
ATOM     23  C   UNL     1       8.963  11.362  17.853  0.00  0.00    +0.000 A 
ENDBRANCH  16  19
ENDBRANCH  13  14
ENDBRANCH   1  13
TORSDOF 7
ENDMDL
MODEL 2
REMARK VINA RESULT:      -7.0      6.135      8.351
REMARK  Name = 
REMARK  7 active torsions:
REMARK  status: ('A' for Active; 'I' for Inactive)
REMARK    1  A    between atoms: C_2  and  O_3
REMARK    2  A    between atoms: C_2  and  C_4
REMARK    3  A    between atoms: C_4  and  C_5
REMARK    4  A    between atoms: C_8  and  O_9
REMARK    5  A    between atoms: O_9  and  C_10
REMARK    6  A    between atoms: C_10  and  C_11
REMARK    7  A    between atoms: C_13  and  C_14
REMARK                            x       y       z     vdW  Elec       q    Type
REMARK                         _______ _______ _______ _____ _____    ______ ____
ROOT
ATOM      1  O   UNL     1       2.011   7.640  18.586  0.00  0.00    +0.000 OA
ENDROOT
BRANCH   1   5
ATOM      2  C   UNL     1       4.698   5.015  16.757  0.00  0.00    +0.000 A 
ATOM      3  C   UNL     1       4.894   6.402  16.755  0.00  0.00    +0.000 A 
ATOM      4  C   UNL     1       3.971   7.244  17.382  0.00  0.00    +0.000 A 
ATOM      5  C   UNL     1       2.837   6.719  18.003  0.00  0.00    +0.000 A 
ATOM      6  C   UNL     1       2.653   5.337  18.035  0.00  0.00    +0.000 A 
ATOM      7  C   UNL     1       3.581   4.490  17.420  0.00  0.00    +0.000 A 
BRANCH   2   8
ATOM      8  C   UNL     1       5.688   4.099  16.073  0.00  0.00    +0.000 C 
BRANCH   8  10
ATOM      9  O   UNL     1       7.572   5.231  15.113  0.00  0.00    +0.000 OA
ATOM     10  C   UNL     1       7.133   4.549  16.031  0.00  0.00    +0.000 C 
BRANCH  10  11
ATOM     11  O   UNL     1       7.928   4.159  17.049  0.00  0.00    +0.000 OA
ATOM     12  H   UNL     1       7.542   4.262  17.940  0.00  0.00    +0.000 HD
ENDBRANCH  10  11
ENDBRANCH   8  10
ENDBRANCH   2   8
ENDBRANCH   1   5
BRANCH   1  13
ATOM     13  C   UNL     1       2.290   9.006  18.272  0.00  0.00    +0.000 C 
BRANCH  13  14
ATOM     14  C   UNL     1       1.006   9.749  18.342  0.00  0.00    +0.000 A 
ATOM     15  N   UNL     1      -0.099   9.575  17.651  0.00  0.00    +0.000 NA
ATOM     16  C   UNL     1      -0.891  10.595  18.116  0.00  0.00    +0.000 A 
ATOM     17  N   UNL     1      -0.322  11.371  19.048  0.00  0.00    +0.000 NA
ATOM     18  O   UNL     1       0.948  10.810  19.201  0.00  0.00    +0.000 OA
BRANCH  16  19
ATOM     19  C   UNL     1      -2.230  10.812  17.561  0.00  0.00    +0.000 A 
ATOM     20  C   UNL     1      -2.562  10.514  16.204  0.00  0.00    +0.000 A 
ATOM     21  C   UNL     1      -3.873  10.824  15.909  0.00  0.00    +0.000 A 
ATOM     22  S   UNL     1      -4.700  11.465  17.262  0.00  0.00    +0.000 S 
ATOM     23  C   UNL     1      -3.307  11.329  18.249  0.00  0.00    +0.000 A 
ENDBRANCH  16  19
ENDBRANCH  13  14
ENDBRANCH   1  13
TORSDOF 7
ENDMDL
MODEL 3
REMARK VINA RESULT:      -7.0      1.187      1.342
REMARK  Name = 
REMARK  7 active torsions:
REMARK  status: ('A' for Active; 'I' for Inactive)
REMARK    1  A    between atoms: C_2  and  O_3
REMARK    2  A    between atoms: C_2  and  C_4
REMARK    3  A    between atoms: C_4  and  C_5
REMARK    4  A    between atoms: C_8  and  O_9
REMARK    5  A    between atoms: O_9  and  C_10
REMARK    6  A    between atoms: C_10  and  C_11
REMARK    7  A    between atoms: C_13  and  C_14
REMARK                            x       y       z     vdW  Elec       q    Type
REMARK                         _______ _______ _______ _____ _____    ______ ____
ROOT
ATOM      1  O   UNL     1       6.732   4.879  17.390  0.00  0.00    +0.000 OA
ENDROOT
BRANCH   1   5
ATOM      2  C   UNL     1       3.059   3.248  18.531  0.00  0.00    +0.000 A 
ATOM      3  C   UNL     1       4.021   3.642  19.468  0.00  0.00    +0.000 A 
ATOM      4  C   UNL     1       5.236   4.186  19.042  0.00  0.00    +0.000 A 
ATOM      5  C   UNL     1       5.514   4.329  17.683  0.00  0.00    +0.000 A 
ATOM      6  C   UNL     1       4.547   3.967  16.745  0.00  0.00    +0.000 A 
ATOM      7  C   UNL     1       3.325   3.433  17.168  0.00  0.00    +0.000 A 
BRANCH   2   8
ATOM      8  C   UNL     1       1.746   2.649  18.984  0.00  0.00    +0.000 C 
BRANCH   8  10
ATOM      9  O   UNL     1       1.519   2.353  21.353  0.00  0.00    +0.000 OA
ATOM     10  C   UNL     1       1.253   3.027  20.365  0.00  0.00    +0.000 C 
BRANCH  10  11
ATOM     11  O   UNL     1       0.497   4.140  20.465  0.00  0.00    +0.000 OA
ATOM     12  H   UNL     1      -0.406   4.000  20.809  0.00  0.00    +0.000 HD
ENDBRANCH  10  11
ENDBRANCH   8  10
ENDBRANCH   2   8
ENDBRANCH   1   5
BRANCH   1  13
ATOM     13  C   UNL     1       7.456   5.407  18.503  0.00  0.00    +0.000 C 
BRANCH  13  14
ATOM     14  C   UNL     1       7.736   6.836  18.213  0.00  0.00    +0.000 A 
ATOM     15  N   UNL     1       8.481   7.692  18.877  0.00  0.00    +0.000 NA
ATOM     16  C   UNL     1       8.294   8.849  18.163  0.00  0.00    +0.000 A 
ATOM     17  N   UNL     1       7.478   8.733  17.106  0.00  0.00    +0.000 NA
ATOM     18  O   UNL     1       7.102   7.389  17.138  0.00  0.00    +0.000 OA
BRANCH  16  19
ATOM     19  C   UNL     1       8.915  10.103  18.597  0.00  0.00    +0.000 A 
ATOM     20  C   UNL     1       9.569  10.246  19.858  0.00  0.00    +0.000 A 
ATOM     21  C   UNL     1      10.054  11.522  20.053  0.00  0.00    +0.000 A 
ATOM     22  S   UNL     1       9.728  12.541  18.718  0.00  0.00    +0.000 S 
ATOM     23  C   UNL     1       8.937  11.277  17.874  0.00  0.00    +0.000 A 
ENDBRANCH  16  19
ENDBRANCH  13  14
ENDBRANCH   1  13
TORSDOF 7
ENDMDL
MODEL 4
REMARK VINA RESULT:      -6.9      1.366      1.675
REMARK  Name = 
REMARK  7 active torsions:
REMARK  status: ('A' for Active; 'I' for Inactive)
REMARK    1  A    between atoms: C_2  and  O_3
REMARK    2  A    between atoms: C_2  and  C_4
REMARK    3  A    between atoms: C_4  and  C_5
REMARK    4  A    between atoms: C_8  and  O_9
REMARK    5  A    between atoms: O_9  and  C_10
REMARK    6  A    between atoms: C_10  and  C_11
REMARK    7  A    between atoms: C_13  and  C_14
REMARK                            x       y       z     vdW  Elec       q    Type
REMARK                         _______ _______ _______ _____ _____    ______ ____
ROOT
ATOM      1  O   UNL     1       6.013   5.962  17.363  0.00  0.00    +0.000 OA
ENDROOT
BRANCH   1   5
ATOM      2  C   UNL     1       3.342   3.226  19.046  0.00  0.00    +0.000 A 
ATOM      3  C   UNL     1       3.783   4.360  19.740  0.00  0.00    +0.000 A 
ATOM      4  C   UNL     1       4.675   5.251  19.138  0.00  0.00    +0.000 A 
ATOM      5  C   UNL     1       5.150   5.018  17.847  0.00  0.00    +0.000 A 
ATOM      6  C   UNL     1       4.692   3.908  17.140  0.00  0.00    +0.000 A 
ATOM      7  C   UNL     1       3.789   3.019  17.734  0.00  0.00    +0.000 A 
BRANCH   2   8
ATOM      8  C   UNL     1       2.384   2.253  19.696  0.00  0.00    +0.000 C 
BRANCH   8  10
ATOM      9  O   UNL     1       1.591   2.598  21.933  0.00  0.00    +0.000 OA
ATOM     10  C   UNL     1       1.433   2.807  20.736  0.00  0.00    +0.000 C 
BRANCH  10  11
ATOM     11  O   UNL     1       0.393   3.540  20.289  0.00  0.00    +0.000 OA
ATOM     12  H   UNL     1       0.362   3.673  19.322  0.00  0.00    +0.000 HD
ENDBRANCH  10  11
ENDBRANCH   8  10
ENDBRANCH   2   8
ENDBRANCH   1   5
BRANCH   1  13
ATOM     13  C   UNL     1       7.288   6.023  18.006  0.00  0.00    +0.000 C 
BRANCH  13  14
ATOM     14  C   UNL     1       7.728   7.440  17.990  0.00  0.00    +0.000 A 
ATOM     15  N   UNL     1       8.617   8.048  18.745  0.00  0.00    +0.000 NA
ATOM     16  C   UNL     1       8.532   9.344  18.300  0.00  0.00    +0.000 A 
ATOM     17  N   UNL     1       7.641   9.547  17.320  0.00  0.00    +0.000 NA
ATOM     18  O   UNL     1       7.100   8.277  17.111  0.00  0.00    +0.000 OA
BRANCH  16  19
ATOM     19  C   UNL     1       9.333  10.400  18.923  0.00  0.00    +0.000 A 
ATOM     20  C   UNL     1      10.245  11.216  18.185  0.00  0.00    +0.000 A 
ATOM     21  C   UNL     1      10.901  12.123  18.990  0.00  0.00    +0.000 A 
ATOM     22  S   UNL     1      10.415  11.997  20.625  0.00  0.00    +0.000 S 
ATOM     23  C   UNL     1       9.324  10.728  20.262  0.00  0.00    +0.000 A 
ENDBRANCH  16  19
ENDBRANCH  13  14
ENDBRANCH   1  13
TORSDOF 7
ENDMDL
MODEL 5
REMARK VINA RESULT:      -6.9      1.644      2.101
REMARK  Name = 
REMARK  7 active torsions:
REMARK  status: ('A' for Active; 'I' for Inactive)
REMARK    1  A    between atoms: C_2  and  O_3
REMARK    2  A    between atoms: C_2  and  C_4
REMARK    3  A    between atoms: C_4  and  C_5
REMARK    4  A    between atoms: C_8  and  O_9
REMARK    5  A    between atoms: O_9  and  C_10
REMARK    6  A    between atoms: C_10  and  C_11
REMARK    7  A    between atoms: C_13  and  C_14
REMARK                            x       y       z     vdW  Elec       q    Type
REMARK                         _______ _______ _______ _____ _____    ______ ____
ROOT
ATOM      1  O   UNL     1       5.364   5.198  16.135  0.00  0.00    +0.000 OA
ENDROOT
BRANCH   1   5
ATOM      2  C   UNL     1       3.083   4.901  19.623  0.00  0.00    +0.000 A 
ATOM      3  C   UNL     1       3.073   6.050  18.823  0.00  0.00    +0.000 A 
ATOM      4  C   UNL     1       3.850   6.106  17.662  0.00  0.00    +0.000 A 
ATOM      5  C   UNL     1       4.655   5.028  17.293  0.00  0.00    +0.000 A 
ATOM      6  C   UNL     1       4.646   3.870  18.068  0.00  0.00    +0.000 A 
ATOM      7  C   UNL     1       3.860   3.805  19.224  0.00  0.00    +0.000 A 
BRANCH   2   8
ATOM      8  C   UNL     1       2.253   4.837  20.885  0.00  0.00    +0.000 C 
BRANCH   8  10
ATOM      9  O   UNL     1       2.045   2.814  22.156  0.00  0.00    +0.000 OA
ATOM     10  C   UNL     1       1.626   3.504  21.235  0.00  0.00    +0.000 C 
BRANCH  10  11
ATOM     11  O   UNL     1       0.583   3.099  20.480  0.00  0.00    +0.000 OA
ATOM     12  H   UNL     1       0.224   2.220  20.706  0.00  0.00    +0.000 HD
ENDBRANCH  10  11
ENDBRANCH   8  10
ENDBRANCH   2   8
ENDBRANCH   1   5
BRANCH   1  13
ATOM     13  C   UNL     1       6.777   5.019  16.244  0.00  0.00    +0.000 C 
BRANCH  13  14
ATOM     14  C   UNL     1       7.294   6.086  17.137  0.00  0.00    +0.000 A 
ATOM     15  N   UNL     1       7.428   7.374  16.909  0.00  0.00    +0.000 NA
ATOM     16  C   UNL     1       8.011   7.812  18.072  0.00  0.00    +0.000 A 
ATOM     17  N   UNL     1       8.234   6.857  18.985  0.00  0.00    +0.000 NA
ATOM     18  O   UNL     1       7.758   5.701  18.362  0.00  0.00    +0.000 OA
BRANCH  16  19
ATOM     19  C   UNL     1       8.395   9.216  18.231  0.00  0.00    +0.000 A 
ATOM     20  C   UNL     1       9.317   9.657  19.229  0.00  0.00    +0.000 A 
ATOM     21  C   UNL     1       9.504  11.023  19.199  0.00  0.00    +0.000 A 
ATOM     22  S   UNL     1       8.575  11.770  17.971  0.00  0.00    +0.000 S 
ATOM     23  C   UNL     1       7.922  10.267  17.473  0.00  0.00    +0.000 A 
ENDBRANCH  16  19
ENDBRANCH  13  14
ENDBRANCH   1  13
TORSDOF 7
ENDMDL
MODEL 6
REMARK VINA RESULT:      -6.8      4.725      6.378
REMARK  Name = 
REMARK  7 active torsions:
REMARK  status: ('A' for Active; 'I' for Inactive)
REMARK    1  A    between atoms: C_2  and  O_3
REMARK    2  A    between atoms: C_2  and  C_4
REMARK    3  A    between atoms: C_4  and  C_5
REMARK    4  A    between atoms: C_8  and  O_9
REMARK    5  A    between atoms: O_9  and  C_10
REMARK    6  A    between atoms: C_10  and  C_11
REMARK    7  A    between atoms: C_13  and  C_14
REMARK                            x       y       z     vdW  Elec       q    Type
REMARK                         _______ _______ _______ _____ _____    ______ ____
ROOT
ATOM      1  O   UNL     1       5.973   6.294  17.452  0.00  0.00    +0.000 OA
ENDROOT
BRANCH   1   5
ATOM      2  C   UNL     1       2.653   4.924  19.586  0.00  0.00    +0.000 A 
ATOM      3  C   UNL     1       2.565   5.977  18.668  0.00  0.00    +0.000 A 
ATOM      4  C   UNL     1       3.701   6.402  17.973  0.00  0.00    +0.000 A 
ATOM      5  C   UNL     1       4.938   5.796  18.194  0.00  0.00    +0.000 A 
ATOM      6  C   UNL     1       5.026   4.726  19.084  0.00  0.00    +0.000 A 
ATOM      7  C   UNL     1       3.889   4.290  19.773  0.00  0.00    +0.000 A 
BRANCH   2   8
ATOM      8  C   UNL     1       1.431   4.465  20.349  0.00  0.00    +0.000 C 
BRANCH   8  10
ATOM      9  O   UNL     1       1.567   2.840  22.107  0.00  0.00    +0.000 OA
ATOM     10  C   UNL     1       1.451   3.058  20.907  0.00  0.00    +0.000 C 
BRANCH  10  11
ATOM     11  O   UNL     1       1.342   2.045  20.024  0.00  0.00    +0.000 OA
ATOM     12  H   UNL     1       1.141   2.312  19.106  0.00  0.00    +0.000 HD
ENDBRANCH  10  11
ENDBRANCH   8  10
ENDBRANCH   2   8
ENDBRANCH   1   5
BRANCH   1  13
ATOM     13  C   UNL     1       7.016   5.366  17.146  0.00  0.00    +0.000 C 
BRANCH  13  14
ATOM     14  C   UNL     1       6.929   5.060  15.696  0.00  0.00    +0.000 A 
ATOM     15  N   UNL     1       6.158   4.199  15.068  0.00  0.00    +0.000 NA
ATOM     16  C   UNL     1       6.581   4.330  13.769  0.00  0.00    +0.000 A 
ATOM     17  N   UNL     1       7.563   5.222  13.583  0.00  0.00    +0.000 NA
ATOM     18  O   UNL     1       7.800   5.711  14.869  0.00  0.00    +0.000 OA
BRANCH  16  19
ATOM     19  C   UNL     1       6.011   3.492  12.711  0.00  0.00    +0.000 A 
ATOM     20  C   UNL     1       4.677   3.657  12.228  0.00  0.00    +0.000 A 
ATOM     21  C   UNL     1       4.360   2.739  11.249  0.00  0.00    +0.000 A 
ATOM     22  S   UNL     1       5.666   1.687  10.910  0.00  0.00    +0.000 S 
ATOM     23  C   UNL     1       6.661   2.458  12.071  0.00  0.00    +0.000 A 
ENDBRANCH  16  19
ENDBRANCH  13  14
ENDBRANCH   1  13
TORSDOF 7
ENDMDL
MODEL 7
REMARK VINA RESULT:      -6.8      5.282      7.378
REMARK  Name = 
REMARK  7 active torsions:
REMARK  status: ('A' for Active; 'I' for Inactive)
REMARK    1  A    between atoms: C_2  and  O_3
REMARK    2  A    between atoms: C_2  and  C_4
REMARK    3  A    between atoms: C_4  and  C_5
REMARK    4  A    between atoms: C_8  and  O_9
REMARK    5  A    between atoms: O_9  and  C_10
REMARK    6  A    between atoms: C_10  and  C_11
REMARK    7  A    between atoms: C_13  and  C_14
REMARK                            x       y       z     vdW  Elec       q    Type
REMARK                         _______ _______ _______ _____ _____    ______ ____
ROOT
ATOM      1  O   UNL     1       1.823   5.773  19.196  0.00  0.00    +0.000 OA
ENDROOT
BRANCH   1   5
ATOM      2  C   UNL     1       4.762   4.434  16.546  0.00  0.00    +0.000 A 
ATOM      3  C   UNL     1       3.796   3.574  17.082  0.00  0.00    +0.000 A 
ATOM      4  C   UNL     1       2.828   4.065  17.963  0.00  0.00    +0.000 A 
ATOM      5  C   UNL     1       2.820   5.410  18.333  0.00  0.00    +0.000 A 
ATOM      6  C   UNL     1       3.761   6.277  17.780  0.00  0.00    +0.000 A 
ATOM      7  C   UNL     1       4.723   5.793  16.887  0.00  0.00    +0.000 A 
BRANCH   2   8
ATOM      8  C   UNL     1       5.817   3.908  15.599  0.00  0.00    +0.000 C 
BRANCH   8  10
ATOM      9  O   UNL     1       7.640   5.280  14.861  0.00  0.00    +0.000 OA
ATOM     10  C   UNL     1       7.203   4.508  15.705  0.00  0.00    +0.000 C 
BRANCH  10  11
ATOM     11  O   UNL     1       7.948   4.149  16.772  0.00  0.00    +0.000 OA
ATOM     12  H   UNL     1       7.503   4.233  17.637  0.00  0.00    +0.000 HD
ENDBRANCH  10  11
ENDBRANCH   8  10
ENDBRANCH   2   8
ENDBRANCH   1   5
BRANCH   1  13
ATOM     13  C   UNL     1       2.247   6.451  20.381  0.00  0.00    +0.000 C 
BRANCH  13  14
ATOM     14  C   UNL     1       1.604   7.789  20.381  0.00  0.00    +0.000 A 
ATOM     15  N   UNL     1       0.857   8.357  21.303  0.00  0.00    +0.000 NA
ATOM     16  C   UNL     1       0.515   9.543  20.704  0.00  0.00    +0.000 A 
ATOM     17  N   UNL     1       1.016   9.719  19.473  0.00  0.00    +0.000 NA
ATOM     18  O   UNL     1       1.744   8.547  19.254  0.00  0.00    +0.000 OA
BRANCH  16  19
ATOM     19  C   UNL     1      -0.380  10.488  21.376  0.00  0.00    +0.000 A 
ATOM     20  C   UNL     1      -0.673  10.417  22.772  0.00  0.00    +0.000 A 
ATOM     21  C   UNL     1      -1.558  11.396  23.170  0.00  0.00    +0.000 A 
ATOM     22  S   UNL     1      -2.029  12.401  21.868  0.00  0.00    +0.000 S 
ATOM     23  C   UNL     1      -1.049  11.529  20.767  0.00  0.00    +0.000 A 
ENDBRANCH  16  19
ENDBRANCH  13  14
ENDBRANCH   1  13
TORSDOF 7
ENDMDL
MODEL 8
REMARK VINA RESULT:      -6.8      4.264      5.529
REMARK  Name = 
REMARK  7 active torsions:
REMARK  status: ('A' for Active; 'I' for Inactive)
REMARK    1  A    between atoms: C_2  and  O_3
REMARK    2  A    between atoms: C_2  and  C_4
REMARK    3  A    between atoms: C_4  and  C_5
REMARK    4  A    between atoms: C_8  and  O_9
REMARK    5  A    between atoms: O_9  and  C_10
REMARK    6  A    between atoms: C_10  and  C_11
REMARK    7  A    between atoms: C_13  and  C_14
REMARK                            x       y       z     vdW  Elec       q    Type
REMARK                         _______ _______ _______ _____ _____    ______ ____
ROOT
ATOM      1  O   UNL     1       3.678   7.192  17.569  0.00  0.00    +0.000 OA
ENDROOT
BRANCH   1   5
ATOM      2  C   UNL     1       1.797   4.051  19.581  0.00  0.00    +0.000 A 
ATOM      3  C   UNL     1       1.950   5.318  20.157  0.00  0.00    +0.000 A 
ATOM      4  C   UNL     1       2.583   6.342  19.447  0.00  0.00    +0.000 A 
ATOM      5  C   UNL     1       3.085   6.113  18.166  0.00  0.00    +0.000 A 
ATOM      6  C   UNL     1       2.909   4.863  17.575  0.00  0.00    +0.000 A 
ATOM      7  C   UNL     1       2.265   3.839  18.277  0.00  0.00    +0.000 A 
BRANCH   2   8
ATOM      8  C   UNL     1       1.121   2.936  20.348  0.00  0.00    +0.000 C 
BRANCH   8  10
ATOM      9  O   UNL     1       0.942   2.482  22.696  0.00  0.00    +0.000 OA
ATOM     10  C   UNL     1       1.671   2.607  21.719  0.00  0.00    +0.000 C 
BRANCH  10  11
ATOM     11  O   UNL     1       3.009   2.462  21.826  0.00  0.00    +0.000 OA
ATOM     12  H   UNL     1       3.416   1.862  21.172  0.00  0.00    +0.000 HD
ENDBRANCH  10  11
ENDBRANCH   8  10
ENDBRANCH   2   8
ENDBRANCH   1   5
BRANCH   1  13
ATOM     13  C   UNL     1       5.075   7.351  17.828  0.00  0.00    +0.000 C 
BRANCH  13  14
ATOM     14  C   UNL     1       5.804   6.438  16.912  0.00  0.00    +0.000 A 
ATOM     15  N   UNL     1       5.613   6.213  15.630  0.00  0.00    +0.000 NA
ATOM     16  C   UNL     1       6.542   5.236  15.370  0.00  0.00    +0.000 A 
ATOM     17  N   UNL     1       7.279   4.864  16.425  0.00  0.00    +0.000 NA
ATOM     18  O   UNL     1       6.787   5.664  17.458  0.00  0.00    +0.000 OA
BRANCH  16  19
ATOM     19  C   UNL     1       6.640   4.637  14.037  0.00  0.00    +0.000 A 
ATOM     20  C   UNL     1       7.552   5.107  13.043  0.00  0.00    +0.000 A 
ATOM     21  C   UNL     1       7.446   4.402  11.863  0.00  0.00    +0.000 A 
ATOM     22  S   UNL     1       6.257   3.175  11.955  0.00  0.00    +0.000 S 
ATOM     23  C   UNL     1       5.881   3.582  13.575  0.00  0.00    +0.000 A 
ENDBRANCH  16  19
ENDBRANCH  13  14
ENDBRANCH   1  13
TORSDOF 7
ENDMDL
MODEL 9
REMARK VINA RESULT:      -6.8      4.771      6.441
REMARK  Name = 
REMARK  7 active torsions:
REMARK  status: ('A' for Active; 'I' for Inactive)
REMARK    1  A    between atoms: C_2  and  O_3
REMARK    2  A    between atoms: C_2  and  C_4
REMARK    3  A    between atoms: C_4  and  C_5
REMARK    4  A    between atoms: C_8  and  O_9
REMARK    5  A    between atoms: O_9  and  C_10
REMARK    6  A    between atoms: C_10  and  C_11
REMARK    7  A    between atoms: C_13  and  C_14
REMARK                            x       y       z     vdW  Elec       q    Type
REMARK                         _______ _______ _______ _____ _____    ______ ____
ROOT
ATOM      1  O   UNL     1       4.831   6.267  17.331  0.00  0.00    +0.000 OA
ENDROOT
BRANCH   1   5
ATOM      2  C   UNL     1       2.102   4.168  19.697  0.00  0.00    +0.000 A 
ATOM      3  C   UNL     1       2.755   3.575  18.610  0.00  0.00    +0.000 A 
ATOM      4  C   UNL     1       3.663   4.314  17.846  0.00  0.00    +0.000 A 
ATOM      5  C   UNL     1       3.920   5.651  18.145  0.00  0.00    +0.000 A 
ATOM      6  C   UNL     1       3.297   6.239  19.245  0.00  0.00    +0.000 A 
ATOM      7  C   UNL     1       2.396   5.500  20.019  0.00  0.00    +0.000 A 
BRANCH   2   8
ATOM      8  C   UNL     1       1.111   3.378  20.522  0.00  0.00    +0.000 C 
BRANCH   8  10
ATOM      9  O   UNL     1       2.839   2.484  21.924  0.00  0.00    +0.000 OA
ATOM     10  C   UNL     1       1.641   2.673  21.753  0.00  0.00    +0.000 C 
BRANCH  10  11
ATOM     11  O   UNL     1       0.733   2.252  22.658  0.00  0.00    +0.000 OA
ATOM     12  H   UNL     1       1.039   1.541  23.253  0.00  0.00    +0.000 HD
ENDBRANCH  10  11
ENDBRANCH   8  10
ENDBRANCH   2   8
ENDBRANCH   1   5
BRANCH   1  13
ATOM     13  C   UNL     1       6.123   5.659  17.278  0.00  0.00    +0.000 C 
BRANCH  13  14
ATOM     14  C   UNL     1       6.374   5.269  15.867  0.00  0.00    +0.000 A 
ATOM     15  N   UNL     1       5.726   4.412  15.110  0.00  0.00    +0.000 NA
ATOM     16  C   UNL     1       6.462   4.440  13.951  0.00  0.00    +0.000 A 
ATOM     17  N   UNL     1       7.516   5.268  13.973  0.00  0.00    +0.000 NA
ATOM     18  O   UNL     1       7.461   5.823  15.253  0.00  0.00    +0.000 OA
BRANCH  16  19
ATOM     19  C   UNL     1       6.116   3.569  12.826  0.00  0.00    +0.000 A 
ATOM     20  C   UNL     1       4.823   3.568  12.218  0.00  0.00    +0.000 A 
ATOM     21  C   UNL     1       4.729   2.649  11.194  0.00  0.00    +0.000 A 
ATOM     22  S   UNL     1       6.194   1.795  10.964  0.00  0.00    +0.000 S 
ATOM     23  C   UNL     1       6.960   2.654  12.232  0.00  0.00    +0.000 A 
ENDBRANCH  16  19
ENDBRANCH  13  14
ENDBRANCH   1  13
TORSDOF 7
ENDMDL
