MODEL 1
REMARK VINA RESULT:      -9.3      0.000      0.000
REMARK  Name = 
REMARK  6 active torsions:
REMARK  status: ('A' for Active; 'I' for Inactive)
REMARK    1  A    between atoms: C_1  and  C_2
REMARK    2  A    between atoms: N_4  and  C_5
REMARK    3  A    between atoms: C_8  and  N_9
REMARK    4  A    between atoms: C_10  and  C_12
REMARK    5  A    between atoms: C_12  and  N_13
REMARK    6  A    between atoms: N_17  and  C_18
REMARK                            x       y       z     vdW  Elec       q    Type
REMARK                         _______ _______ _______ _____ _____    ______ ____
ROOT
ATOM      1  N   UNL     1       0.724   9.468  17.588  0.00  0.00    +0.000 N 
ATOM      2  C   UNL     1       1.588   8.878  18.584  0.00  0.00    +0.000 C 
ATOM      3  O   UNL     1       1.260   8.873  19.772  0.00  0.00    +0.000 OA
ATOM      4  H   UNL     1       1.037   9.357  16.624  0.00  0.00    +0.000 HD
ENDROOT
BRANCH   1   8
ATOM      5  C   UNL     1      -3.251  11.490  18.052  0.00  0.00    +0.000 A 
ATOM      6  C   UNL     1      -3.071  10.385  17.214  0.00  0.00    +0.000 A 
ATOM      7  C   UNL     1      -1.790   9.712  17.060  0.00  0.00    +0.000 A 
ATOM      8  C   UNL     1      -0.626  10.099  17.742  0.00  0.00    +0.000 A 
ATOM      9  C   UNL     1      -0.840  11.188  18.623  0.00  0.00    +0.000 A 
ATOM     10  C   UNL     1      -2.123  11.879  18.763  0.00  0.00    +0.000 A 
BRANCH   5  14
ATOM     11  C   UNL     1      -6.904  12.739  18.324  0.00  0.00    +0.000 C 
ATOM     12  C   UNL     1      -5.770  11.732  18.392  0.00  0.00    +0.000 C 
ATOM     13  O   UNL     1      -6.024  10.549  18.603  0.00  0.00    +0.000 OA
ATOM     14  N   UNL     1      -4.480  12.233  18.188  0.00  0.00    +0.000 N 
ATOM     15  H   UNL     1      -4.413  13.247  18.167  0.00  0.00    +0.000 HD
ENDBRANCH   5  14
ENDBRANCH   1   8
BRANCH   2  16
ATOM     16  C   UNL     1       3.097   8.161  18.178  0.00  0.00    +0.000 C 
BRANCH  16  17
ATOM     17  N   UNL     1       3.139   6.653  18.073  0.00  0.00    +0.000 N 
ATOM     18  C   UNL     1       4.324   6.346  17.381  0.00  0.00    +0.000 C 
ATOM     19  O   UNL     1       5.243   7.169  17.257  0.00  0.00    +0.000 OA
ATOM     20  C   UNL     1       4.423   5.064  16.610  0.00  0.00    +0.000 C 
ATOM     21  N   UNL     1       4.272   3.938  17.464  0.00  0.00    +0.000 N 
ATOM     22  C   UNL     1       5.022   3.938  18.747  0.00  0.00    +0.000 C 
ATOM     23  C   UNL     1       2.928   3.640  17.425  0.00  0.00    +0.000 C 
ATOM     24  O   UNL     1       2.382   3.011  16.511  0.00  0.00    +0.000 OA
ATOM     25  C   UNL     1       2.173   4.226  18.499  0.00  0.00    +0.000 A 
ATOM     26  C   UNL     1       1.562   3.160  19.236  0.00  0.00    +0.000 A 
ATOM     27  C   UNL     1       1.277   3.345  20.557  0.00  0.00    +0.000 A 
ATOM     28  C   UNL     1       1.520   4.619  21.083  0.00  0.00    +0.000 A 
ATOM     29  C   UNL     1       1.998   5.742  20.279  0.00  0.00    +0.000 A 
ATOM     30  C   UNL     1       2.375   5.591  18.924  0.00  0.00    +0.000 A 
ENDBRANCH  16  17
ENDBRANCH   2  16
TORSDOF 4
ENDMDL
MODEL 2
REMARK VINA RESULT:      -9.1      0.585      1.056
REMARK  Name = 
REMARK  6 active torsions:
REMARK  status: ('A' for Active; 'I' for Inactive)
REMARK    1  A    between atoms: C_1  and  C_2
REMARK    2  A    between atoms: N_4  and  C_5
REMARK    3  A    between atoms: C_8  and  N_9
REMARK    4  A    between atoms: C_10  and  C_12
REMARK    5  A    between atoms: C_12  and  N_13
REMARK    6  A    between atoms: N_17  and  C_18
REMARK                            x       y       z     vdW  Elec       q    Type
REMARK                         _______ _______ _______ _____ _____    ______ ____
ROOT
ATOM      1  N   UNL     1       0.859   9.552  17.636  0.00  0.00    +0.000 N 
ATOM      2  C   UNL     1       1.747   8.858  18.538  0.00  0.00    +0.000 C 
ATOM      3  O   UNL     1       1.494   8.801  19.743  0.00  0.00    +0.000 OA
ATOM      4  H   UNL     1       1.103   9.481  16.649  0.00  0.00    +0.000 HD
ENDROOT
BRANCH   1   8
ATOM      5  C   UNL     1      -3.089  11.499  18.491  0.00  0.00    +0.000 A 
ATOM      6  C   UNL     1      -1.878  12.053  18.918  0.00  0.00    +0.000 A 
ATOM      7  C   UNL     1      -0.589  11.439  18.640  0.00  0.00    +0.000 A 
ATOM      8  C   UNL     1      -0.440  10.247  17.913  0.00  0.00    +0.000 A 
ATOM      9  C   UNL     1      -1.673   9.728  17.448  0.00  0.00    +0.000 A 
ATOM     10  C   UNL     1      -2.972  10.334  17.745  0.00  0.00    +0.000 A 
BRANCH   5  14
ATOM     11  C   UNL     1      -6.621  13.081  18.501  0.00  0.00    +0.000 C 
ATOM     12  C   UNL     1      -5.411  12.383  17.906  0.00  0.00    +0.000 C 
ATOM     13  O   UNL     1      -5.369  12.175  16.696  0.00  0.00    +0.000 OA
ATOM     14  N   UNL     1      -4.395  12.031  18.798  0.00  0.00    +0.000 N 
ATOM     15  H   UNL     1      -4.632  12.137  19.782  0.00  0.00    +0.000 HD
ENDBRANCH   5  14
ENDBRANCH   1   8
BRANCH   2  16
ATOM     16  C   UNL     1       3.182   8.083  17.995  0.00  0.00    +0.000 C 
BRANCH  16  17
ATOM     17  N   UNL     1       3.181   6.572  17.960  0.00  0.00    +0.000 N 
ATOM     18  C   UNL     1       4.360   6.199  17.290  0.00  0.00    +0.000 C 
ATOM     19  O   UNL     1       5.303   6.988  17.134  0.00  0.00    +0.000 OA
ATOM     20  C   UNL     1       4.425   4.879  16.582  0.00  0.00    +0.000 C 
ATOM     21  N   UNL     1       4.238   3.800  17.486  0.00  0.00    +0.000 N 
ATOM     22  C   UNL     1       4.983   3.839  18.772  0.00  0.00    +0.000 C 
ATOM     23  C   UNL     1       2.886   3.539  17.454  0.00  0.00    +0.000 C 
ATOM     24  O   UNL     1       2.327   2.883  16.567  0.00  0.00    +0.000 OA
ATOM     25  C   UNL     1       2.144   4.197  18.495  0.00  0.00    +0.000 A 
ATOM     26  C   UNL     1       1.500   3.184  19.278  0.00  0.00    +0.000 A 
ATOM     27  C   UNL     1       1.214   3.439  20.587  0.00  0.00    +0.000 A 
ATOM     28  C   UNL     1       1.491   4.729  21.053  0.00  0.00    +0.000 A 
ATOM     29  C   UNL     1       2.005   5.799  20.201  0.00  0.00    +0.000 A 
ATOM     30  C   UNL     1       2.383   5.574  18.856  0.00  0.00    +0.000 A 
ENDBRANCH  16  17
ENDBRANCH   2  16
TORSDOF 4
ENDMDL
MODEL 3
REMARK VINA RESULT:      -8.9      2.682      3.019
REMARK  Name = 
REMARK  6 active torsions:
REMARK  status: ('A' for Active; 'I' for Inactive)
REMARK    1  A    between atoms: C_1  and  C_2
REMARK    2  A    between atoms: N_4  and  C_5
REMARK    3  A    between atoms: C_8  and  N_9
REMARK    4  A    between atoms: C_10  and  C_12
REMARK    5  A    between atoms: C_12  and  N_13
REMARK    6  A    between atoms: N_17  and  C_18
REMARK                            x       y       z     vdW  Elec       q    Type
REMARK                         _______ _______ _______ _____ _____    ______ ____
ROOT
ATOM      1  N   UNL     1       1.830   8.800  19.899  0.00  0.00    +0.000 N 
ATOM      2  C   UNL     1       1.936   8.674  18.464  0.00  0.00    +0.000 C 
ATOM      3  O   UNL     1       1.088   9.181  17.728  0.00  0.00    +0.000 OA
ATOM      4  H   UNL     1       2.616   8.420  20.425  0.00  0.00    +0.000 HD
ENDROOT
BRANCH   1   8
ATOM      5  C   UNL     1      -1.133  10.948  22.490  0.00  0.00    +0.000 A 
ATOM      6  C   UNL     1      -0.911  11.307  21.156  0.00  0.00    +0.000 A 
ATOM      7  C   UNL     1       0.039  10.614  20.300  0.00  0.00    +0.000 A 
ATOM      8  C   UNL     1       0.809   9.521  20.726  0.00  0.00    +0.000 A 
ATOM      9  C   UNL     1       0.535   9.141  22.063  0.00  0.00    +0.000 A 
ATOM     10  C   UNL     1      -0.405   9.851  22.931  0.00  0.00    +0.000 A 
BRANCH   5  14
ATOM     11  C   UNL     1      -3.816  13.126  24.232  0.00  0.00    +0.000 C 
ATOM     12  C   UNL     1      -3.183  12.343  23.095  0.00  0.00    +0.000 C 
ATOM     13  O   UNL     1      -3.704  12.365  21.983  0.00  0.00    +0.000 OA
ATOM     14  N   UNL     1      -2.011  11.644  23.398  0.00  0.00    +0.000 N 
ATOM     15  H   UNL     1      -1.780  11.603  24.388  0.00  0.00    +0.000 HD
ENDBRANCH   5  14
ENDBRANCH   1   8
BRANCH   2  16
ATOM     16  C   UNL     1       3.230   7.828  17.712  0.00  0.00    +0.000 C 
BRANCH  16  17
ATOM     17  N   UNL     1       3.210   6.318  17.798  0.00  0.00    +0.000 N 
ATOM     18  C   UNL     1       4.409   5.881  17.208  0.00  0.00    +0.000 C 
ATOM     19  O   UNL     1       5.368   6.646  17.026  0.00  0.00    +0.000 OA
ATOM     20  C   UNL     1       4.485   4.508  16.609  0.00  0.00    +0.000 C 
ATOM     21  N   UNL     1       4.248   3.506  17.589  0.00  0.00    +0.000 N 
ATOM     22  C   UNL     1       4.943   3.641  18.897  0.00  0.00    +0.000 C 
ATOM     23  C   UNL     1       2.896   3.258  17.524  0.00  0.00    +0.000 C 
ATOM     24  O   UNL     1       2.363   2.538  16.670  0.00  0.00    +0.000 OA
ATOM     25  C   UNL     1       2.122   4.004  18.478  0.00  0.00    +0.000 A 
ATOM     26  C   UNL     1       1.434   3.063  19.312  0.00  0.00    +0.000 A 
ATOM     27  C   UNL     1       1.101   3.425  20.585  0.00  0.00    +0.000 A 
ATOM     28  C   UNL     1       1.377   4.746  20.958  0.00  0.00    +0.000 A 
ATOM     29  C   UNL     1       1.937   5.739  20.044  0.00  0.00    +0.000 A 
ATOM     30  C   UNL     1       2.365   5.403  18.738  0.00  0.00    +0.000 A 
ENDBRANCH  16  17
ENDBRANCH   2  16
TORSDOF 4
ENDMDL
MODEL 4
REMARK VINA RESULT:      -8.7      1.114      1.405
REMARK  Name = 
REMARK  6 active torsions:
REMARK  status: ('A' for Active; 'I' for Inactive)
REMARK    1  A    between atoms: C_1  and  C_2
REMARK    2  A    between atoms: N_4  and  C_5
REMARK    3  A    between atoms: C_8  and  N_9
REMARK    4  A    between atoms: C_10  and  C_12
REMARK    5  A    between atoms: C_12  and  N_13
REMARK    6  A    between atoms: N_17  and  C_18
REMARK                            x       y       z     vdW  Elec       q    Type
REMARK                         _______ _______ _______ _____ _____    ______ ____
ROOT
ATOM      1  N   UNL     1       1.065   9.793  17.802  0.00  0.00    +0.000 N 
ATOM      2  C   UNL     1       1.819   8.881  18.631  0.00  0.00    +0.000 C 
ATOM      3  O   UNL     1       1.451   8.634  19.781  0.00  0.00    +0.000 OA
ATOM      4  H   UNL     1       1.395   9.877  16.841  0.00  0.00    +0.000 HD
ENDROOT
BRANCH   1   8
ATOM      5  C   UNL     1      -2.795  11.874  18.739  0.00  0.00    +0.000 A 
ATOM      6  C   UNL     1      -1.553  12.493  18.915  0.00  0.00    +0.000 A 
ATOM      7  C   UNL     1      -0.293  11.835  18.607  0.00  0.00    +0.000 A 
ATOM      8  C   UNL     1      -0.206  10.530  18.096  0.00  0.00    +0.000 A 
ATOM      9  C   UNL     1      -1.474   9.938  17.879  0.00  0.00    +0.000 A 
ATOM     10  C   UNL     1      -2.742  10.592  18.208  0.00  0.00    +0.000 A 
BRANCH   5  14
ATOM     11  C   UNL     1      -6.003  13.193  20.454  0.00  0.00    +0.000 C 
ATOM     12  C   UNL     1      -4.556  12.739  20.371  0.00  0.00    +0.000 C 
ATOM     13  O   UNL     1      -3.898  12.628  21.402  0.00  0.00    +0.000 OA
ATOM     14  N   UNL     1      -4.066  12.456  19.093  0.00  0.00    +0.000 N 
ATOM     15  H   UNL     1      -4.679  12.730  18.328  0.00  0.00    +0.000 HD
ENDBRANCH   5  14
ENDBRANCH   1   8
BRANCH   2  16
ATOM     16  C   UNL     1       3.245   8.101  18.073  0.00  0.00    +0.000 C 
BRANCH  16  17
ATOM     17  N   UNL     1       3.222   6.591  17.998  0.00  0.00    +0.000 N 
ATOM     18  C   UNL     1       4.401   6.219  17.326  0.00  0.00    +0.000 C 
ATOM     19  O   UNL     1       5.356   6.999  17.198  0.00  0.00    +0.000 OA
ATOM     20  C   UNL     1       4.453   4.919  16.583  0.00  0.00    +0.000 C 
ATOM     21  N   UNL     1       4.244   3.818  17.457  0.00  0.00    +0.000 N 
ATOM     22  C   UNL     1       4.979   3.812  18.749  0.00  0.00    +0.000 C 
ATOM     23  C   UNL     1       2.889   3.578  17.408  0.00  0.00    +0.000 C 
ATOM     24  O   UNL     1       2.327   2.954  16.499  0.00  0.00    +0.000 OA
ATOM     25  C   UNL     1       2.148   4.218  18.461  0.00  0.00    +0.000 A 
ATOM     26  C   UNL     1       1.484   3.194  19.211  0.00  0.00    +0.000 A 
ATOM     27  C   UNL     1       1.192   3.418  20.525  0.00  0.00    +0.000 A 
ATOM     28  C   UNL     1       1.484   4.691  21.028  0.00  0.00    +0.000 A 
ATOM     29  C   UNL     1       2.018   5.776  20.208  0.00  0.00    +0.000 A 
ATOM     30  C   UNL     1       2.404   5.581  18.861  0.00  0.00    +0.000 A 
ENDBRANCH  16  17
ENDBRANCH   2  16
TORSDOF 4
ENDMDL
MODEL 5
REMARK VINA RESULT:      -8.7      3.231      3.731
REMARK  Name = 
REMARK  6 active torsions:
REMARK  status: ('A' for Active; 'I' for Inactive)
REMARK    1  A    between atoms: C_1  and  C_2
REMARK    2  A    between atoms: N_4  and  C_5
REMARK    3  A    between atoms: C_8  and  N_9
REMARK    4  A    between atoms: C_10  and  C_12
REMARK    5  A    between atoms: C_12  and  N_13
REMARK    6  A    between atoms: N_17  and  C_18
REMARK                            x       y       z     vdW  Elec       q    Type
REMARK                         _______ _______ _______ _____ _____    ______ ____
ROOT
ATOM      1  N   UNL     1       1.861   7.782  19.980  0.00  0.00    +0.000 N 
ATOM      2  C   UNL     1       2.503   7.750  18.687  0.00  0.00    +0.000 C 
ATOM      3  O   UNL     1       2.356   8.681  17.893  0.00  0.00    +0.000 OA
ATOM      4  H   UNL     1       2.102   7.011  20.601  0.00  0.00    +0.000 HD
ENDROOT
BRANCH   1   8
ATOM      5  C   UNL     1      -0.607  10.975  21.935  0.00  0.00    +0.000 A 
ATOM      6  C   UNL     1      -0.517  10.849  20.545  0.00  0.00    +0.000 A 
ATOM      7  C   UNL     1       0.271   9.813  19.896  0.00  0.00    +0.000 A 
ATOM      8  C   UNL     1       1.002   8.842  20.598  0.00  0.00    +0.000 A 
ATOM      9  C   UNL     1       0.859   8.955  22.003  0.00  0.00    +0.000 A 
ATOM     10  C   UNL     1       0.083  10.010  22.657  0.00  0.00    +0.000 A 
BRANCH   5  14
ATOM     11  C   UNL     1      -1.769  14.152  23.814  0.00  0.00    +0.000 C 
ATOM     12  C   UNL     1      -0.871  13.314  22.921  0.00  0.00    +0.000 C 
ATOM     13  O   UNL     1       0.188  13.787  22.516  0.00  0.00    +0.000 OA
ATOM     14  N   UNL     1      -1.317  12.023  22.626  0.00  0.00    +0.000 N 
ATOM     15  H   UNL     1      -2.273  11.823  22.912  0.00  0.00    +0.000 HD
ENDBRANCH   5  14
ENDBRANCH   1   8
BRANCH   2  16
ATOM     16  C   UNL     1       3.495   6.437  18.188  0.00  0.00    +0.000 C 
BRANCH  16  17
ATOM     17  N   UNL     1       2.933   5.044  18.359  0.00  0.00    +0.000 N 
ATOM     18  C   UNL     1       3.425   4.292  17.276  0.00  0.00    +0.000 C 
ATOM     19  O   UNL     1       4.390   4.674  16.599  0.00  0.00    +0.000 OA
ATOM     20  C   UNL     1       2.664   3.092  16.800  0.00  0.00    +0.000 C 
ATOM     21  N   UNL     1       2.556   2.111  17.822  0.00  0.00    +0.000 N 
ATOM     22  C   UNL     1       3.781   1.788  18.601  0.00  0.00    +0.000 C 
ATOM     23  C   UNL     1       1.363   2.385  18.453  0.00  0.00    +0.000 C 
ATOM     24  O   UNL     1       0.255   2.045  18.021  0.00  0.00    +0.000 OA
ATOM     25  C   UNL     1       1.501   3.211  19.622  0.00  0.00    +0.000 A 
ATOM     26  C   UNL     1       0.993   2.473  20.740  0.00  0.00    +0.000 A 
ATOM     27  C   UNL     1       1.481   2.738  21.986  0.00  0.00    +0.000 A 
ATOM     28  C   UNL     1       2.390   3.796  22.096  0.00  0.00    +0.000 A 
ATOM     29  C   UNL     1       2.780   4.641  20.970  0.00  0.00    +0.000 A 
ATOM     30  C   UNL     1       2.361   4.370  19.646  0.00  0.00    +0.000 A 
ENDBRANCH  16  17
ENDBRANCH   2  16
TORSDOF 4
ENDMDL
MODEL 6
REMARK VINA RESULT:      -8.6      0.891      1.256
REMARK  Name = 
REMARK  6 active torsions:
REMARK  status: ('A' for Active; 'I' for Inactive)
REMARK    1  A    between atoms: C_1  and  C_2
REMARK    2  A    between atoms: N_4  and  C_5
REMARK    3  A    between atoms: C_8  and  N_9
REMARK    4  A    between atoms: C_10  and  C_12
REMARK    5  A    between atoms: C_12  and  N_13
REMARK    6  A    between atoms: N_17  and  C_18
REMARK                            x       y       z     vdW  Elec       q    Type
REMARK                         _______ _______ _______ _____ _____    ______ ____
ROOT
ATOM      1  N   UNL     1       0.953   9.152  18.999  0.00  0.00    +0.000 N 
ATOM      2  C   UNL     1       2.066   8.871  18.123  0.00  0.00    +0.000 C 
ATOM      3  O   UNL     1       2.097   9.337  16.983  0.00  0.00    +0.000 OA
ATOM      4  H   UNL     1       1.048   8.793  19.949  0.00  0.00    +0.000 HD
ENDROOT
BRANCH   1   8
ATOM      5  C   UNL     1      -2.748  11.579  18.278  0.00  0.00    +0.000 A 
ATOM      6  C   UNL     1      -1.852  11.876  19.311  0.00  0.00    +0.000 A 
ATOM      7  C   UNL     1      -0.643  11.104  19.552  0.00  0.00    +0.000 A 
ATOM      8  C   UNL     1      -0.258  10.004  18.769  0.00  0.00    +0.000 A 
ATOM      9  C   UNL     1      -1.151   9.750  17.699  0.00  0.00    +0.000 A 
ATOM     10  C   UNL     1      -2.379  10.513  17.469  0.00  0.00    +0.000 A 
BRANCH   5  14
ATOM     11  C   UNL     1      -6.374  12.929  18.234  0.00  0.00    +0.000 C 
ATOM     12  C   UNL     1      -5.153  12.242  18.818  0.00  0.00    +0.000 C 
ATOM     13  O   UNL     1      -5.235  11.692  19.913  0.00  0.00    +0.000 OA
ATOM     14  N   UNL     1      -3.992  12.269  18.040  0.00  0.00    +0.000 N 
ATOM     15  H   UNL     1      -4.035  12.880  17.227  0.00  0.00    +0.000 HD
ENDBRANCH   5  14
ENDBRANCH   1   8
BRANCH   2  16
ATOM     16  C   UNL     1       3.390   7.889  18.611  0.00  0.00    +0.000 C 
BRANCH  16  17
ATOM     17  N   UNL     1       3.282   6.403  18.349  0.00  0.00    +0.000 N 
ATOM     18  C   UNL     1       4.447   6.048  17.646  0.00  0.00    +0.000 C 
ATOM     19  O   UNL     1       5.447   6.780  17.622  0.00  0.00    +0.000 OA
ATOM     20  C   UNL     1       4.435   4.848  16.747  0.00  0.00    +0.000 C 
ATOM     21  N   UNL     1       4.150   3.663  17.476  0.00  0.00    +0.000 N 
ATOM     22  C   UNL     1       4.865   3.454  18.763  0.00  0.00    +0.000 C 
ATOM     23  C   UNL     1       2.784   3.510  17.388  0.00  0.00    +0.000 C 
ATOM     24  O   UNL     1       2.200   3.038  16.405  0.00  0.00    +0.000 OA
ATOM     25  C   UNL     1       2.066   4.058  18.506  0.00  0.00    +0.000 A 
ATOM     26  C   UNL     1       1.333   2.990  19.119  0.00  0.00    +0.000 A 
ATOM     27  C   UNL     1       1.035   3.067  20.448  0.00  0.00    +0.000 A 
ATOM     28  C   UNL     1       1.393   4.249  21.107  0.00  0.00    +0.000 A 
ATOM     29  C   UNL     1       2.001   5.393  20.432  0.00  0.00    +0.000 A 
ATOM     30  C   UNL     1       2.394   5.344  19.074  0.00  0.00    +0.000 A 
ENDBRANCH  16  17
ENDBRANCH   2  16
TORSDOF 4
ENDMDL
MODEL 7
REMARK VINA RESULT:      -8.5      2.172      2.413
REMARK  Name = 
REMARK  6 active torsions:
REMARK  status: ('A' for Active; 'I' for Inactive)
REMARK    1  A    between atoms: C_1  and  C_2
REMARK    2  A    between atoms: N_4  and  C_5
REMARK    3  A    between atoms: C_8  and  N_9
REMARK    4  A    between atoms: C_10  and  C_12
REMARK    5  A    between atoms: C_12  and  N_13
REMARK    6  A    between atoms: N_17  and  C_18
REMARK                            x       y       z     vdW  Elec       q    Type
REMARK                         _______ _______ _______ _____ _____    ______ ____
ROOT
ATOM      1  N   UNL     1       1.793   9.191  19.452  0.00  0.00    +0.000 N 
ATOM      2  C   UNL     1       2.188   8.808  18.117  0.00  0.00    +0.000 C 
ATOM      3  O   UNL     1       1.526   9.167  17.142  0.00  0.00    +0.000 OA
ATOM      4  H   UNL     1       2.441   8.918  20.190  0.00  0.00    +0.000 HD
ENDROOT
BRANCH   1   8
ATOM      5  C   UNL     1      -1.537  11.845  20.856  0.00  0.00    +0.000 A 
ATOM      6  C   UNL     1      -1.620  11.112  19.668  0.00  0.00    +0.000 A 
ATOM      7  C   UNL     1      -0.552  10.240  19.204  0.00  0.00    +0.000 A 
ATOM      8  C   UNL     1       0.648  10.044  19.906  0.00  0.00    +0.000 A 
ATOM      9  C   UNL     1       0.692  10.756  21.130  0.00  0.00    +0.000 A 
ATOM     10  C   UNL     1      -0.372  11.650  21.587  0.00  0.00    +0.000 A 
BRANCH   5  14
ATOM     11  C   UNL     1      -4.419  13.722  22.632  0.00  0.00    +0.000 C 
ATOM     12  C   UNL     1      -3.324  12.681  22.477  0.00  0.00    +0.000 C 
ATOM     13  O   UNL     1      -3.188  11.814  23.336  0.00  0.00    +0.000 OA
ATOM     14  N   UNL     1      -2.536  12.775  21.326  0.00  0.00    +0.000 N 
ATOM     15  H   UNL     1      -2.672  13.622  20.781  0.00  0.00    +0.000 HD
ENDBRANCH   5  14
ENDBRANCH   1   8
BRANCH   2  16
ATOM     16  C   UNL     1       3.581   7.846  17.814  0.00  0.00    +0.000 C 
BRANCH  16  17
ATOM     17  N   UNL     1       3.407   6.345  17.859  0.00  0.00    +0.000 N 
ATOM     18  C   UNL     1       4.543   5.804  17.231  0.00  0.00    +0.000 C 
ATOM     19  O   UNL     1       5.572   6.472  17.050  0.00  0.00    +0.000 OA
ATOM     20  C   UNL     1       4.465   4.449  16.595  0.00  0.00    +0.000 C 
ATOM     21  N   UNL     1       4.145   3.449  17.551  0.00  0.00    +0.000 N 
ATOM     22  C   UNL     1       4.874   3.473  18.847  0.00  0.00    +0.000 C 
ATOM     23  C   UNL     1       2.773   3.342  17.509  0.00  0.00    +0.000 C 
ATOM     24  O   UNL     1       2.153   2.706  16.647  0.00  0.00    +0.000 OA
ATOM     25  C   UNL     1       2.098   4.135  18.500  0.00  0.00    +0.000 A 
ATOM     26  C   UNL     1       1.333   3.246  19.323  0.00  0.00    +0.000 A 
ATOM     27  C   UNL     1       1.063   3.603  20.612  0.00  0.00    +0.000 A 
ATOM     28  C   UNL     1       1.481   4.877  21.014  0.00  0.00    +0.000 A 
ATOM     29  C   UNL     1       2.123   5.833  20.116  0.00  0.00    +0.000 A 
ATOM     30  C   UNL     1       2.490   5.494  18.792  0.00  0.00    +0.000 A 
ENDBRANCH  16  17
ENDBRANCH   2  16
TORSDOF 4
ENDMDL
MODEL 8
REMARK VINA RESULT:      -8.4      7.017     11.160
REMARK  Name = 
REMARK  6 active torsions:
REMARK  status: ('A' for Active; 'I' for Inactive)
REMARK    1  A    between atoms: C_1  and  C_2
REMARK    2  A    between atoms: N_4  and  C_5
REMARK    3  A    between atoms: C_8  and  N_9
REMARK    4  A    between atoms: C_10  and  C_12
REMARK    5  A    between atoms: C_12  and  N_13
REMARK    6  A    between atoms: N_17  and  C_18
REMARK                            x       y       z     vdW  Elec       q    Type
REMARK                         _______ _______ _______ _____ _____    ______ ____
ROOT
ATOM      1  N   UNL     1       8.199   9.048  17.413  0.00  0.00    +0.000 N 
ATOM      2  C   UNL     1       8.915   9.927  18.307  0.00  0.00    +0.000 C 
ATOM      3  O   UNL     1       9.050   9.633  19.496  0.00  0.00    +0.000 OA
ATOM      4  H   UNL     1       8.205   9.329  16.433  0.00  0.00    +0.000 HD
ENDROOT
BRANCH   1   8
ATOM      5  C   UNL     1       6.328   5.084  18.358  0.00  0.00    +0.000 A 
ATOM      6  C   UNL     1       5.790   5.953  17.403  0.00  0.00    +0.000 A 
ATOM      7  C   UNL     1       6.390   7.238  17.079  0.00  0.00    +0.000 A 
ATOM      8  C   UNL     1       7.564   7.717  17.681  0.00  0.00    +0.000 A 
ATOM      9  C   UNL     1       8.121   6.802  18.608  0.00  0.00    +0.000 A 
ATOM     10  C   UNL     1       7.506   5.519  18.950  0.00  0.00    +0.000 A 
BRANCH   5  14
ATOM     11  C   UNL     1       4.242   2.214  19.903  0.00  0.00    +0.000 C 
ATOM     12  C   UNL     1       4.535   3.634  19.454  0.00  0.00    +0.000 C 
ATOM     13  O   UNL     1       3.737   4.529  19.720  0.00  0.00    +0.000 OA
ATOM     14  N   UNL     1       5.735   3.833  18.764  0.00  0.00    +0.000 N 
ATOM     15  H   UNL     1       6.221   2.981  18.495  0.00  0.00    +0.000 HD
ENDBRANCH   5  14
ENDBRANCH   1   8
BRANCH   2  16
ATOM     16  C   UNL     1       9.611  11.407  17.775  0.00  0.00    +0.000 C 
BRANCH  16  17
ATOM     17  N   UNL     1       9.448  12.610  18.676  0.00  0.00    +0.000 N 
ATOM     18  C   UNL     1      10.745  12.961  19.091  0.00  0.00    +0.000 C 
ATOM     19  O   UNL     1      11.755  12.550  18.503  0.00  0.00    +0.000 OA
ATOM     20  C   UNL     1      10.936  13.698  20.383  0.00  0.00    +0.000 C 
ATOM     21  N   UNL     1      10.276  14.956  20.360  0.00  0.00    +0.000 N 
ATOM     22  C   UNL     1      10.438  15.800  19.147  0.00  0.00    +0.000 C 
ATOM     23  C   UNL     1       9.032  14.715  20.898  0.00  0.00    +0.000 C 
ATOM     24  O   UNL     1       8.806  14.626  22.111  0.00  0.00    +0.000 OA
ATOM     25  C   UNL     1       8.015  14.458  19.915  0.00  0.00    +0.000 A 
ATOM     26  C   UNL     1       6.997  15.454  20.071  0.00  0.00    +0.000 A 
ATOM     27  C   UNL     1       6.239  15.802  18.991  0.00  0.00    +0.000 A 
ATOM     28  C   UNL     1       6.453  15.080  17.811  0.00  0.00    +0.000 A 
ATOM     29  C   UNL     1       7.387  13.961  17.712  0.00  0.00    +0.000 A 
ATOM     30  C   UNL     1       8.246  13.601  18.777  0.00  0.00    +0.000 A 
ENDBRANCH  16  17
ENDBRANCH   2  16
TORSDOF 4
ENDMDL
MODEL 9
REMARK VINA RESULT:      -8.3      2.249      2.468
REMARK  Name = 
REMARK  6 active torsions:
REMARK  status: ('A' for Active; 'I' for Inactive)
REMARK    1  A    between atoms: C_1  and  C_2
REMARK    2  A    between atoms: N_4  and  C_5
REMARK    3  A    between atoms: C_8  and  N_9
REMARK    4  A    between atoms: C_10  and  C_12
REMARK    5  A    between atoms: C_12  and  N_13
REMARK    6  A    between atoms: N_17  and  C_18
REMARK                            x       y       z     vdW  Elec       q    Type
REMARK                         _______ _______ _______ _____ _____    ______ ____
ROOT
ATOM      1  N   UNL     1       1.854   8.862  19.361  0.00  0.00    +0.000 N 
ATOM      2  C   UNL     1       2.432   8.634  18.057  0.00  0.00    +0.000 C 
ATOM      3  O   UNL     1       1.961   9.186  17.061  0.00  0.00    +0.000 OA
ATOM      4  H   UNL     1       2.355   8.430  20.137  0.00  0.00    +0.000 HD
ENDROOT
BRANCH   1   8
ATOM      5  C   UNL     1      -1.471  11.579  20.650  0.00  0.00    +0.000 A 
ATOM      6  C   UNL     1      -1.366  11.100  19.341  0.00  0.00    +0.000 A 
ATOM      7  C   UNL     1      -0.299  10.211  18.909  0.00  0.00    +0.000 A 
ATOM      8  C   UNL     1       0.712   9.744  19.764  0.00  0.00    +0.000 A 
ATOM      9  C   UNL     1       0.561  10.200  21.097  0.00  0.00    +0.000 A 
ATOM     10  C   UNL     1      -0.501  11.112  21.526  0.00  0.00    +0.000 A 
BRANCH   5  14
ATOM     11  C   UNL     1      -3.556  14.655  21.734  0.00  0.00    +0.000 C 
ATOM     12  C   UNL     1      -2.453  13.909  21.004  0.00  0.00    +0.000 C 
ATOM     13  O   UNL     1      -1.606  14.543  20.380  0.00  0.00    +0.000 OA
ATOM     14  N   UNL     1      -2.468  12.515  21.111  0.00  0.00    +0.000 N 
ATOM     15  H   UNL     1      -3.305  12.127  21.538  0.00  0.00    +0.000 HD
ENDBRANCH   5  14
ENDBRANCH   1   8
BRANCH   2  16
ATOM     16  C   UNL     1       3.786   7.602  17.823  0.00  0.00    +0.000 C 
BRANCH  16  17
ATOM     17  N   UNL     1       3.537   6.112  17.883  0.00  0.00    +0.000 N 
ATOM     18  C   UNL     1       4.657   5.507  17.283  0.00  0.00    +0.000 C 
ATOM     19  O   UNL     1       5.720   6.121  17.113  0.00  0.00    +0.000 OA
ATOM     20  C   UNL     1       4.524   4.150  16.661  0.00  0.00    +0.000 C 
ATOM     21  N   UNL     1       4.137   3.179  17.623  0.00  0.00    +0.000 N 
ATOM     22  C   UNL     1       4.842   3.183  18.932  0.00  0.00    +0.000 C 
ATOM     23  C   UNL     1       2.762   3.139  17.556  0.00  0.00    +0.000 C 
ATOM     24  O   UNL     1       2.127   2.524  16.691  0.00  0.00    +0.000 OA
ATOM     25  C   UNL     1       2.109   3.978  18.524  0.00  0.00    +0.000 A 
ATOM     26  C   UNL     1       1.286   3.138  19.344  0.00  0.00    +0.000 A 
ATOM     27  C   UNL     1       1.011   3.524  20.623  0.00  0.00    +0.000 A 
ATOM     28  C   UNL     1       1.484   4.781  21.018  0.00  0.00    +0.000 A 
ATOM     29  C   UNL     1       2.189   5.693  20.121  0.00  0.00    +0.000 A 
ATOM     30  C   UNL     1       2.562   5.319  18.808  0.00  0.00    +0.000 A 
ENDBRANCH  16  17
ENDBRANCH   2  16
TORSDOF 4
ENDMDL
