MODEL 1
REMARK VINA RESULT:      -7.4      0.000      0.000
REMARK  Name = 
REMARK  6 active torsions:
REMARK  status: ('A' for Active; 'I' for Inactive)
REMARK    1  A    between atoms: C_1  and  O_2
REMARK    2  A    between atoms: O_2  and  C_3
REMARK    3  A    between atoms: C_6  and  O_7
REMARK    4  A    between atoms: O_7  and  C_8
REMARK    5  A    between atoms: C_15  and  C_16
REMARK    6  A    between atoms: C_16  and  N_17
REMARK                            x       y       z     vdW  Elec       q    Type
REMARK                         _______ _______ _______ _____ _____    ______ ____
ROOT
ATOM      1  C   UNL     1       6.274   5.971  17.327  0.00  0.00    +0.000 A 
ATOM      2  C   UNL     1       6.242   5.590  18.667  0.00  0.00    +0.000 A 
ATOM      3  C   UNL     1       5.508   4.459  19.055  0.00  0.00    +0.000 A 
ATOM      4  C   UNL     1       4.758   3.746  18.115  0.00  0.00    +0.000 A 
ATOM      5  C   UNL     1       4.900   4.049  16.757  0.00  0.00    +0.000 A 
ATOM      6  C   UNL     1       5.684   5.151  16.348  0.00  0.00    +0.000 A 
ENDROOT
BRANCH   1   8
ATOM      7  C   UNL     1       7.699   7.919  17.584  0.00  0.00    +0.000 C 
ATOM      8  O   UNL     1       6.832   7.108  16.821  0.00  0.00    +0.000 OA
ENDBRANCH   1   8
BRANCH   4   9
ATOM      9  O   UNL     1       3.910   2.711  18.459  0.00  0.00    +0.000 OA
BRANCH   9  10
ATOM     10  C   UNL     1       3.098   2.849  19.563  0.00  0.00    +0.000 A 
ATOM     11  C   UNL     1       1.867   3.484  19.388  0.00  0.00    +0.000 A 
ATOM     12  C   UNL     1       0.988   3.611  20.466  0.00  0.00    +0.000 A 
ATOM     13  C   UNL     1       1.380   3.112  21.699  0.00  0.00    +0.000 A 
ATOM     14  N   UNL     1       2.586   2.546  21.923  0.00  0.00    +0.000 NA
ATOM     15  C   UNL     1       3.423   2.453  20.859  0.00  0.00    +0.000 A 
ENDBRANCH   9  10
ENDBRANCH   4   9
BRANCH   6  16
ATOM     16  C   UNL     1       5.880   5.479  14.877  0.00  0.00    +0.000 C 
BRANCH  16  17
ATOM     17  N   UNL     1       6.809   4.606  14.129  0.00  0.00    +0.000 NA
ATOM     18  C   UNL     1       7.682   5.251  13.147  0.00  0.00    +0.000 C 
ATOM     19  C   UNL     1       7.455   4.622  11.786  0.00  0.00    +0.000 C 
ATOM     20  C   UNL     1       6.505   3.471  12.001  0.00  0.00    +0.000 C 
ATOM     21  C   UNL     1       6.072   3.529  13.456  0.00  0.00    +0.000 C 
ENDBRANCH  16  17
ENDBRANCH   6  16
TORSDOF 5
ENDMDL
MODEL 2
REMARK VINA RESULT:      -7.2      1.740      6.791
REMARK  Name = 
REMARK  6 active torsions:
REMARK  status: ('A' for Active; 'I' for Inactive)
REMARK    1  A    between atoms: C_1  and  O_2
REMARK    2  A    between atoms: O_2  and  C_3
REMARK    3  A    between atoms: C_6  and  O_7
REMARK    4  A    between atoms: O_7  and  C_8
REMARK    5  A    between atoms: C_15  and  C_16
REMARK    6  A    between atoms: C_16  and  N_17
REMARK                            x       y       z     vdW  Elec       q    Type
REMARK                         _______ _______ _______ _____ _____    ______ ____
ROOT
ATOM      1  C   UNL     1       4.257   5.830  18.522  0.00  0.00    +0.000 A 
ATOM      2  C   UNL     1       4.366   6.815  17.542  0.00  0.00    +0.000 A 
ATOM      3  C   UNL     1       5.303   6.674  16.509  0.00  0.00    +0.000 A 
ATOM      4  C   UNL     1       6.173   5.580  16.487  0.00  0.00    +0.000 A 
ATOM      5  C   UNL     1       5.971   4.530  17.389  0.00  0.00    +0.000 A 
ATOM      6  C   UNL     1       4.990   4.634  18.401  0.00  0.00    +0.000 A 
ENDROOT
BRANCH   1   8
ATOM      7  C   UNL     1       2.352   6.713  19.736  0.00  0.00    +0.000 C 
ATOM      8  O   UNL     1       3.492   5.887  19.648  0.00  0.00    +0.000 OA
ENDBRANCH   1   8
BRANCH   4   9
ATOM      9  O   UNL     1       7.204   5.457  15.575  0.00  0.00    +0.000 OA
BRANCH   9  10
ATOM     10  C   UNL     1       6.952   4.869  14.355  0.00  0.00    +0.000 A 
ATOM     11  C   UNL     1       7.763   5.236  13.278  0.00  0.00    +0.000 A 
ATOM     12  C   UNL     1       7.576   4.638  12.030  0.00  0.00    +0.000 A 
ATOM     13  C   UNL     1       6.565   3.699  11.893  0.00  0.00    +0.000 A 
ATOM     14  N   UNL     1       5.722   3.362  12.892  0.00  0.00    +0.000 NA
ATOM     15  C   UNL     1       5.918   3.974  14.087  0.00  0.00    +0.000 A 
ENDBRANCH   9  10
ENDBRANCH   4   9
BRANCH   6  16
ATOM     16  C   UNL     1       4.731   3.494  19.371  0.00  0.00    +0.000 C 
BRANCH  16  17
ATOM     17  N   UNL     1       3.562   2.638  19.080  0.00  0.00    +0.000 NA
ATOM     18  C   UNL     1       2.810   2.933  17.859  0.00  0.00    +0.000 C 
ATOM     19  C   UNL     1       1.362   3.204  18.217  0.00  0.00    +0.000 C 
ATOM     20  C   UNL     1       1.228   2.929  19.694  0.00  0.00    +0.000 C 
ATOM     21  C   UNL     1       2.627   2.643  20.212  0.00  0.00    +0.000 C 
ENDBRANCH  16  17
ENDBRANCH   6  16
TORSDOF 5
ENDMDL
MODEL 3
REMARK VINA RESULT:      -7.2      1.748      6.737
REMARK  Name = 
REMARK  6 active torsions:
REMARK  status: ('A' for Active; 'I' for Inactive)
REMARK    1  A    between atoms: C_1  and  O_2
REMARK    2  A    between atoms: O_2  and  C_3
REMARK    3  A    between atoms: C_6  and  O_7
REMARK    4  A    between atoms: O_7  and  C_8
REMARK    5  A    between atoms: C_15  and  C_16
REMARK    6  A    between atoms: C_16  and  N_17
REMARK                            x       y       z     vdW  Elec       q    Type
REMARK                         _______ _______ _______ _____ _____    ______ ____
ROOT
ATOM      1  C   UNL     1       4.351   5.867  18.491  0.00  0.00    +0.000 A 
ATOM      2  C   UNL     1       4.476   6.856  17.517  0.00  0.00    +0.000 A 
ATOM      3  C   UNL     1       5.403   6.700  16.477  0.00  0.00    +0.000 A 
ATOM      4  C   UNL     1       6.248   5.587  16.443  0.00  0.00    +0.000 A 
ATOM      5  C   UNL     1       6.029   4.536  17.341  0.00  0.00    +0.000 A 
ATOM      6  C   UNL     1       5.056   4.657  18.359  0.00  0.00    +0.000 A 
ENDROOT
BRANCH   1   8
ATOM      7  C   UNL     1       2.296   6.488  19.621  0.00  0.00    +0.000 C 
ATOM      8  O   UNL     1       3.594   5.935  19.622  0.00  0.00    +0.000 OA
ENDBRANCH   1   8
BRANCH   4   9
ATOM      9  O   UNL     1       7.271   5.446  15.524  0.00  0.00    +0.000 OA
BRANCH   9  10
ATOM     10  C   UNL     1       7.002   4.857  14.309  0.00  0.00    +0.000 A 
ATOM     11  C   UNL     1       5.951   3.939  14.251  0.00  0.00    +0.000 A 
ATOM     12  C   UNL     1       5.611   3.346  13.033  0.00  0.00    +0.000 A 
ATOM     13  C   UNL     1       6.349   3.678  11.908  0.00  0.00    +0.000 A 
ATOM     14  N   UNL     1       7.409   4.514  11.934  0.00  0.00    +0.000 NA
ATOM     15  C   UNL     1       7.726   5.060  13.135  0.00  0.00    +0.000 A 
ENDBRANCH   9  10
ENDBRANCH   4   9
BRANCH   6  16
ATOM     16  C   UNL     1       4.778   3.517  19.324  0.00  0.00    +0.000 C 
BRANCH  16  17
ATOM     17  N   UNL     1       3.626   2.650  19.000  0.00  0.00    +0.000 NA
ATOM     18  C   UNL     1       2.876   2.968  17.784  0.00  0.00    +0.000 C 
ATOM     19  C   UNL     1       1.421   3.202  18.141  0.00  0.00    +0.000 C 
ATOM     20  C   UNL     1       1.284   2.881  19.608  0.00  0.00    +0.000 C 
ATOM     21  C   UNL     1       2.685   2.603  20.126  0.00  0.00    +0.000 C 
ENDBRANCH  16  17
ENDBRANCH   6  16
TORSDOF 5
ENDMDL
MODEL 4
REMARK VINA RESULT:      -7.2      0.589      1.025
REMARK  Name = 
REMARK  6 active torsions:
REMARK  status: ('A' for Active; 'I' for Inactive)
REMARK    1  A    between atoms: C_1  and  O_2
REMARK    2  A    between atoms: O_2  and  C_3
REMARK    3  A    between atoms: C_6  and  O_7
REMARK    4  A    between atoms: O_7  and  C_8
REMARK    5  A    between atoms: C_15  and  C_16
REMARK    6  A    between atoms: C_16  and  N_17
REMARK                            x       y       z     vdW  Elec       q    Type
REMARK                         _______ _______ _______ _____ _____    ______ ____
ROOT
ATOM      1  C   UNL     1       6.643   5.974  17.399  0.00  0.00    +0.000 A 
ATOM      2  C   UNL     1       5.982   5.984  18.626  0.00  0.00    +0.000 A 
ATOM      3  C   UNL     1       5.069   4.967  18.937  0.00  0.00    +0.000 A 
ATOM      4  C   UNL     1       4.770   3.973  18.001  0.00  0.00    +0.000 A 
ATOM      5  C   UNL     1       5.532   3.888  16.830  0.00  0.00    +0.000 A 
ATOM      6  C   UNL     1       6.497   4.876  16.531  0.00  0.00    +0.000 A 
ENDROOT
BRANCH   1   8
ATOM      7  C   UNL     1       7.794   8.093  17.664  0.00  0.00    +0.000 C 
ATOM      8  O   UNL     1       7.454   6.953  16.906  0.00  0.00    +0.000 OA
ENDBRANCH   1   8
BRANCH   4   9
ATOM      9  O   UNL     1       3.782   3.027  18.197  0.00  0.00    +0.000 OA
BRANCH   9  10
ATOM     10  C   UNL     1       3.078   3.030  19.381  0.00  0.00    +0.000 A 
ATOM     11  C   UNL     1       1.803   3.602  19.375  0.00  0.00    +0.000 A 
ATOM     12  C   UNL     1       1.031   3.592  20.539  0.00  0.00    +0.000 A 
ATOM     13  C   UNL     1       1.569   3.025  21.684  0.00  0.00    +0.000 A 
ATOM     14  N   UNL     1       2.819   2.517  21.746  0.00  0.00    +0.000 NA
ATOM     15  C   UNL     1       3.550   2.558  20.603  0.00  0.00    +0.000 A 
ENDBRANCH   9  10
ENDBRANCH   4   9
BRANCH   6  16
ATOM     16  C   UNL     1       7.358   4.786  15.283  0.00  0.00    +0.000 C 
BRANCH  16  17
ATOM     17  N   UNL     1       6.663   4.972  13.992  0.00  0.00    +0.000 NA
ATOM     18  C   UNL     1       5.644   3.983  13.638  0.00  0.00    +0.000 C 
ATOM     19  C   UNL     1       5.999   3.354  12.305  0.00  0.00    +0.000 C 
ATOM     20  C   UNL     1       7.208   4.095  11.791  0.00  0.00    +0.000 C 
ATOM     21  C   UNL     1       7.634   5.050  12.893  0.00  0.00    +0.000 C 
ENDBRANCH  16  17
ENDBRANCH   6  16
TORSDOF 5
ENDMDL
MODEL 5
REMARK VINA RESULT:      -7.1      2.910      4.721
REMARK  Name = 
REMARK  6 active torsions:
REMARK  status: ('A' for Active; 'I' for Inactive)
REMARK    1  A    between atoms: C_1  and  O_2
REMARK    2  A    between atoms: O_2  and  C_3
REMARK    3  A    between atoms: C_6  and  O_7
REMARK    4  A    between atoms: O_7  and  C_8
REMARK    5  A    between atoms: C_15  and  C_16
REMARK    6  A    between atoms: C_16  and  N_17
REMARK                            x       y       z     vdW  Elec       q    Type
REMARK                         _______ _______ _______ _____ _____    ______ ____
ROOT
ATOM      1  C   UNL     1       5.506   6.099  16.821  0.00  0.00    +0.000 A 
ATOM      2  C   UNL     1       5.926   4.828  16.431  0.00  0.00    +0.000 A 
ATOM      3  C   UNL     1       5.138   3.709  16.733  0.00  0.00    +0.000 A 
ATOM      4  C   UNL     1       3.964   3.849  17.478  0.00  0.00    +0.000 A 
ATOM      5  C   UNL     1       3.477   5.133  17.749  0.00  0.00    +0.000 A 
ATOM      6  C   UNL     1       4.234   6.273  17.397  0.00  0.00    +0.000 A 
ENDROOT
BRANCH   1   8
ATOM      7  C   UNL     1       7.434   7.453  17.401  0.00  0.00    +0.000 C 
ATOM      8  O   UNL     1       6.218   7.256  16.714  0.00  0.00    +0.000 OA
ENDBRANCH   1   8
BRANCH   4   9
ATOM      9  O   UNL     1       3.221   2.771  17.921  0.00  0.00    +0.000 OA
BRANCH   9  10
ATOM     10  C   UNL     1       2.729   2.781  19.208  0.00  0.00    +0.000 A 
ATOM     11  C   UNL     1       1.376   3.077  19.383  0.00  0.00    +0.000 A 
ATOM     12  C   UNL     1       0.818   3.058  20.664  0.00  0.00    +0.000 A 
ATOM     13  C   UNL     1       1.643   2.759  21.738  0.00  0.00    +0.000 A 
ATOM     14  N   UNL     1       2.968   2.527  21.617  0.00  0.00    +0.000 NA
ATOM     15  C   UNL     1       3.482   2.571  20.361  0.00  0.00    +0.000 A 
ENDBRANCH   9  10
ENDBRANCH   4   9
BRANCH   6  16
ATOM     16  C   UNL     1       3.712   7.677  17.652  0.00  0.00    +0.000 C 
BRANCH  16  17
ATOM     17  N   UNL     1       2.305   7.783  18.090  0.00  0.00    +0.000 NA
ATOM     18  C   UNL     1       1.599   9.023  17.763  0.00  0.00    +0.000 C 
ATOM     19  C   UNL     1       1.079   9.655  19.040  0.00  0.00    +0.000 C 
ATOM     20  C   UNL     1       1.380   8.681  20.151  0.00  0.00    +0.000 C 
ATOM     21  C   UNL     1       2.198   7.559  19.537  0.00  0.00    +0.000 C 
ENDBRANCH  16  17
ENDBRANCH   6  16
TORSDOF 5
ENDMDL
MODEL 6
REMARK VINA RESULT:      -7.1      2.481      6.797
REMARK  Name = 
REMARK  6 active torsions:
REMARK  status: ('A' for Active; 'I' for Inactive)
REMARK    1  A    between atoms: C_1  and  O_2
REMARK    2  A    between atoms: O_2  and  C_3
REMARK    3  A    between atoms: C_6  and  O_7
REMARK    4  A    between atoms: O_7  and  C_8
REMARK    5  A    between atoms: C_15  and  C_16
REMARK    6  A    between atoms: C_16  and  N_17
REMARK                            x       y       z     vdW  Elec       q    Type
REMARK                         _______ _______ _______ _____ _____    ______ ____
ROOT
ATOM      1  C   UNL     1       2.613   6.843  19.299  0.00  0.00    +0.000 A 
ATOM      2  C   UNL     1       3.245   7.237  18.121  0.00  0.00    +0.000 A 
ATOM      3  C   UNL     1       4.294   6.467  17.600  0.00  0.00    +0.000 A 
ATOM      4  C   UNL     1       4.753   5.338  18.285  0.00  0.00    +0.000 A 
ATOM      5  C   UNL     1       4.032   4.871  19.389  0.00  0.00    +0.000 A 
ATOM      6  C   UNL     1       2.935   5.607  19.891  0.00  0.00    +0.000 A 
ENDROOT
BRANCH   1   8
ATOM      7  C   UNL     1       1.380   8.895  19.690  0.00  0.00    +0.000 C 
ATOM      8  O   UNL     1       1.673   7.548  19.990  0.00  0.00    +0.000 OA
ENDBRANCH   1   8
BRANCH   4   9
ATOM      9  O   UNL     1       5.868   4.622  17.893  0.00  0.00    +0.000 OA
BRANCH   9  10
ATOM     10  C   UNL     1       6.259   4.661  16.574  0.00  0.00    +0.000 A 
ATOM     11  C   UNL     1       5.572   3.850  15.668  0.00  0.00    +0.000 A 
ATOM     12  C   UNL     1       5.902   3.885  14.311  0.00  0.00    +0.000 A 
ATOM     13  C   UNL     1       6.928   4.723  13.903  0.00  0.00    +0.000 A 
ATOM     14  N   UNL     1       7.656   5.477  14.755  0.00  0.00    +0.000 NA
ATOM     15  C   UNL     1       7.323   5.406  16.069  0.00  0.00    +0.000 A 
ENDBRANCH   9  10
ENDBRANCH   4   9
BRANCH   6  16
ATOM     16  C   UNL     1       2.117   5.103  21.067  0.00  0.00    +0.000 C 
BRANCH  16  17
ATOM     17  N   UNL     1       1.334   3.870  20.841  0.00  0.00    +0.000 NA
ATOM     18  C   UNL     1       2.040   2.597  20.991  0.00  0.00    +0.000 C 
ATOM     19  C   UNL     1       1.925   1.806  19.703  0.00  0.00    +0.000 C 
ATOM     20  C   UNL     1       1.003   2.589  18.802  0.00  0.00    +0.000 C 
ATOM     21  C   UNL     1       0.705   3.897  19.515  0.00  0.00    +0.000 C 
ENDBRANCH  16  17
ENDBRANCH   6  16
TORSDOF 5
ENDMDL
MODEL 7
REMARK VINA RESULT:      -7.0      2.973      4.840
REMARK  Name = 
REMARK  6 active torsions:
REMARK  status: ('A' for Active; 'I' for Inactive)
REMARK    1  A    between atoms: C_1  and  O_2
REMARK    2  A    between atoms: O_2  and  C_3
REMARK    3  A    between atoms: C_6  and  O_7
REMARK    4  A    between atoms: O_7  and  C_8
REMARK    5  A    between atoms: C_15  and  C_16
REMARK    6  A    between atoms: C_16  and  N_17
REMARK                            x       y       z     vdW  Elec       q    Type
REMARK                         _______ _______ _______ _____ _____    ______ ____
ROOT
ATOM      1  C   UNL     1       5.512   6.115  16.752  0.00  0.00    +0.000 A 
ATOM      2  C   UNL     1       5.922   4.867  16.288  0.00  0.00    +0.000 A 
ATOM      3  C   UNL     1       5.116   3.740  16.508  0.00  0.00    +0.000 A 
ATOM      4  C   UNL     1       3.932   3.850  17.243  0.00  0.00    +0.000 A 
ATOM      5  C   UNL     1       3.457   5.120  17.587  0.00  0.00    +0.000 A 
ATOM      6  C   UNL     1       4.234   6.270  17.319  0.00  0.00    +0.000 A 
ENDROOT
BRANCH   1   8
ATOM      7  C   UNL     1       7.453   7.400  17.434  0.00  0.00    +0.000 C 
ATOM      8  O   UNL     1       6.239   7.268  16.728  0.00  0.00    +0.000 OA
ENDBRANCH   1   8
BRANCH   4   9
ATOM      9  O   UNL     1       3.169   2.756  17.607  0.00  0.00    +0.000 OA
BRANCH   9  10
ATOM     10  C   UNL     1       2.541   2.756  18.832  0.00  0.00    +0.000 A 
ATOM     11  C   UNL     1       3.332   2.561  19.967  0.00  0.00    +0.000 A 
ATOM     12  C   UNL     1       2.749   2.595  21.236  0.00  0.00    +0.000 A 
ATOM     13  C   UNL     1       1.382   2.806  21.329  0.00  0.00    +0.000 A 
ATOM     14  N   UNL     1       0.574   2.937  20.255  0.00  0.00    +0.000 NA
ATOM     15  C   UNL     1       1.169   2.882  19.036  0.00  0.00    +0.000 A 
ENDBRANCH   9  10
ENDBRANCH   4   9
BRANCH   6  16
ATOM     16  C   UNL     1       3.725   7.662  17.655  0.00  0.00    +0.000 C 
BRANCH  16  17
ATOM     17  N   UNL     1       2.319   7.756  18.101  0.00  0.00    +0.000 NA
ATOM     18  C   UNL     1       1.597   8.984  17.767  0.00  0.00    +0.000 C 
ATOM     19  C   UNL     1       1.079   9.623  19.041  0.00  0.00    +0.000 C 
ATOM     20  C   UNL     1       1.397   8.663  20.159  0.00  0.00    +0.000 C 
ATOM     21  C   UNL     1       2.225   7.544  19.551  0.00  0.00    +0.000 C 
ENDBRANCH  16  17
ENDBRANCH   6  16
TORSDOF 5
ENDMDL
MODEL 8
REMARK VINA RESULT:      -6.9      0.940      1.167
REMARK  Name = 
REMARK  6 active torsions:
REMARK  status: ('A' for Active; 'I' for Inactive)
REMARK    1  A    between atoms: C_1  and  O_2
REMARK    2  A    between atoms: O_2  and  C_3
REMARK    3  A    between atoms: C_6  and  O_7
REMARK    4  A    between atoms: O_7  and  C_8
REMARK    5  A    between atoms: C_15  and  C_16
REMARK    6  A    between atoms: C_16  and  N_17
REMARK                            x       y       z     vdW  Elec       q    Type
REMARK                         _______ _______ _______ _____ _____    ______ ____
ROOT
ATOM      1  C   UNL     1       6.283   6.178  17.508  0.00  0.00    +0.000 A 
ATOM      2  C   UNL     1       6.348   5.870  18.866  0.00  0.00    +0.000 A 
ATOM      3  C   UNL     1       5.781   4.679  19.340  0.00  0.00    +0.000 A 
ATOM      4  C   UNL     1       5.096   3.826  18.470  0.00  0.00    +0.000 A 
ATOM      5  C   UNL     1       5.150   4.068  17.093  0.00  0.00    +0.000 A 
ATOM      6  C   UNL     1       5.770   5.237  16.597  0.00  0.00    +0.000 A 
ENDROOT
BRANCH   1   8
ATOM      7  C   UNL     1       7.698   8.149  17.463  0.00  0.00    +0.000 C 
ATOM      8  O   UNL     1       6.671   7.346  16.922  0.00  0.00    +0.000 OA
ENDBRANCH   1   8
BRANCH   4   9
ATOM      9  O   UNL     1       4.401   2.711  18.901  0.00  0.00    +0.000 OA
BRANCH   9  10
ATOM     10  C   UNL     1       3.088   2.850  19.292  0.00  0.00    +0.000 A 
ATOM     11  C   UNL     1       2.841   3.285  20.596  0.00  0.00    +0.000 A 
ATOM     12  C   UNL     1       1.528   3.482  21.028  0.00  0.00    +0.000 A 
ATOM     13  C   UNL     1       0.495   3.220  20.141  0.00  0.00    +0.000 A 
ATOM     14  N   UNL     1       0.690   2.741  18.893  0.00  0.00    +0.000 NA
ATOM     15  C   UNL     1       1.977   2.542  18.510  0.00  0.00    +0.000 A 
ENDBRANCH   9  10
ENDBRANCH   4   9
BRANCH   6  16
ATOM     16  C   UNL     1       5.869   5.505  15.104  0.00  0.00    +0.000 C 
BRANCH  16  17
ATOM     17  N   UNL     1       6.740   4.595  14.331  0.00  0.00    +0.000 NA
ATOM     18  C   UNL     1       7.653   5.210  13.367  0.00  0.00    +0.000 C 
ATOM     19  C   UNL     1       7.387   4.634  11.989  0.00  0.00    +0.000 C 
ATOM     20  C   UNL     1       6.364   3.542  12.173  0.00  0.00    +0.000 C 
ATOM     21  C   UNL     1       5.936   3.587  13.630  0.00  0.00    +0.000 C 
ENDBRANCH  16  17
ENDBRANCH   6  16
TORSDOF 5
ENDMDL
MODEL 9
REMARK VINA RESULT:      -6.8      2.161      7.181
REMARK  Name = 
REMARK  6 active torsions:
REMARK  status: ('A' for Active; 'I' for Inactive)
REMARK    1  A    between atoms: C_1  and  O_2
REMARK    2  A    between atoms: O_2  and  C_3
REMARK    3  A    between atoms: C_6  and  O_7
REMARK    4  A    between atoms: O_7  and  C_8
REMARK    5  A    between atoms: C_15  and  C_16
REMARK    6  A    between atoms: C_16  and  N_17
REMARK                            x       y       z     vdW  Elec       q    Type
REMARK                         _______ _______ _______ _____ _____    ______ ____
ROOT
ATOM      1  C   UNL     1       3.407   6.654  17.689  0.00  0.00    +0.000 A 
ATOM      2  C   UNL     1       4.417   7.264  16.947  0.00  0.00    +0.000 A 
ATOM      3  C   UNL     1       5.371   6.477  16.288  0.00  0.00    +0.000 A 
ATOM      4  C   UNL     1       5.354   5.085  16.419  0.00  0.00    +0.000 A 
ATOM      5  C   UNL     1       4.266   4.472  17.048  0.00  0.00    +0.000 A 
ATOM      6  C   UNL     1       3.265   5.254  17.668  0.00  0.00    +0.000 A 
ENDROOT
BRANCH   1   8
ATOM      7  C   UNL     1       2.134   8.632  18.287  0.00  0.00    +0.000 C 
ATOM      8  O   UNL     1       2.492   7.281  18.482  0.00  0.00    +0.000 OA
ENDBRANCH   1   8
BRANCH   4   9
ATOM      9  O   UNL     1       6.346   4.270  15.906  0.00  0.00    +0.000 OA
BRANCH   9  10
ATOM     10  C   UNL     1       6.688   4.386  14.577  0.00  0.00    +0.000 A 
ATOM     11  C   UNL     1       6.051   3.539  13.667  0.00  0.00    +0.000 A 
ATOM     12  C   UNL     1       6.332   3.645  12.303  0.00  0.00    +0.000 A 
ATOM     13  C   UNL     1       7.259   4.590  11.892  0.00  0.00    +0.000 A 
ATOM     14  N   UNL     1       7.941   5.385  12.745  0.00  0.00    +0.000 NA
ATOM     15  C   UNL     1       7.659   5.244  14.065  0.00  0.00    +0.000 A 
ENDBRANCH   9  10
ENDBRANCH   4   9
BRANCH   6  16
ATOM     16  C   UNL     1       2.057   4.612  18.329  0.00  0.00    +0.000 C 
BRANCH  16  17
ATOM     17  N   UNL     1       2.089   4.520  19.803  0.00  0.00    +0.000 NA
ATOM     18  C   UNL     1       3.236   3.837  20.402  0.00  0.00    +0.000 C 
ATOM     19  C   UNL     1       2.743   2.689  21.262  0.00  0.00    +0.000 C 
ATOM     20  C   UNL     1       1.238   2.780  21.272  0.00  0.00    +0.000 C 
ATOM     21  C   UNL     1       0.861   3.889  20.305  0.00  0.00    +0.000 C 
ENDBRANCH  16  17
ENDBRANCH   6  16
TORSDOF 5
ENDMDL
