MODEL 1
REMARK VINA RESULT:      -7.9      0.000      0.000
REMARK  Name = 
REMARK  11 active torsions:
REMARK  status: ('A' for Active; 'I' for Inactive)
REMARK    1  A    between atoms: C_1  and  C_2
REMARK    2  A    between atoms: C_2  and  O_3
REMARK    3  A    between atoms: O_3  and  P_4
REMARK    4  A    between atoms: P_4  and  C_6
REMARK    5  A    between atoms: P_4  and  O_31
REMARK    6  A    between atoms: C_6  and  C_7
REMARK    7  A    between atoms: C_7  and  N_8
REMARK    8  A    between atoms: C_11  and  C_12
REMARK    9  A    between atoms: C_22  and  C_23
REMARK   10  A    between atoms: O_31  and  C_32
REMARK   11  A    between atoms: C_32  and  C_33
REMARK                            x       y       z     vdW  Elec       q    Type
REMARK                         _______ _______ _______ _____ _____    ______ ____
ROOT
ATOM      1  N   UNL     1      -1.030  10.227  19.750  0.00  0.00    +0.000 NA
ATOM      2  C   UNL     1      -0.940  11.433  20.580  0.00  0.00    +0.000 C 
ATOM      3  C   UNL     1      -0.685  11.053  22.007  0.00  0.00    +0.000 C 
ATOM      4  C   UNL     1      -1.271  11.632  23.074  0.00  0.00    +0.000 C 
ATOM      5  C   UNL     1       0.271   9.914  22.255  0.00  0.00    +0.000 C 
ATOM      6  O   UNL     1       0.674   9.649  23.382  0.00  0.00    +0.000 OA
ATOM      7  C   UNL     1       0.716   9.122  21.062  0.00  0.00    +0.000 C 
ATOM      8  C   UNL     1       1.429   7.986  21.237  0.00  0.00    +0.000 C 
ATOM      9  C   UNL     1       0.307   9.625  19.720  0.00  0.00    +0.000 C 
ENDROOT
BRANCH   4  10
ATOM     10  C   UNL     1      -2.235  12.735  22.968  0.00  0.00    +0.000 A 
ATOM     11  C   UNL     1      -1.789  14.064  22.955  0.00  0.00    +0.000 A 
ATOM     12  C   UNL     1      -2.707  15.115  22.924  0.00  0.00    +0.000 A 
ATOM     13  C   UNL     1      -4.071  14.835  22.907  0.00  0.00    +0.000 A 
ATOM     14  F   UNL     1      -4.951  15.842  22.894  0.00  0.00    +0.000 F 
ATOM     15  C   UNL     1      -4.529  13.521  22.913  0.00  0.00    +0.000 A 
ATOM     16  C   UNL     1      -3.612  12.470  22.946  0.00  0.00    +0.000 A 
ENDBRANCH   4  10
BRANCH   8  17
ATOM     17  C   UNL     1       1.882   7.145  20.114  0.00  0.00    +0.000 A 
ATOM     18  C   UNL     1       1.833   5.748  20.210  0.00  0.00    +0.000 A 
ATOM     19  C   UNL     1       2.342   4.949  19.179  0.00  0.00    +0.000 A 
ATOM     20  C   UNL     1       2.902   5.550  18.058  0.00  0.00    +0.000 A 
ATOM     21  F   UNL     1       3.392   4.783  17.074  0.00  0.00    +0.000 F 
ATOM     22  C   UNL     1       2.967   6.933  17.947  0.00  0.00    +0.000 A 
ATOM     23  C   UNL     1       2.456   7.732  18.976  0.00  0.00    +0.000 A 
ENDBRANCH   8  17
BRANCH   1  24
ATOM     24  C   UNL     1      -1.460  10.565  18.387  0.00  0.00    +0.000 C 
BRANCH  24  25
ATOM     25  C   UNL     1      -2.659  11.514  18.388  0.00  0.00    +0.000 C 
BRANCH  25  26
ATOM     26  P   UNL     1      -4.228  10.791  17.685  0.00  0.00    +0.000 P 
ATOM     27  O   UNL     1      -4.796  11.843  16.719  0.00  0.00    +0.000 OA
BRANCH  26  28
ATOM     28  O   UNL     1      -5.144  11.548  18.943  0.00  0.00    +0.000 OA
BRANCH  28  30
ATOM     29  C   UNL     1      -7.034  11.430  20.417  0.00  0.00    +0.000 C 
ATOM     30  C   UNL     1      -6.402  10.912  19.143  0.00  0.00    +0.000 C 
ENDBRANCH  28  30
ENDBRANCH  26  28
BRANCH  26  31
ATOM     31  O   UNL     1      -3.314  10.032  16.427  0.00  0.00    +0.000 OA
BRANCH  31  32
ATOM     32  C   UNL     1      -3.041  10.800  15.256  0.00  0.00    +0.000 C 
ATOM     33  C   UNL     1      -3.420  10.006  14.022  0.00  0.00    +0.000 C 
ENDBRANCH  31  32
ENDBRANCH  26  31
ENDBRANCH  25  26
ENDBRANCH  24  25
ENDBRANCH   1  24
TORSDOF 9
ENDMDL
MODEL 2
REMARK VINA RESULT:      -7.9      0.533      2.377
REMARK  Name = 
REMARK  11 active torsions:
REMARK  status: ('A' for Active; 'I' for Inactive)
REMARK    1  A    between atoms: C_1  and  C_2
REMARK    2  A    between atoms: C_2  and  O_3
REMARK    3  A    between atoms: O_3  and  P_4
REMARK    4  A    between atoms: P_4  and  C_6
REMARK    5  A    between atoms: P_4  and  O_31
REMARK    6  A    between atoms: C_6  and  C_7
REMARK    7  A    between atoms: C_7  and  N_8
REMARK    8  A    between atoms: C_11  and  C_12
REMARK    9  A    between atoms: C_22  and  C_23
REMARK   10  A    between atoms: O_31  and  C_32
REMARK   11  A    between atoms: C_32  and  C_33
REMARK                            x       y       z     vdW  Elec       q    Type
REMARK                         _______ _______ _______ _____ _____    ______ ____
ROOT
ATOM      1  N   UNL     1      -0.918  10.420  19.787  0.00  0.00    +0.000 NA
ATOM      2  C   UNL     1      -0.856  11.578  20.684  0.00  0.00    +0.000 C 
ATOM      3  C   UNL     1      -0.737  11.118  22.105  0.00  0.00    +0.000 C 
ATOM      4  C   UNL     1      -1.391  11.666  23.149  0.00  0.00    +0.000 C 
ATOM      5  C   UNL     1       0.153   9.930  22.371  0.00  0.00    +0.000 C 
ATOM      6  O   UNL     1       0.448   9.594  23.512  0.00  0.00    +0.000 OA
ATOM      7  C   UNL     1       0.669   9.181  21.179  0.00  0.00    +0.000 C 
ATOM      8  C   UNL     1       1.322   8.010  21.352  0.00  0.00    +0.000 C 
ATOM      9  C   UNL     1       0.394   9.767  19.836  0.00  0.00    +0.000 C 
ENDROOT
BRANCH   4  10
ATOM     10  C   UNL     1      -2.301  12.812  23.022  0.00  0.00    +0.000 A 
ATOM     11  C   UNL     1      -1.830  14.115  23.229  0.00  0.00    +0.000 A 
ATOM     12  C   UNL     1      -2.708  15.199  23.176  0.00  0.00    +0.000 A 
ATOM     13  C   UNL     1      -4.058  14.976  22.917  0.00  0.00    +0.000 A 
ATOM     14  F   UNL     1      -4.903  16.013  22.883  0.00  0.00    +0.000 F 
ATOM     15  C   UNL     1      -4.540  13.689  22.704  0.00  0.00    +0.000 A 
ATOM     16  C   UNL     1      -3.663  12.605  22.757  0.00  0.00    +0.000 A 
ENDBRANCH   4  10
BRANCH   8  17
ATOM     17  C   UNL     1       1.838   7.208  20.227  0.00  0.00    +0.000 A 
ATOM     18  C   UNL     1       1.910   5.812  20.327  0.00  0.00    +0.000 A 
ATOM     19  C   UNL     1       2.479   5.057  19.294  0.00  0.00    +0.000 A 
ATOM     20  C   UNL     1       2.978   5.701  18.168  0.00  0.00    +0.000 A 
ATOM     21  F   UNL     1       3.526   4.977  17.182  0.00  0.00    +0.000 F 
ATOM     22  C   UNL     1       2.923   7.085  18.053  0.00  0.00    +0.000 A 
ATOM     23  C   UNL     1       2.352   7.840  19.084  0.00  0.00    +0.000 A 
ENDBRANCH   8  17
BRANCH   1  24
ATOM     24  C   UNL     1      -1.219  10.843  18.413  0.00  0.00    +0.000 C 
BRANCH  24  25
ATOM     25  C   UNL     1      -2.442  11.758  18.354  0.00  0.00    +0.000 C 
BRANCH  25  26
ATOM     26  P   UNL     1      -3.842  11.124  17.296  0.00  0.00    +0.000 P 
ATOM     27  O   UNL     1      -3.748   9.590  17.329  0.00  0.00    +0.000 OA
BRANCH  26  28
ATOM     28  O   UNL     1      -2.792  11.093  15.921  0.00  0.00    +0.000 OA
BRANCH  28  30
ATOM     29  C   UNL     1      -3.449  10.071  13.852  0.00  0.00    +0.000 C 
ATOM     30  C   UNL     1      -2.859   9.851  15.227  0.00  0.00    +0.000 C 
ENDBRANCH  28  30
ENDBRANCH  26  28
BRANCH  26  31
ATOM     31  O   UNL     1      -4.893  11.155  18.670  0.00  0.00    +0.000 OA
BRANCH  31  32
ATOM     32  C   UNL     1      -6.284  10.933  18.442  0.00  0.00    +0.000 C 
ATOM     33  C   UNL     1      -7.065  11.220  19.709  0.00  0.00    +0.000 C 
ENDBRANCH  31  32
ENDBRANCH  26  31
ENDBRANCH  25  26
ENDBRANCH  24  25
ENDBRANCH   1  24
TORSDOF 9
ENDMDL
MODEL 3
REMARK VINA RESULT:      -7.8      0.628      1.050
REMARK  Name = 
REMARK  11 active torsions:
REMARK  status: ('A' for Active; 'I' for Inactive)
REMARK    1  A    between atoms: C_1  and  C_2
REMARK    2  A    between atoms: C_2  and  O_3
REMARK    3  A    between atoms: O_3  and  P_4
REMARK    4  A    between atoms: P_4  and  C_6
REMARK    5  A    between atoms: P_4  and  O_31
REMARK    6  A    between atoms: C_6  and  C_7
REMARK    7  A    between atoms: C_7  and  N_8
REMARK    8  A    between atoms: C_11  and  C_12
REMARK    9  A    between atoms: C_22  and  C_23
REMARK   10  A    between atoms: O_31  and  C_32
REMARK   11  A    between atoms: C_32  and  C_33
REMARK                            x       y       z     vdW  Elec       q    Type
REMARK                         _______ _______ _______ _____ _____    ______ ____
ROOT
ATOM      1  N   UNL     1      -0.984  10.346  19.819  0.00  0.00    +0.000 NA
ATOM      2  C   UNL     1      -0.925  11.545  20.662  0.00  0.00    +0.000 C 
ATOM      3  C   UNL     1      -0.794  11.151  22.102  0.00  0.00    +0.000 C 
ATOM      4  C   UNL     1      -1.445  11.741  23.124  0.00  0.00    +0.000 C 
ATOM      5  C   UNL     1       0.108   9.983  22.416  0.00  0.00    +0.000 C 
ATOM      6  O   UNL     1       0.413   9.702  23.569  0.00  0.00    +0.000 OA
ATOM      7  C   UNL     1       0.622   9.184  21.256  0.00  0.00    +0.000 C 
ATOM      8  C   UNL     1       1.286   8.027  21.479  0.00  0.00    +0.000 C 
ATOM      9  C   UNL     1       0.334   9.706  19.890  0.00  0.00    +0.000 C 
ENDROOT
BRANCH   4  10
ATOM     10  C   UNL     1      -2.366  12.873  22.950  0.00  0.00    +0.000 A 
ATOM     11  C   UNL     1      -1.878  14.187  22.951  0.00  0.00    +0.000 A 
ATOM     12  C   UNL     1      -2.759  15.265  22.855  0.00  0.00    +0.000 A 
ATOM     13  C   UNL     1      -4.128  15.027  22.760  0.00  0.00    +0.000 A 
ATOM     14  F   UNL     1      -4.974  16.061  22.685  0.00  0.00    +0.000 F 
ATOM     15  C   UNL     1      -4.627  13.729  22.752  0.00  0.00    +0.000 A 
ATOM     16  C   UNL     1      -3.746  12.649  22.849  0.00  0.00    +0.000 A 
ENDBRANCH   4  10
BRANCH   8  17
ATOM     17  C   UNL     1       1.801   7.179  20.388  0.00  0.00    +0.000 A 
ATOM     18  C   UNL     1       2.303   7.760  19.216  0.00  0.00    +0.000 A 
ATOM     19  C   UNL     1       2.714   6.955  18.146  0.00  0.00    +0.000 A 
ATOM     20  C   UNL     1       2.615   5.573  18.251  0.00  0.00    +0.000 A 
ATOM     21  F   UNL     1       3.005   4.804  17.224  0.00  0.00    +0.000 F 
ATOM     22  C   UNL     1       2.113   4.977  19.401  0.00  0.00    +0.000 A 
ATOM     23  C   UNL     1       1.705   5.781  20.472  0.00  0.00    +0.000 A 
ENDBRANCH   8  17
BRANCH   1  24
ATOM     24  C   UNL     1      -1.296  10.703  18.429  0.00  0.00    +0.000 C 
BRANCH  24  25
ATOM     25  C   UNL     1      -2.472  11.677  18.342  0.00  0.00    +0.000 C 
BRANCH  25  26
ATOM     26  P   UNL     1      -4.069  10.922  17.741  0.00  0.00    +0.000 P 
ATOM     27  O   UNL     1      -4.672  11.924  16.744  0.00  0.00    +0.000 OA
BRANCH  26  28
ATOM     28  O   UNL     1      -4.933  11.748  18.993  0.00  0.00    +0.000 OA
BRANCH  28  30
ATOM     29  C   UNL     1      -6.116  13.778  19.477  0.00  0.00    +0.000 C 
ATOM     30  C   UNL     1      -5.871  12.680  18.466  0.00  0.00    +0.000 C 
ENDBRANCH  28  30
ENDBRANCH  26  28
BRANCH  26  31
ATOM     31  O   UNL     1      -3.206  10.095  16.490  0.00  0.00    +0.000 OA
BRANCH  31  32
ATOM     32  C   UNL     1      -2.996  10.791  15.262  0.00  0.00    +0.000 C 
ATOM     33  C   UNL     1      -3.535   9.970  14.108  0.00  0.00    +0.000 C 
ENDBRANCH  31  32
ENDBRANCH  26  31
ENDBRANCH  25  26
ENDBRANCH  24  25
ENDBRANCH   1  24
TORSDOF 9
ENDMDL
MODEL 4
REMARK VINA RESULT:      -7.7      0.576      1.319
REMARK  Name = 
REMARK  11 active torsions:
REMARK  status: ('A' for Active; 'I' for Inactive)
REMARK    1  A    between atoms: C_1  and  C_2
REMARK    2  A    between atoms: C_2  and  O_3
REMARK    3  A    between atoms: O_3  and  P_4
REMARK    4  A    between atoms: P_4  and  C_6
REMARK    5  A    between atoms: P_4  and  O_31
REMARK    6  A    between atoms: C_6  and  C_7
REMARK    7  A    between atoms: C_7  and  N_8
REMARK    8  A    between atoms: C_11  and  C_12
REMARK    9  A    between atoms: C_22  and  C_23
REMARK   10  A    between atoms: O_31  and  C_32
REMARK   11  A    between atoms: C_32  and  C_33
REMARK                            x       y       z     vdW  Elec       q    Type
REMARK                         _______ _______ _______ _____ _____    ______ ____
ROOT
ATOM      1  N   UNL     1      -1.077  10.420  19.707  0.00  0.00    +0.000 NA
ATOM      2  C   UNL     1      -1.055  11.634  20.529  0.00  0.00    +0.000 C 
ATOM      3  C   UNL     1      -0.931  11.268  21.977  0.00  0.00    +0.000 C 
ATOM      4  C   UNL     1      -1.607  11.861  22.981  0.00  0.00    +0.000 C 
ATOM      5  C   UNL     1      -0.008  10.127  22.321  0.00  0.00    +0.000 C 
ATOM      6  O   UNL     1       0.290   9.872  23.483  0.00  0.00    +0.000 OA
ATOM      7  C   UNL     1       0.537   9.320  21.181  0.00  0.00    +0.000 C 
ATOM      8  C   UNL     1       1.224   8.182  21.431  0.00  0.00    +0.000 C 
ATOM      9  C   UNL     1       0.254   9.811  19.803  0.00  0.00    +0.000 C 
ENDROOT
BRANCH   4  10
ATOM     10  C   UNL     1      -2.550  12.969  22.778  0.00  0.00    +0.000 A 
ATOM     11  C   UNL     1      -3.885  12.707  22.440  0.00  0.00    +0.000 A 
ATOM     12  C   UNL     1      -4.765  13.758  22.179  0.00  0.00    +0.000 A 
ATOM     13  C   UNL     1      -4.307  15.072  22.255  0.00  0.00    +0.000 A 
ATOM     14  F   UNL     1      -5.146  16.079  21.988  0.00  0.00    +0.000 F 
ATOM     15  C   UNL     1      -2.987  15.348  22.594  0.00  0.00    +0.000 A 
ATOM     16  C   UNL     1      -2.106  14.297  22.855  0.00  0.00    +0.000 A 
ENDBRANCH   4  10
BRANCH   8  17
ATOM     17  C   UNL     1       1.771   7.327  20.361  0.00  0.00    +0.000 A 
ATOM     18  C   UNL     1       2.258   7.898  19.178  0.00  0.00    +0.000 A 
ATOM     19  C   UNL     1       2.698   7.083  18.128  0.00  0.00    +0.000 A 
ATOM     20  C   UNL     1       2.644   5.700  18.262  0.00  0.00    +0.000 A 
ATOM     21  F   UNL     1       3.062   4.922  17.254  0.00  0.00    +0.000 F 
ATOM     22  C   UNL     1       2.157   5.115  19.424  0.00  0.00    +0.000 A 
ATOM     23  C   UNL     1       1.720   5.929  20.476  0.00  0.00    +0.000 A 
ENDBRANCH   8  17
BRANCH   1  24
ATOM     24  C   UNL     1      -1.382  10.746  18.307  0.00  0.00    +0.000 C 
BRANCH  24  25
ATOM     25  C   UNL     1      -2.602  11.660  18.188  0.00  0.00    +0.000 C 
BRANCH  25  26
ATOM     26  P   UNL     1      -4.012  10.954  17.192  0.00  0.00    +0.000 P 
ATOM     27  O   UNL     1      -4.922  12.138  16.831  0.00  0.00    +0.000 OA
BRANCH  26  28
ATOM     28  O   UNL     1      -4.943  10.765  18.638  0.00  0.00    +0.000 OA
BRANCH  28  30
ATOM     29  C   UNL     1      -6.938  11.522  19.735  0.00  0.00    +0.000 C 
ATOM     30  C   UNL     1      -5.724  11.920  18.924  0.00  0.00    +0.000 C 
ENDBRANCH  28  30
ENDBRANCH  26  28
BRANCH  26  31
ATOM     31  O   UNL     1      -3.082  11.141  15.745  0.00  0.00    +0.000 OA
BRANCH  31  32
ATOM     32  C   UNL     1      -2.849   9.976  14.955  0.00  0.00    +0.000 C 
ATOM     33  C   UNL     1      -3.711  10.019  13.710  0.00  0.00    +0.000 C 
ENDBRANCH  31  32
ENDBRANCH  26  31
ENDBRANCH  25  26
ENDBRANCH  24  25
ENDBRANCH   1  24
TORSDOF 9
ENDMDL
MODEL 5
REMARK VINA RESULT:      -7.7      0.827      7.789
REMARK  Name = 
REMARK  11 active torsions:
REMARK  status: ('A' for Active; 'I' for Inactive)
REMARK    1  A    between atoms: C_1  and  C_2
REMARK    2  A    between atoms: C_2  and  O_3
REMARK    3  A    between atoms: O_3  and  P_4
REMARK    4  A    between atoms: P_4  and  C_6
REMARK    5  A    between atoms: P_4  and  O_31
REMARK    6  A    between atoms: C_6  and  C_7
REMARK    7  A    between atoms: C_7  and  N_8
REMARK    8  A    between atoms: C_11  and  C_12
REMARK    9  A    between atoms: C_22  and  C_23
REMARK   10  A    between atoms: O_31  and  C_32
REMARK   11  A    between atoms: C_32  and  C_33
REMARK                            x       y       z     vdW  Elec       q    Type
REMARK                         _______ _______ _______ _____ _____    ______ ____
ROOT
ATOM      1  N   UNL     1      -0.542  11.125  19.766  0.00  0.00    +0.000 NA
ATOM      2  C   UNL     1      -0.410   9.673  19.923  0.00  0.00    +0.000 C 
ATOM      3  C   UNL     1       0.264   9.359  21.225  0.00  0.00    +0.000 C 
ATOM      4  C   UNL     1       1.204   8.409  21.395  0.00  0.00    +0.000 C 
ATOM      5  C   UNL     1      -0.120  10.199  22.417  0.00  0.00    +0.000 C 
ATOM      6  O   UNL     1       0.243   9.905  23.550  0.00  0.00    +0.000 OA
ATOM      7  C   UNL     1      -0.972  11.405  22.159  0.00  0.00    +0.000 C 
ATOM      8  C   UNL     1      -1.200  12.292  23.154  0.00  0.00    +0.000 C 
ATOM      9  C   UNL     1      -1.501  11.582  20.777  0.00  0.00    +0.000 C 
ENDROOT
BRANCH   4  10
ATOM     10  C   UNL     1       1.680   7.538  20.312  0.00  0.00    +0.000 A 
ATOM     11  C   UNL     1       1.679   6.146  20.472  0.00  0.00    +0.000 A 
ATOM     12  C   UNL     1       2.195   5.321  19.471  0.00  0.00    +0.000 A 
ATOM     13  C   UNL     1       2.712   5.891  18.311  0.00  0.00    +0.000 A 
ATOM     14  F   UNL     1       3.222   5.102  17.358  0.00  0.00    +0.000 F 
ATOM     15  C   UNL     1       2.715   7.271  18.134  0.00  0.00    +0.000 A 
ATOM     16  C   UNL     1       2.200   8.097  19.135  0.00  0.00    +0.000 A 
ENDBRANCH   4  10
BRANCH   8  17
ATOM     17  C   UNL     1      -2.010  13.511  22.969  0.00  0.00    +0.000 A 
ATOM     18  C   UNL     1      -1.395  14.725  22.633  0.00  0.00    +0.000 A 
ATOM     19  C   UNL     1      -2.151  15.899  22.540  0.00  0.00    +0.000 A 
ATOM     20  C   UNL     1      -3.518  15.857  22.790  0.00  0.00    +0.000 A 
ATOM     21  F   UNL     1      -4.239  16.984  22.705  0.00  0.00    +0.000 F 
ATOM     22  C   UNL     1      -4.145  14.666  23.132  0.00  0.00    +0.000 A 
ATOM     23  C   UNL     1      -3.390  13.490  23.221  0.00  0.00    +0.000 A 
ENDBRANCH   8  17
BRANCH   1  24
ATOM     24  C   UNL     1      -1.029  11.460  18.421  0.00  0.00    +0.000 C 
BRANCH  24  25
ATOM     25  C   UNL     1      -2.453  12.017  18.455  0.00  0.00    +0.000 C 
BRANCH  25  26
ATOM     26  P   UNL     1      -3.678  11.095  17.392  0.00  0.00    +0.000 P 
ATOM     27  O   UNL     1      -3.459   9.601  17.677  0.00  0.00    +0.000 OA
BRANCH  26  28
ATOM     28  O   UNL     1      -2.492  10.962  16.138  0.00  0.00    +0.000 OA
BRANCH  28  30
ATOM     29  C   UNL     1      -3.615  10.140  14.183  0.00  0.00    +0.000 C 
ATOM     30  C   UNL     1      -2.694   9.803  15.336  0.00  0.00    +0.000 C 
ENDBRANCH  28  30
ENDBRANCH  26  28
BRANCH  26  31
ATOM     31  O   UNL     1      -4.864  11.229  18.644  0.00  0.00    +0.000 OA
BRANCH  31  32
ATOM     32  C   UNL     1      -6.198  10.826  18.335  0.00  0.00    +0.000 C 
ATOM     33  C   UNL     1      -7.019  10.752  19.606  0.00  0.00    +0.000 C 
ENDBRANCH  31  32
ENDBRANCH  26  31
ENDBRANCH  25  26
ENDBRANCH  24  25
ENDBRANCH   1  24
TORSDOF 9
ENDMDL
MODEL 6
REMARK VINA RESULT:      -7.7      0.753      2.579
REMARK  Name = 
REMARK  11 active torsions:
REMARK  status: ('A' for Active; 'I' for Inactive)
REMARK    1  A    between atoms: C_1  and  C_2
REMARK    2  A    between atoms: C_2  and  O_3
REMARK    3  A    between atoms: O_3  and  P_4
REMARK    4  A    between atoms: P_4  and  C_6
REMARK    5  A    between atoms: P_4  and  O_31
REMARK    6  A    between atoms: C_6  and  C_7
REMARK    7  A    between atoms: C_7  and  N_8
REMARK    8  A    between atoms: C_11  and  C_12
REMARK    9  A    between atoms: C_22  and  C_23
REMARK   10  A    between atoms: O_31  and  C_32
REMARK   11  A    between atoms: C_32  and  C_33
REMARK                            x       y       z     vdW  Elec       q    Type
REMARK                         _______ _______ _______ _____ _____    ______ ____
ROOT
ATOM      1  N   UNL     1      -0.837  10.336  19.641  0.00  0.00    +0.000 NA
ATOM      2  C   UNL     1      -0.772  11.543  20.472  0.00  0.00    +0.000 C 
ATOM      3  C   UNL     1      -0.696  11.163  21.919  0.00  0.00    +0.000 C 
ATOM      4  C   UNL     1      -1.363  11.783  22.914  0.00  0.00    +0.000 C 
ATOM      5  C   UNL     1       0.163   9.976  22.274  0.00  0.00    +0.000 C 
ATOM      6  O   UNL     1       0.425   9.700  23.439  0.00  0.00    +0.000 OA
ATOM      7  C   UNL     1       0.691   9.150  21.140  0.00  0.00    +0.000 C 
ATOM      8  C   UNL     1       1.316   7.978  21.396  0.00  0.00    +0.000 C 
ATOM      9  C   UNL     1       0.460   9.662  19.759  0.00  0.00    +0.000 C 
ENDROOT
BRANCH   4  10
ATOM     10  C   UNL     1      -2.246  12.936  22.699  0.00  0.00    +0.000 A 
ATOM     11  C   UNL     1      -3.570  12.745  22.281  0.00  0.00    +0.000 A 
ATOM     12  C   UNL     1      -4.389  13.841  22.010  0.00  0.00    +0.000 A 
ATOM     13  C   UNL     1      -3.882  15.130  22.157  0.00  0.00    +0.000 A 
ATOM     14  F   UNL     1      -4.662  16.181  21.881  0.00  0.00    +0.000 F 
ATOM     15  C   UNL     1      -2.572  15.337  22.576  0.00  0.00    +0.000 A 
ATOM     16  C   UNL     1      -1.752  14.240  22.846  0.00  0.00    +0.000 A 
ENDBRANCH   4  10
BRANCH   8  17
ATOM     17  C   UNL     1       1.842   7.103  20.331  0.00  0.00    +0.000 A 
ATOM     18  C   UNL     1       2.333   7.655  19.140  0.00  0.00    +0.000 A 
ATOM     19  C   UNL     1       2.753   6.822  18.095  0.00  0.00    +0.000 A 
ATOM     20  C   UNL     1       2.676   5.443  18.243  0.00  0.00    +0.000 A 
ATOM     21  F   UNL     1       3.075   4.648  17.241  0.00  0.00    +0.000 F 
ATOM     22  C   UNL     1       2.185   4.877  19.413  0.00  0.00    +0.000 A 
ATOM     23  C   UNL     1       1.768   5.708  20.459  0.00  0.00    +0.000 A 
ENDBRANCH   8  17
BRANCH   1  24
ATOM     24  C   UNL     1      -1.097  10.685  18.238  0.00  0.00    +0.000 C 
BRANCH  24  25
ATOM     25  C   UNL     1      -2.094  11.838  18.113  0.00  0.00    +0.000 C 
BRANCH  25  26
ATOM     26  P   UNL     1      -3.747  11.365  17.389  0.00  0.00    +0.000 P 
ATOM     27  O   UNL     1      -3.830   9.832  17.463  0.00  0.00    +0.000 OA
BRANCH  26  28
ATOM     28  O   UNL     1      -3.015  11.183  15.831  0.00  0.00    +0.000 OA
BRANCH  28  30
ATOM     29  C   UNL     1      -3.028   9.892  13.809  0.00  0.00    +0.000 C 
ATOM     30  C   UNL     1      -3.183   9.868  15.313  0.00  0.00    +0.000 C 
ENDBRANCH  28  30
ENDBRANCH  26  28
BRANCH  26  31
ATOM     31  O   UNL     1      -4.480  11.547  18.945  0.00  0.00    +0.000 OA
BRANCH  31  32
ATOM     32  C   UNL     1      -5.824  12.027  18.989  0.00  0.00    +0.000 C 
ATOM     33  C   UNL     1      -6.348  12.216  17.580  0.00  0.00    +0.000 C 
ENDBRANCH  31  32
ENDBRANCH  26  31
ENDBRANCH  25  26
ENDBRANCH  24  25
ENDBRANCH   1  24
TORSDOF 9
ENDMDL
MODEL 7
REMARK VINA RESULT:      -7.6      0.919      7.610
REMARK  Name = 
REMARK  11 active torsions:
REMARK  status: ('A' for Active; 'I' for Inactive)
REMARK    1  A    between atoms: C_1  and  C_2
REMARK    2  A    between atoms: C_2  and  O_3
REMARK    3  A    between atoms: O_3  and  P_4
REMARK    4  A    between atoms: P_4  and  C_6
REMARK    5  A    between atoms: P_4  and  O_31
REMARK    6  A    between atoms: C_6  and  C_7
REMARK    7  A    between atoms: C_7  and  N_8
REMARK    8  A    between atoms: C_11  and  C_12
REMARK    9  A    between atoms: C_22  and  C_23
REMARK   10  A    between atoms: O_31  and  C_32
REMARK   11  A    between atoms: C_32  and  C_33
REMARK                            x       y       z     vdW  Elec       q    Type
REMARK                         _______ _______ _______ _____ _____    ______ ____
ROOT
ATOM      1  N   UNL     1      -0.512  11.032  19.788  0.00  0.00    +0.000 NA
ATOM      2  C   UNL     1      -0.373   9.583  19.970  0.00  0.00    +0.000 C 
ATOM      3  C   UNL     1       0.286   9.294  21.285  0.00  0.00    +0.000 C 
ATOM      4  C   UNL     1       1.231   8.352  21.481  0.00  0.00    +0.000 C 
ATOM      5  C   UNL     1      -0.117  10.150  22.459  0.00  0.00    +0.000 C 
ATOM      6  O   UNL     1       0.235   9.877  23.601  0.00  0.00    +0.000 OA
ATOM      7  C   UNL     1      -0.972  11.347  22.172  0.00  0.00    +0.000 C 
ATOM      8  C   UNL     1      -1.218  12.248  23.150  0.00  0.00    +0.000 C 
ATOM      9  C   UNL     1      -1.486  11.499  20.781  0.00  0.00    +0.000 C 
ENDROOT
BRANCH   4  10
ATOM     10  C   UNL     1       1.724   7.468  20.417  0.00  0.00    +0.000 A 
ATOM     11  C   UNL     1       2.205   8.007  19.216  0.00  0.00    +0.000 A 
ATOM     12  C   UNL     1       2.610   7.166  18.179  0.00  0.00    +0.000 A 
ATOM     13  C   UNL     1       2.531   5.785  18.344  0.00  0.00    +0.000 A 
ATOM     14  F   UNL     1       2.903   4.979  17.343  0.00  0.00    +0.000 F 
ATOM     15  C   UNL     1       2.062   5.235  19.532  0.00  0.00    +0.000 A 
ATOM     16  C   UNL     1       1.656   6.075  20.570  0.00  0.00    +0.000 A 
ENDBRANCH   4  10
BRANCH   8  17
ATOM     17  C   UNL     1      -2.033  13.459  22.936  0.00  0.00    +0.000 A 
ATOM     18  C   UNL     1      -3.425  13.410  23.083  0.00  0.00    +0.000 A 
ATOM     19  C   UNL     1      -4.207  14.537  22.798  0.00  0.00    +0.000 A 
ATOM     20  C   UNL     1      -3.593  15.704  22.359  0.00  0.00    +0.000 A 
ATOM     21  F   UNL     1      -4.343  16.780  22.082  0.00  0.00    +0.000 F 
ATOM     22  C   UNL     1      -2.215  15.770  22.199  0.00  0.00    +0.000 A 
ATOM     23  C   UNL     1      -1.433  14.646  22.488  0.00  0.00    +0.000 A 
ENDBRANCH   8  17
BRANCH   1  24
ATOM     24  C   UNL     1      -0.986  11.342  18.433  0.00  0.00    +0.000 C 
BRANCH  24  25
ATOM     25  C   UNL     1      -2.400  11.923  18.444  0.00  0.00    +0.000 C 
BRANCH  25  26
ATOM     26  P   UNL     1      -3.631  11.002  17.388  0.00  0.00    +0.000 P 
ATOM     27  O   UNL     1      -3.412   9.507  17.673  0.00  0.00    +0.000 OA
BRANCH  26  28
ATOM     28  O   UNL     1      -2.452  10.866  16.128  0.00  0.00    +0.000 OA
BRANCH  28  30
ATOM     29  C   UNL     1      -3.834  10.183  14.290  0.00  0.00    +0.000 C 
ATOM     30  C   UNL     1      -2.734   9.783  15.248  0.00  0.00    +0.000 C 
ENDBRANCH  28  30
ENDBRANCH  26  28
BRANCH  26  31
ATOM     31  O   UNL     1      -4.811  11.137  18.646  0.00  0.00    +0.000 OA
BRANCH  31  32
ATOM     32  C   UNL     1      -5.985  11.901  18.370  0.00  0.00    +0.000 C 
ATOM     33  C   UNL     1      -5.886  12.513  16.987  0.00  0.00    +0.000 C 
ENDBRANCH  31  32
ENDBRANCH  26  31
ENDBRANCH  25  26
ENDBRANCH  24  25
ENDBRANCH   1  24
TORSDOF 9
ENDMDL
MODEL 8
REMARK VINA RESULT:      -7.6      0.633      7.361
REMARK  Name = 
REMARK  11 active torsions:
REMARK  status: ('A' for Active; 'I' for Inactive)
REMARK    1  A    between atoms: C_1  and  C_2
REMARK    2  A    between atoms: C_2  and  O_3
REMARK    3  A    between atoms: O_3  and  P_4
REMARK    4  A    between atoms: P_4  and  C_6
REMARK    5  A    between atoms: P_4  and  O_31
REMARK    6  A    between atoms: C_6  and  C_7
REMARK    7  A    between atoms: C_7  and  N_8
REMARK    8  A    between atoms: C_11  and  C_12
REMARK    9  A    between atoms: C_22  and  C_23
REMARK   10  A    between atoms: O_31  and  C_32
REMARK   11  A    between atoms: C_32  and  C_33
REMARK                            x       y       z     vdW  Elec       q    Type
REMARK                         _______ _______ _______ _____ _____    ______ ____
ROOT
ATOM      1  N   UNL     1      -0.774  10.986  19.821  0.00  0.00    +0.000 NA
ATOM      2  C   UNL     1      -0.546   9.551  20.023  0.00  0.00    +0.000 C 
ATOM      3  C   UNL     1       0.244   9.332  21.278  0.00  0.00    +0.000 C 
ATOM      4  C   UNL     1       1.249   8.443  21.409  0.00  0.00    +0.000 C 
ATOM      5  C   UNL     1      -0.093  10.200  22.464  0.00  0.00    +0.000 C 
ATOM      6  O   UNL     1       0.374   9.976  23.575  0.00  0.00    +0.000 OA
ATOM      7  C   UNL     1      -1.031  11.346  22.228  0.00  0.00    +0.000 C 
ATOM      8  C   UNL     1      -1.232  12.261  23.204  0.00  0.00    +0.000 C 
ATOM      9  C   UNL     1      -1.676  11.433  20.888  0.00  0.00    +0.000 C 
ENDROOT
BRANCH   4  10
ATOM     10  C   UNL     1       1.688   7.553  20.325  0.00  0.00    +0.000 A 
ATOM     11  C   UNL     1       1.702   6.165  20.512  0.00  0.00    +0.000 A 
ATOM     12  C   UNL     1       2.184   5.323  19.509  0.00  0.00    +0.000 A 
ATOM     13  C   UNL     1       2.652   5.873  18.318  0.00  0.00    +0.000 A 
ATOM     14  F   UNL     1       3.130   5.067  17.362  0.00  0.00    +0.000 F 
ATOM     15  C   UNL     1       2.640   7.248  18.115  0.00  0.00    +0.000 A 
ATOM     16  C   UNL     1       2.159   8.091  19.118  0.00  0.00    +0.000 A 
ENDBRANCH   4  10
BRANCH   8  17
ATOM     17  C   UNL     1      -2.123  13.424  23.037  0.00  0.00    +0.000 A 
ATOM     18  C   UNL     1      -3.492  13.314  23.316  0.00  0.00    +0.000 A 
ATOM     19  C   UNL     1      -4.352  14.392  23.077  0.00  0.00    +0.000 A 
ATOM     20  C   UNL     1      -3.841  15.575  22.554  0.00  0.00    +0.000 A 
ATOM     21  F   UNL     1      -4.667  16.605  22.323  0.00  0.00    +0.000 F 
ATOM     22  C   UNL     1      -2.489  15.702  22.264  0.00  0.00    +0.000 A 
ATOM     23  C   UNL     1      -1.628  14.625  22.506  0.00  0.00    +0.000 A 
ENDBRANCH   8  17
BRANCH   1  24
ATOM     24  C   UNL     1      -1.385  11.235  18.508  0.00  0.00    +0.000 C 
BRANCH  24  25
ATOM     25  C   UNL     1      -2.802  11.794  18.637  0.00  0.00    +0.000 C 
BRANCH  25  26
ATOM     26  P   UNL     1      -4.108  10.829  17.718  0.00  0.00    +0.000 P 
ATOM     27  O   UNL     1      -4.716  11.795  16.689  0.00  0.00    +0.000 OA
BRANCH  26  28
ATOM     28  O   UNL     1      -5.305  11.376  18.841  0.00  0.00    +0.000 OA
BRANCH  28  30
ATOM     29  C   UNL     1      -7.182  10.402  19.975  0.00  0.00    +0.000 C 
ATOM     30  C   UNL     1      -6.560  10.735  18.637  0.00  0.00    +0.000 C 
ENDBRANCH  28  30
ENDBRANCH  26  28
BRANCH  26  31
ATOM     31  O   UNL     1      -2.912  10.280  16.596  0.00  0.00    +0.000 OA
BRANCH  31  32
ATOM     32  C   UNL     1      -2.887  10.890  15.306  0.00  0.00    +0.000 C 
ATOM     33  C   UNL     1      -3.072   9.835  14.235  0.00  0.00    +0.000 C 
ENDBRANCH  31  32
ENDBRANCH  26  31
ENDBRANCH  25  26
ENDBRANCH  24  25
ENDBRANCH   1  24
TORSDOF 9
ENDMDL
MODEL 9
REMARK VINA RESULT:      -7.5      0.741      7.396
REMARK  Name = 
REMARK  11 active torsions:
REMARK  status: ('A' for Active; 'I' for Inactive)
REMARK    1  A    between atoms: C_1  and  C_2
REMARK    2  A    between atoms: C_2  and  O_3
REMARK    3  A    between atoms: O_3  and  P_4
REMARK    4  A    between atoms: P_4  and  C_6
REMARK    5  A    between atoms: P_4  and  O_31
REMARK    6  A    between atoms: C_6  and  C_7
REMARK    7  A    between atoms: C_7  and  N_8
REMARK    8  A    between atoms: C_11  and  C_12
REMARK    9  A    between atoms: C_22  and  C_23
REMARK   10  A    between atoms: O_31  and  C_32
REMARK   11  A    between atoms: C_32  and  C_33
REMARK                            x       y       z     vdW  Elec       q    Type
REMARK                         _______ _______ _______ _____ _____    ______ ____
ROOT
ATOM      1  N   UNL     1      -0.701  11.062  19.777  0.00  0.00    +0.000 NA
ATOM      2  C   UNL     1      -0.495   9.623  19.976  0.00  0.00    +0.000 C 
ATOM      3  C   UNL     1       0.207   9.384  21.279  0.00  0.00    +0.000 C 
ATOM      4  C   UNL     1       1.196   8.487  21.467  0.00  0.00    +0.000 C 
ATOM      5  C   UNL     1      -0.206  10.239  22.450  0.00  0.00    +0.000 C 
ATOM      6  O   UNL     1       0.183   9.999  23.587  0.00  0.00    +0.000 OA
ATOM      7  C   UNL     1      -1.120  11.393  22.166  0.00  0.00    +0.000 C 
ATOM      8  C   UNL     1      -1.383  12.297  23.136  0.00  0.00    +0.000 C 
ATOM      9  C   UNL     1      -1.672  11.501  20.785  0.00  0.00    +0.000 C 
ENDROOT
BRANCH   4  10
ATOM     10  C   UNL     1       1.703   7.609  20.405  0.00  0.00    +0.000 A 
ATOM     11  C   UNL     1       2.115   8.148  19.178  0.00  0.00    +0.000 A 
ATOM     12  C   UNL     1       2.532   7.309  18.144  0.00  0.00    +0.000 A 
ATOM     13  C   UNL     1       2.536   5.930  18.338  0.00  0.00    +0.000 A 
ATOM     14  F   UNL     1       2.920   5.124  17.342  0.00  0.00    +0.000 F 
ATOM     15  C   UNL     1       2.135   5.380  19.551  0.00  0.00    +0.000 A 
ATOM     16  C   UNL     1       1.717   6.218  20.586  0.00  0.00    +0.000 A 
ENDBRANCH   4  10
BRANCH   8  17
ATOM     17  C   UNL     1      -2.255  13.468  22.924  0.00  0.00    +0.000 A 
ATOM     18  C   UNL     1      -1.722  14.667  22.431  0.00  0.00    +0.000 A 
ATOM     19  C   UNL     1      -2.531  15.804  22.309  0.00  0.00    +0.000 A 
ATOM     20  C   UNL     1      -3.867  15.739  22.687  0.00  0.00    +0.000 A 
ATOM     21  F   UNL     1      -4.638  16.829  22.573  0.00  0.00    +0.000 F 
ATOM     22  C   UNL     1      -4.412  14.563  23.185  0.00  0.00    +0.000 A 
ATOM     23  C   UNL     1      -3.605  13.425  23.304  0.00  0.00    +0.000 A 
ENDBRANCH   8  17
BRANCH   1  24
ATOM     24  C   UNL     1      -1.219  11.330  18.429  0.00  0.00    +0.000 C 
BRANCH  24  25
ATOM     25  C   UNL     1      -2.649  11.871  18.466  0.00  0.00    +0.000 C 
BRANCH  25  26
ATOM     26  P   UNL     1      -3.864  10.936  17.403  0.00  0.00    +0.000 P 
ATOM     27  O   UNL     1      -4.754  11.994  16.730  0.00  0.00    +0.000 OA
BRANCH  26  28
ATOM     28  O   UNL     1      -4.996  10.913  18.713  0.00  0.00    +0.000 OA
BRANCH  28  30
ATOM     29  C   UNL     1      -7.235  11.310  19.478  0.00  0.00    +0.000 C 
ATOM     30  C   UNL     1      -6.320  11.204  18.278  0.00  0.00    +0.000 C 
ENDBRANCH  28  30
ENDBRANCH  26  28
BRANCH  26  31
ATOM     31  O   UNL     1      -2.734  10.957  16.093  0.00  0.00    +0.000 OA
BRANCH  31  32
ATOM     32  C   UNL     1      -2.704   9.821  15.230  0.00  0.00    +0.000 C 
ATOM     33  C   UNL     1      -3.565  10.079  14.011  0.00  0.00    +0.000 C 
ENDBRANCH  31  32
ENDBRANCH  26  31
ENDBRANCH  25  26
ENDBRANCH  24  25
ENDBRANCH   1  24
TORSDOF 9
ENDMDL
