MODEL 1
REMARK VINA RESULT:      -7.1      0.000      0.000
REMARK  Name = 
REMARK  7 active torsions:
REMARK  status: ('A' for Active; 'I' for Inactive)
REMARK    1  A    between atoms: C_1  and  C_2
REMARK    2  A    between atoms: C_2  and  O_3
REMARK    3  A    between atoms: O_3  and  C_4
REMARK    4  A    between atoms: C_7  and  S_8
REMARK    5  A    between atoms: S_8  and  N_11
REMARK    6  A    between atoms: N_11  and  C_12
REMARK    7  A    between atoms: C_18  and  O_19
REMARK                            x       y       z     vdW  Elec       q    Type
REMARK                         _______ _______ _______ _____ _____    ______ ____
ROOT
ATOM      1  S   UNL     1       5.550   6.032  16.321  0.00  0.00    +0.000 S 
ATOM      2  O   UNL     1       5.019   6.852  15.254  0.00  0.00    +0.000 OA
ATOM      3  O   UNL     1       6.517   6.563  17.262  0.00  0.00    +0.000 OA
ENDROOT
BRANCH   1   7
ATOM      4  C   UNL     1       2.055   4.412  18.769  0.00  0.00    +0.000 A 
ATOM      5  C   UNL     1       2.462   5.743  18.920  0.00  0.00    +0.000 A 
ATOM      6  C   UNL     1       3.517   6.252  18.164  0.00  0.00    +0.000 A 
ATOM      7  C   UNL     1       4.179   5.410  17.268  0.00  0.00    +0.000 A 
ATOM      8  C   UNL     1       3.779   4.079  17.108  0.00  0.00    +0.000 A 
ATOM      9  C   UNL     1       2.725   3.579  17.874  0.00  0.00    +0.000 A 
BRANCH   4  10
ATOM     10  O   UNL     1       1.006   4.043  19.562  0.00  0.00    +0.000 OA
BRANCH  10  12
ATOM     11  C   UNL     1       1.879   3.132  21.574  0.00  0.00    +0.000 C 
ATOM     12  C   UNL     1       1.152   2.817  20.279  0.00  0.00    +0.000 C 
ENDBRANCH  10  12
ENDBRANCH   4  10
ENDBRANCH   1   7
BRANCH   1  13
ATOM     13  N   UNL     1       6.209   4.620  15.714  0.00  0.00    +0.000 N 
ATOM     14  H   UNL     1       6.689   4.017  16.378  0.00  0.00    +0.000 HD
BRANCH  13  15
ATOM     15  C   UNL     1       6.427   4.460  14.321  0.00  0.00    +0.000 A 
ATOM     16  C   UNL     1       5.535   3.661  13.613  0.00  0.00    +0.000 A 
ATOM     17  C   UNL     1       5.725   3.463  12.248  0.00  0.00    +0.000 A 
ATOM     18 CL   UNL     1       4.618   2.482  11.371  0.00  0.00    +0.000 Cl
ATOM     19  C   UNL     1       6.807   4.050  11.589  0.00  0.00    +0.000 A 
ATOM     20  C   UNL     1       7.710   4.843  12.300  0.00  0.00    +0.000 A 
ATOM     21  C   UNL     1       7.520   5.040  13.672  0.00  0.00    +0.000 A 
BRANCH  21  22
ATOM     22  O   UNL     1       8.420   5.781  14.385  0.00  0.00    +0.000 OA
ATOM     23  H   UNL     1       8.171   6.719  14.343  0.00  0.00    +0.000 HD
ENDBRANCH  21  22
ENDBRANCH  13  15
ENDBRANCH   1  13
TORSDOF 6
ENDMDL
MODEL 2
REMARK VINA RESULT:      -7.1      4.050      7.134
REMARK  Name = 
REMARK  7 active torsions:
REMARK  status: ('A' for Active; 'I' for Inactive)
REMARK    1  A    between atoms: C_1  and  C_2
REMARK    2  A    between atoms: C_2  and  O_3
REMARK    3  A    between atoms: O_3  and  C_4
REMARK    4  A    between atoms: C_7  and  S_8
REMARK    5  A    between atoms: S_8  and  N_11
REMARK    6  A    between atoms: N_11  and  C_12
REMARK    7  A    between atoms: C_18  and  O_19
REMARK                            x       y       z     vdW  Elec       q    Type
REMARK                         _______ _______ _______ _____ _____    ______ ____
ROOT
ATOM      1  S   UNL     1       5.133   4.209  16.836  0.00  0.00    +0.000 S 
ATOM      2  O   UNL     1       3.957   4.873  16.318  0.00  0.00    +0.000 OA
ATOM      3  O   UNL     1       5.913   3.312  16.005  0.00  0.00    +0.000 OA
ENDROOT
BRANCH   1   7
ATOM      4  C   UNL     1       8.009   7.393  18.393  0.00  0.00    +0.000 A 
ATOM      5  C   UNL     1       7.129   7.692  17.347  0.00  0.00    +0.000 A 
ATOM      6  C   UNL     1       6.234   6.732  16.876  0.00  0.00    +0.000 A 
ATOM      7  C   UNL     1       6.242   5.458  17.447  0.00  0.00    +0.000 A 
ATOM      8  C   UNL     1       7.118   5.149  18.494  0.00  0.00    +0.000 A 
ATOM      9  C   UNL     1       8.012   6.117  18.954  0.00  0.00    +0.000 A 
BRANCH   4  10
ATOM     10  O   UNL     1       8.826   8.424  18.763  0.00  0.00    +0.000 OA
BRANCH  10  12
ATOM     11  C   UNL     1       9.457  10.711  18.860  0.00  0.00    +0.000 C 
ATOM     12  C   UNL     1       8.503   9.710  18.234  0.00  0.00    +0.000 C 
ENDBRANCH  10  12
ENDBRANCH   4  10
ENDBRANCH   1   7
BRANCH   1  13
ATOM     13  N   UNL     1       4.773   3.364  18.234  0.00  0.00    +0.000 N 
ATOM     14  H   UNL     1       5.370   2.570  18.454  0.00  0.00    +0.000 HD
BRANCH  13  15
ATOM     15  C   UNL     1       3.506   3.497  18.856  0.00  0.00    +0.000 A 
ATOM     16  C   UNL     1       3.197   4.720  19.445  0.00  0.00    +0.000 A 
ATOM     17  C   UNL     1       1.971   4.884  20.084  0.00  0.00    +0.000 A 
ATOM     18 CL   UNL     1       1.587   6.398  20.804  0.00  0.00    +0.000 Cl
ATOM     19  C   UNL     1       1.056   3.833  20.147  0.00  0.00    +0.000 A 
ATOM     20  C   UNL     1       1.368   2.601  19.566  0.00  0.00    +0.000 A 
ATOM     21  C   UNL     1       2.601   2.435  18.927  0.00  0.00    +0.000 A 
BRANCH  21  22
ATOM     22  O   UNL     1       2.932   1.222  18.391  0.00  0.00    +0.000 OA
ATOM     23  H   UNL     1       2.964   1.295  17.423  0.00  0.00    +0.000 HD
ENDBRANCH  21  22
ENDBRANCH  13  15
ENDBRANCH   1  13
TORSDOF 6
ENDMDL
MODEL 3
REMARK VINA RESULT:      -7.1      0.298      1.091
REMARK  Name = 
REMARK  7 active torsions:
REMARK  status: ('A' for Active; 'I' for Inactive)
REMARK    1  A    between atoms: C_1  and  C_2
REMARK    2  A    between atoms: C_2  and  O_3
REMARK    3  A    between atoms: O_3  and  C_4
REMARK    4  A    between atoms: C_7  and  S_8
REMARK    5  A    between atoms: S_8  and  N_11
REMARK    6  A    between atoms: N_11  and  C_12
REMARK    7  A    between atoms: C_18  and  O_19
REMARK                            x       y       z     vdW  Elec       q    Type
REMARK                         _______ _______ _______ _____ _____    ______ ____
ROOT
ATOM      1  S   UNL     1       5.556   5.844  16.469  0.00  0.00    +0.000 S 
ATOM      2  O   UNL     1       5.064   6.768  15.471  0.00  0.00    +0.000 OA
ATOM      3  O   UNL     1       6.649   6.206  17.350  0.00  0.00    +0.000 OA
ENDROOT
BRANCH   1   7
ATOM      4  C   UNL     1       2.016   4.659  19.096  0.00  0.00    +0.000 A 
ATOM      5  C   UNL     1       2.480   3.785  18.105  0.00  0.00    +0.000 A 
ATOM      6  C   UNL     1       3.571   4.131  17.310  0.00  0.00    +0.000 A 
ATOM      7  C   UNL     1       4.185   5.371  17.499  0.00  0.00    +0.000 A 
ATOM      8  C   UNL     1       3.730   6.251  18.488  0.00  0.00    +0.000 A 
ATOM      9  C   UNL     1       2.633   5.896  19.275  0.00  0.00    +0.000 A 
BRANCH   4  10
ATOM     10  O   UNL     1       0.947   4.195  19.809  0.00  0.00    +0.000 OA
BRANCH  10  12
ATOM     11  C   UNL     1       1.812   2.988  21.662  0.00  0.00    +0.000 C 
ATOM     12  C   UNL     1       1.065   2.877  20.345  0.00  0.00    +0.000 C 
ENDBRANCH  10  12
ENDBRANCH   4  10
ENDBRANCH   1   7
BRANCH   1  13
ATOM     13  N   UNL     1       5.975   4.382  15.773  0.00  0.00    +0.000 N 
ATOM     14  H   UNL     1       6.241   3.633  16.408  0.00  0.00    +0.000 HD
BRANCH  13  15
ATOM     15  C   UNL     1       6.314   4.304  14.398  0.00  0.00    +0.000 A 
ATOM     16  C   UNL     1       5.559   3.458  13.591  0.00  0.00    +0.000 A 
ATOM     17  C   UNL     1       5.873   3.338  12.239  0.00  0.00    +0.000 A 
ATOM     18 CL   UNL     1       4.935   2.298  11.240  0.00  0.00    +0.000 Cl
ATOM     19  C   UNL     1       6.941   4.050  11.692  0.00  0.00    +0.000 A 
ATOM     20  C   UNL     1       7.706   4.892  12.502  0.00  0.00    +0.000 A 
ATOM     21  C   UNL     1       7.393   5.010  13.861  0.00  0.00    +0.000 A 
BRANCH  21  22
ATOM     22  O   UNL     1       8.160   5.799  14.670  0.00  0.00    +0.000 OA
ATOM     23  H   UNL     1       8.831   5.253  15.112  0.00  0.00    +0.000 HD
ENDBRANCH  21  22
ENDBRANCH  13  15
ENDBRANCH   1  13
TORSDOF 6
ENDMDL
MODEL 4
REMARK VINA RESULT:      -7.0      1.293      1.566
REMARK  Name = 
REMARK  7 active torsions:
REMARK  status: ('A' for Active; 'I' for Inactive)
REMARK    1  A    between atoms: C_1  and  C_2
REMARK    2  A    between atoms: C_2  and  O_3
REMARK    3  A    between atoms: O_3  and  C_4
REMARK    4  A    between atoms: C_7  and  S_8
REMARK    5  A    between atoms: S_8  and  N_11
REMARK    6  A    between atoms: N_11  and  C_12
REMARK    7  A    between atoms: C_18  and  O_19
REMARK                            x       y       z     vdW  Elec       q    Type
REMARK                         _______ _______ _______ _____ _____    ______ ____
ROOT
ATOM      1  S   UNL     1       6.335   5.786  16.339  0.00  0.00    +0.000 S 
ATOM      2  O   UNL     1       5.487   6.563  15.461  0.00  0.00    +0.000 OA
ATOM      3  O   UNL     1       7.247   6.432  17.263  0.00  0.00    +0.000 OA
ENDROOT
BRANCH   1   7
ATOM      4  C   UNL     1       3.645   3.051  18.813  0.00  0.00    +0.000 A 
ATOM      5  C   UNL     1       3.430   3.191  17.437  0.00  0.00    +0.000 A 
ATOM      6  C   UNL     1       4.257   4.010  16.669  0.00  0.00    +0.000 A 
ATOM      7  C   UNL     1       5.292   4.708  17.295  0.00  0.00    +0.000 A 
ATOM      8  C   UNL     1       5.516   4.575  18.670  0.00  0.00    +0.000 A 
ATOM      9  C   UNL     1       4.679   3.756  19.429  0.00  0.00    +0.000 A 
BRANCH   4  10
ATOM     10  O   UNL     1       2.770   2.214  19.444  0.00  0.00    +0.000 OA
BRANCH  10  12
ATOM     11  C   UNL     1       1.022   3.622  20.220  0.00  0.00    +0.000 C 
ATOM     12  C   UNL     1       2.163   2.712  20.637  0.00  0.00    +0.000 C 
ENDBRANCH  10  12
ENDBRANCH   4  10
ENDBRANCH   1   7
BRANCH   1  13
ATOM     13  N   UNL     1       7.246   4.687  15.467  0.00  0.00    +0.000 N 
ATOM     14  H   UNL     1       8.077   4.319  15.923  0.00  0.00    +0.000 HD
BRANCH  13  15
ATOM     15  C   UNL     1       7.096   4.573  14.061  0.00  0.00    +0.000 A 
ATOM     16  C   UNL     1       6.119   3.705  13.581  0.00  0.00    +0.000 A 
ATOM     17  C   UNL     1       5.954   3.550  12.207  0.00  0.00    +0.000 A 
ATOM     18 CL   UNL     1       4.742   2.484  11.615  0.00  0.00    +0.000 Cl
ATOM     19  C   UNL     1       6.764   4.248  11.311  0.00  0.00    +0.000 A 
ATOM     20  C   UNL     1       7.752   5.112  11.790  0.00  0.00    +0.000 A 
ATOM     21  C   UNL     1       7.920   5.266  13.171  0.00  0.00    +0.000 A 
BRANCH  21  22
ATOM     22  O   UNL     1       8.910   6.076  13.650  0.00  0.00    +0.000 OA
ATOM     23  H   UNL     1       8.517   6.778  14.195  0.00  0.00    +0.000 HD
ENDBRANCH  21  22
ENDBRANCH  13  15
ENDBRANCH   1  13
TORSDOF 6
ENDMDL
MODEL 5
REMARK VINA RESULT:      -7.0      3.516      6.967
REMARK  Name = 
REMARK  7 active torsions:
REMARK  status: ('A' for Active; 'I' for Inactive)
REMARK    1  A    between atoms: C_1  and  C_2
REMARK    2  A    between atoms: C_2  and  O_3
REMARK    3  A    between atoms: O_3  and  C_4
REMARK    4  A    between atoms: C_7  and  S_8
REMARK    5  A    between atoms: S_8  and  N_11
REMARK    6  A    between atoms: N_11  and  C_12
REMARK    7  A    between atoms: C_18  and  O_19
REMARK                            x       y       z     vdW  Elec       q    Type
REMARK                         _______ _______ _______ _____ _____    ______ ____
ROOT
ATOM      1  S   UNL     1       3.689   2.789  18.625  0.00  0.00    +0.000 S 
ATOM      2  O   UNL     1       3.724   1.717  17.655  0.00  0.00    +0.000 OA
ATOM      3  O   UNL     1       3.951   2.538  20.029  0.00  0.00    +0.000 OA
ENDROOT
BRANCH   1   7
ATOM      4  C   UNL     1       6.586   6.036  17.247  0.00  0.00    +0.000 A 
ATOM      5  C   UNL     1       6.460   5.739  18.609  0.00  0.00    +0.000 A 
ATOM      6  C   UNL     1       5.591   4.737  19.038  0.00  0.00    +0.000 A 
ATOM      7  C   UNL     1       4.829   4.047  18.093  0.00  0.00    +0.000 A 
ATOM      8  C   UNL     1       4.948   4.335  16.729  0.00  0.00    +0.000 A 
ATOM      9  C   UNL     1       5.818   5.344  16.311  0.00  0.00    +0.000 A 
BRANCH   4  10
ATOM     10  O   UNL     1       7.476   7.032  16.961  0.00  0.00    +0.000 OA
BRANCH  10  12
ATOM     11  C   UNL     1       8.073   9.172  17.802  0.00  0.00    +0.000 C 
ATOM     12  C   UNL     1       8.085   7.679  18.079  0.00  0.00    +0.000 C 
ENDBRANCH  10  12
ENDBRANCH   4  10
ENDBRANCH   1   7
BRANCH   1  13
ATOM     13  N   UNL     1       2.230   3.606  18.557  0.00  0.00    +0.000 N 
ATOM     14  H   UNL     1       1.537   3.250  17.903  0.00  0.00    +0.000 HD
BRANCH  13  15
ATOM     15  C   UNL     1       2.110   4.921  19.076  0.00  0.00    +0.000 A 
ATOM     16  C   UNL     1       2.276   5.985  18.194  0.00  0.00    +0.000 A 
ATOM     17  C   UNL     1       2.186   7.291  18.670  0.00  0.00    +0.000 A 
ATOM     18 CL   UNL     1       2.383   8.605  17.578  0.00  0.00    +0.000 Cl
ATOM     19  C   UNL     1       1.940   7.540  20.021  0.00  0.00    +0.000 A 
ATOM     20  C   UNL     1       1.784   6.473  20.909  0.00  0.00    +0.000 A 
ATOM     21  C   UNL     1       1.878   5.161  20.433  0.00  0.00    +0.000 A 
BRANCH  21  22
ATOM     22  O   UNL     1       1.767   4.112  21.300  0.00  0.00    +0.000 OA
ATOM     23  H   UNL     1       2.607   3.625  21.328  0.00  0.00    +0.000 HD
ENDBRANCH  21  22
ENDBRANCH  13  15
ENDBRANCH   1  13
TORSDOF 6
ENDMDL
MODEL 6
REMARK VINA RESULT:      -6.9      3.205      6.889
REMARK  Name = 
REMARK  7 active torsions:
REMARK  status: ('A' for Active; 'I' for Inactive)
REMARK    1  A    between atoms: C_1  and  C_2
REMARK    2  A    between atoms: C_2  and  O_3
REMARK    3  A    between atoms: O_3  and  C_4
REMARK    4  A    between atoms: C_7  and  S_8
REMARK    5  A    between atoms: S_8  and  N_11
REMARK    6  A    between atoms: N_11  and  C_12
REMARK    7  A    between atoms: C_18  and  O_19
REMARK                            x       y       z     vdW  Elec       q    Type
REMARK                         _______ _______ _______ _____ _____    ______ ____
ROOT
ATOM      1  S   UNL     1       6.145   4.831  18.574  0.00  0.00    +0.000 S 
ATOM      2  O   UNL     1       7.518   4.950  19.014  0.00  0.00    +0.000 OA
ATOM      3  O   UNL     1       5.177   5.874  18.853  0.00  0.00    +0.000 OA
ENDROOT
BRANCH   1   7
ATOM      4  C   UNL     1       6.145   4.214  14.051  0.00  0.00    +0.000 A 
ATOM      5  C   UNL     1       7.303   4.656  14.700  0.00  0.00    +0.000 A 
ATOM      6  C   UNL     1       7.319   4.831  16.084  0.00  0.00    +0.000 A 
ATOM      7  C   UNL     1       6.155   4.580  16.813  0.00  0.00    +0.000 A 
ATOM      8  C   UNL     1       4.992   4.135  16.174  0.00  0.00    +0.000 A 
ATOM      9  C   UNL     1       4.987   3.969  14.789  0.00  0.00    +0.000 A 
BRANCH   4  10
ATOM     10  O   UNL     1       6.267   4.076  12.698  0.00  0.00    +0.000 OA
BRANCH  10  12
ATOM     11  C   UNL     1       4.438   3.264  11.419  0.00  0.00    +0.000 C 
ATOM     12  C   UNL     1       5.725   2.884  12.129  0.00  0.00    +0.000 C 
ENDBRANCH  10  12
ENDBRANCH   4  10
ENDBRANCH   1   7
BRANCH   1  13
ATOM     13  N   UNL     1       5.467   3.401  19.115  0.00  0.00    +0.000 N 
ATOM     14  H   UNL     1       6.054   2.571  19.069  0.00  0.00    +0.000 HD
BRANCH  13  15
ATOM     15  C   UNL     1       4.061   3.273  19.259  0.00  0.00    +0.000 A 
ATOM     16  C   UNL     1       3.371   4.325  19.853  0.00  0.00    +0.000 A 
ATOM     17  C   UNL     1       1.993   4.229  20.031  0.00  0.00    +0.000 A 
ATOM     18 CL   UNL     1       1.140   5.533  20.758  0.00  0.00    +0.000 Cl
ATOM     19  C   UNL     1       1.303   3.085  19.627  0.00  0.00    +0.000 A 
ATOM     20  C   UNL     1       1.995   2.024  19.040  0.00  0.00    +0.000 A 
ATOM     21  C   UNL     1       3.380   2.118  18.864  0.00  0.00    +0.000 A 
BRANCH  21  22
ATOM     22  O   UNL     1       4.072   1.069  18.329  0.00  0.00    +0.000 OA
ATOM     23  H   UNL     1       4.057   1.134  17.359  0.00  0.00    +0.000 HD
ENDBRANCH  21  22
ENDBRANCH  13  15
ENDBRANCH   1  13
TORSDOF 6
ENDMDL
MODEL 7
REMARK VINA RESULT:      -6.8      0.920      1.396
REMARK  Name = 
REMARK  7 active torsions:
REMARK  status: ('A' for Active; 'I' for Inactive)
REMARK    1  A    between atoms: C_1  and  C_2
REMARK    2  A    between atoms: C_2  and  O_3
REMARK    3  A    between atoms: O_3  and  C_4
REMARK    4  A    between atoms: C_7  and  S_8
REMARK    5  A    between atoms: S_8  and  N_11
REMARK    6  A    between atoms: N_11  and  C_12
REMARK    7  A    between atoms: C_18  and  O_19
REMARK                            x       y       z     vdW  Elec       q    Type
REMARK                         _______ _______ _______ _____ _____    ______ ____
ROOT
ATOM      1  S   UNL     1       5.949   6.169  16.223  0.00  0.00    +0.000 S 
ATOM      2  O   UNL     1       5.103   6.822  15.248  0.00  0.00    +0.000 OA
ATOM      3  O   UNL     1       7.031   6.884  16.874  0.00  0.00    +0.000 OA
ENDROOT
BRANCH   1   7
ATOM      4  C   UNL     1       3.234   4.497  19.490  0.00  0.00    +0.000 A 
ATOM      5  C   UNL     1       4.282   3.720  18.980  0.00  0.00    +0.000 A 
ATOM      6  C   UNL     1       5.127   4.228  17.995  0.00  0.00    +0.000 A 
ATOM      7  C   UNL     1       4.903   5.517  17.506  0.00  0.00    +0.000 A 
ATOM      8  C   UNL     1       3.860   6.302  18.009  0.00  0.00    +0.000 A 
ATOM      9  C   UNL     1       3.017   5.781  18.992  0.00  0.00    +0.000 A 
BRANCH   4  10
ATOM     10  O   UNL     1       2.488   3.883  20.455  0.00  0.00    +0.000 OA
BRANCH  10  12
ATOM     11  C   UNL     1       0.812   2.723  19.235  0.00  0.00    +0.000 C 
ATOM     12  C   UNL     1       1.078   3.837  20.233  0.00  0.00    +0.000 C 
ENDBRANCH  10  12
ENDBRANCH   4  10
ENDBRANCH   1   7
BRANCH   1  13
ATOM     13  N   UNL     1       6.619   4.773  15.592  0.00  0.00    +0.000 N 
ATOM     14  H   UNL     1       7.209   4.227  16.215  0.00  0.00    +0.000 HD
BRANCH  13  15
ATOM     15  C   UNL     1       6.683   4.568  14.189  0.00  0.00    +0.000 A 
ATOM     16  C   UNL     1       5.717   3.752  13.608  0.00  0.00    +0.000 A 
ATOM     17  C   UNL     1       5.757   3.510  12.237  0.00  0.00    +0.000 A 
ATOM     18 CL   UNL     1       4.559   2.508  11.518  0.00  0.00    +0.000 Cl
ATOM     19  C   UNL     1       6.761   4.070  11.446  0.00  0.00    +0.000 A 
ATOM     20  C   UNL     1       7.738   4.881  12.029  0.00  0.00    +0.000 A 
ATOM     21  C   UNL     1       7.700   5.122  13.407  0.00  0.00    +0.000 A 
BRANCH  21  22
ATOM     22  O   UNL     1       8.673   5.880  13.993  0.00  0.00    +0.000 OA
ATOM     23  H   UNL     1       9.182   6.340  13.306  0.00  0.00    +0.000 HD
ENDBRANCH  21  22
ENDBRANCH  13  15
ENDBRANCH   1  13
TORSDOF 6
ENDMDL
MODEL 8
REMARK VINA RESULT:      -6.8      3.556      7.021
REMARK  Name = 
REMARK  7 active torsions:
REMARK  status: ('A' for Active; 'I' for Inactive)
REMARK    1  A    between atoms: C_1  and  C_2
REMARK    2  A    between atoms: C_2  and  O_3
REMARK    3  A    between atoms: O_3  and  C_4
REMARK    4  A    between atoms: C_7  and  S_8
REMARK    5  A    between atoms: S_8  and  N_11
REMARK    6  A    between atoms: N_11  and  C_12
REMARK    7  A    between atoms: C_18  and  O_19
REMARK                            x       y       z     vdW  Elec       q    Type
REMARK                         _______ _______ _______ _____ _____    ______ ____
ROOT
ATOM      1  S   UNL     1       3.717   2.827  18.592  0.00  0.00    +0.000 S 
ATOM      2  O   UNL     1       3.799   1.766  17.612  0.00  0.00    +0.000 OA
ATOM      3  O   UNL     1       3.880   2.554  20.006  0.00  0.00    +0.000 OA
ENDROOT
BRANCH   1   7
ATOM      4  C   UNL     1       6.816   5.990  17.482  0.00  0.00    +0.000 A 
ATOM      5  C   UNL     1       6.062   5.363  16.483  0.00  0.00    +0.000 A 
ATOM      6  C   UNL     1       5.101   4.408  16.813  0.00  0.00    +0.000 A 
ATOM      7  C   UNL     1       4.914   4.069  18.154  0.00  0.00    +0.000 A 
ATOM      8  C   UNL     1       5.661   4.691  19.161  0.00  0.00    +0.000 A 
ATOM      9  C   UNL     1       6.624   5.641  18.818  0.00  0.00    +0.000 A 
BRANCH   4  10
ATOM     10  O   UNL     1       7.716   6.910  17.024  0.00  0.00    +0.000 OA
BRANCH  10  12
ATOM     11  C   UNL     1       8.548   8.718  18.319  0.00  0.00    +0.000 C 
ATOM     12  C   UNL     1       7.458   8.273  17.362  0.00  0.00    +0.000 C 
ENDBRANCH  10  12
ENDBRANCH   4  10
ENDBRANCH   1   7
BRANCH   1  13
ATOM     13  N   UNL     1       2.282   3.673  18.436  0.00  0.00    +0.000 N 
ATOM     14  H   UNL     1       1.642   3.356  17.713  0.00  0.00    +0.000 HD
BRANCH  13  15
ATOM     15  C   UNL     1       2.138   4.967  19.000  0.00  0.00    +0.000 A 
ATOM     16  C   UNL     1       2.367   6.063  18.174  0.00  0.00    +0.000 A 
ATOM     17  C   UNL     1       2.255   7.350  18.694  0.00  0.00    +0.000 A 
ATOM     18 CL   UNL     1       2.530   8.705  17.672  0.00  0.00    +0.000 Cl
ATOM     19  C   UNL     1       1.926   7.548  20.036  0.00  0.00    +0.000 A 
ATOM     20  C   UNL     1       1.706   6.448  20.869  0.00  0.00    +0.000 A 
ATOM     21  C   UNL     1       1.822   5.155  20.348  0.00  0.00    +0.000 A 
BRANCH  21  22
ATOM     22  O   UNL     1       1.649   4.073  21.163  0.00  0.00    +0.000 OA
ATOM     23  H   UNL     1       1.857   3.262  20.672  0.00  0.00    +0.000 HD
ENDBRANCH  21  22
ENDBRANCH  13  15
ENDBRANCH   1  13
TORSDOF 6
ENDMDL
MODEL 9
REMARK VINA RESULT:      -6.8      3.169      6.941
REMARK  Name = 
REMARK  7 active torsions:
REMARK  status: ('A' for Active; 'I' for Inactive)
REMARK    1  A    between atoms: C_1  and  C_2
REMARK    2  A    between atoms: C_2  and  O_3
REMARK    3  A    between atoms: O_3  and  C_4
REMARK    4  A    between atoms: C_7  and  S_8
REMARK    5  A    between atoms: S_8  and  N_11
REMARK    6  A    between atoms: N_11  and  C_12
REMARK    7  A    between atoms: C_18  and  O_19
REMARK                            x       y       z     vdW  Elec       q    Type
REMARK                         _______ _______ _______ _____ _____    ______ ____
ROOT
ATOM      1  S   UNL     1       6.094   4.950  18.340  0.00  0.00    +0.000 S 
ATOM      2  O   UNL     1       7.433   5.128  18.859  0.00  0.00    +0.000 OA
ATOM      3  O   UNL     1       5.079   5.969  18.526  0.00  0.00    +0.000 OA
ENDROOT
BRANCH   1   7
ATOM      4  C   UNL     1       6.449   4.145  13.861  0.00  0.00    +0.000 A 
ATOM      5  C   UNL     1       5.316   3.719  14.565  0.00  0.00    +0.000 A 
ATOM      6  C   UNL     1       5.190   3.975  15.929  0.00  0.00    +0.000 A 
ATOM      7  C   UNL     1       6.221   4.645  16.592  0.00  0.00    +0.000 A 
ATOM      8  C   UNL     1       7.357   5.076  15.898  0.00  0.00    +0.000 A 
ATOM      9  C   UNL     1       7.474   4.809  14.534  0.00  0.00    +0.000 A 
BRANCH   4  10
ATOM     10  O   UNL     1       6.442   3.836  12.531  0.00  0.00    +0.000 OA
BRANCH  10  12
ATOM     11  C   UNL     1       5.680   1.919  11.355  0.00  0.00    +0.000 C 
ATOM     12  C   UNL     1       5.260   3.212  12.030  0.00  0.00    +0.000 C 
ENDBRANCH  10  12
ENDBRANCH   4  10
ENDBRANCH   1   7
BRANCH   1  13
ATOM     13  N   UNL     1       5.429   3.516  18.886  0.00  0.00    +0.000 N 
ATOM     14  H   UNL     1       6.008   2.684  18.804  0.00  0.00    +0.000 HD
BRANCH  13  15
ATOM     15  C   UNL     1       4.030   3.394  19.083  0.00  0.00    +0.000 A 
ATOM     16  C   UNL     1       3.382   4.409  19.780  0.00  0.00    +0.000 A 
ATOM     17  C   UNL     1       2.012   4.317  20.012  0.00  0.00    +0.000 A 
ATOM     18 CL   UNL     1       1.210   5.576  20.865  0.00  0.00    +0.000 Cl
ATOM     19  C   UNL     1       1.288   3.212  19.562  0.00  0.00    +0.000 A 
ATOM     20  C   UNL     1       1.938   2.186  18.872  0.00  0.00    +0.000 A 
ATOM     21  C   UNL     1       3.315   2.277  18.641  0.00  0.00    +0.000 A 
BRANCH  21  22
ATOM     22  O   UNL     1       3.968   1.261  18.004  0.00  0.00    +0.000 OA
ATOM     23  H   UNL     1       3.328   0.576  17.748  0.00  0.00    +0.000 HD
ENDBRANCH  21  22
ENDBRANCH  13  15
ENDBRANCH   1  13
TORSDOF 6
ENDMDL
