MODEL 1
REMARK VINA RESULT:      -7.0      0.000      0.000
REMARK  Name = 
REMARK  6 active torsions:
REMARK  status: ('A' for Active; 'I' for Inactive)
REMARK    1  A    between atoms: C_1  and  C_2
REMARK    2  A    between atoms: C_2  and  O_3
REMARK    3  A    between atoms: O_3  and  C_4
REMARK    4  A    between atoms: C_4  and  C_6
REMARK    5  A    between atoms: C_6  and  N_7
REMARK    6  A    between atoms: C_8  and  C_9
REMARK                            x       y       z     vdW  Elec       q    Type
REMARK                         _______ _______ _______ _____ _____    ______ ____
ROOT
ATOM      1  N   UNL     1       3.215   5.541  17.575  0.00  0.00    +0.000 N 
ATOM      2  C   UNL     1       3.444   6.865  17.914  0.00  0.00    +0.000 A 
ATOM      3  N   UNL     1       4.649   7.235  17.507  0.00  0.00    +0.000 NA
ATOM      4  C   UNL     1       5.219   6.130  16.932  0.00  0.00    +0.000 A 
ATOM      5  C   UNL     1       6.500   5.978  16.381  0.00  0.00    +0.000 A 
ATOM      6  C   UNL     1       6.854   4.743  15.827  0.00  0.00    +0.000 A 
ATOM      7  C   UNL     1       5.945   3.684  15.813  0.00  0.00    +0.000 A 
ATOM      8  C   UNL     1       4.667   3.817  16.366  0.00  0.00    +0.000 A 
ATOM      9  C   UNL     1       4.337   5.057  16.931  0.00  0.00    +0.000 A 
ENDROOT
BRANCH   2  10
ATOM     10  C   UNL     1       2.486   7.744  18.596  0.00  0.00    +0.000 A 
ATOM     11  C   UNL     1       1.880   8.798  17.923  0.00  0.00    +0.000 A 
ATOM     12  C   UNL     1       0.974   9.598  18.613  0.00  0.00    +0.000 A 
ATOM     13  C   UNL     1       0.714   9.331  19.953  0.00  0.00    +0.000 A 
ATOM     14  C   UNL     1       1.368   8.266  20.546  0.00  0.00    +0.000 A 
ATOM     15  N   UNL     1       2.241   7.465  19.898  0.00  0.00    +0.000 NA
ENDBRANCH   2  10
BRANCH   1  16
ATOM     16  C   UNL     1       2.017   4.770  17.863  0.00  0.00    +0.000 C 
BRANCH  16  17
ATOM     17  C   UNL     1       2.246   3.514  18.669  0.00  0.00    +0.000 C 
ATOM     18  O   UNL     1       1.857   2.408  18.311  0.00  0.00    +0.000 OA
BRANCH  17  19
ATOM     19  O   UNL     1       2.762   3.792  19.899  0.00  0.00    +0.000 OA
BRANCH  19  21
ATOM     20  C   UNL     1       1.497   2.714  21.669  0.00  0.00    +0.000 C 
ATOM     21  C   UNL     1       1.824   4.013  20.961  0.00  0.00    +0.000 C 
ENDBRANCH  19  21
ENDBRANCH  17  19
ENDBRANCH  16  17
ENDBRANCH   1  16
TORSDOF 5
ENDMDL
MODEL 2
REMARK VINA RESULT:      -7.0      2.336      4.448
REMARK  Name = 
REMARK  6 active torsions:
REMARK  status: ('A' for Active; 'I' for Inactive)
REMARK    1  A    between atoms: C_1  and  C_2
REMARK    2  A    between atoms: C_2  and  O_3
REMARK    3  A    between atoms: O_3  and  C_4
REMARK    4  A    between atoms: C_4  and  C_6
REMARK    5  A    between atoms: C_6  and  N_7
REMARK    6  A    between atoms: C_8  and  C_9
REMARK                            x       y       z     vdW  Elec       q    Type
REMARK                         _______ _______ _______ _____ _____    ______ ____
ROOT
ATOM      1  N   UNL     1       4.328   5.830  18.310  0.00  0.00    +0.000 N 
ATOM      2  C   UNL     1       4.353   4.794  19.230  0.00  0.00    +0.000 A 
ATOM      3  N   UNL     1       5.578   4.644  19.710  0.00  0.00    +0.000 NA
ATOM      4  C   UNL     1       6.361   5.567  19.069  0.00  0.00    +0.000 A 
ATOM      5  C   UNL     1       7.740   5.796  19.186  0.00  0.00    +0.000 A 
ATOM      6  C   UNL     1       8.320   6.823  18.434  0.00  0.00    +0.000 A 
ATOM      7  C   UNL     1       7.540   7.613  17.589  0.00  0.00    +0.000 A 
ATOM      8  C   UNL     1       6.165   7.392  17.455  0.00  0.00    +0.000 A 
ATOM      9  C   UNL     1       5.604   6.348  18.205  0.00  0.00    +0.000 A 
ENDROOT
BRANCH   2  10
ATOM     10  C   UNL     1       3.192   3.995  19.639  0.00  0.00    +0.000 A 
ATOM     11  C   UNL     1       2.419   4.366  20.732  0.00  0.00    +0.000 A 
ATOM     12  C   UNL     1       1.324   3.579  21.075  0.00  0.00    +0.000 A 
ATOM     13  C   UNL     1       1.045   2.440  20.327  0.00  0.00    +0.000 A 
ATOM     14  C   UNL     1       1.872   2.140  19.259  0.00  0.00    +0.000 A 
ATOM     15  N   UNL     1       2.932   2.893  18.896  0.00  0.00    +0.000 NA
ENDBRANCH   2  10
BRANCH   1  16
ATOM     16  C   UNL     1       3.174   6.288  17.556  0.00  0.00    +0.000 C 
BRANCH  16  17
ATOM     17  C   UNL     1       2.572   7.586  18.040  0.00  0.00    +0.000 C 
ATOM     18  O   UNL     1       2.456   8.578  17.329  0.00  0.00    +0.000 OA
BRANCH  17  19
ATOM     19  O   UNL     1       2.353   7.568  19.385  0.00  0.00    +0.000 OA
BRANCH  19  21
ATOM     20  C   UNL     1       1.004   8.222  21.295  0.00  0.00    +0.000 C 
ATOM     21  C   UNL     1       1.512   8.600  19.919  0.00  0.00    +0.000 C 
ENDBRANCH  19  21
ENDBRANCH  17  19
ENDBRANCH  16  17
ENDBRANCH   1  16
TORSDOF 5
ENDMDL
MODEL 3
REMARK VINA RESULT:      -6.9      2.366      4.759
REMARK  Name = 
REMARK  6 active torsions:
REMARK  status: ('A' for Active; 'I' for Inactive)
REMARK    1  A    between atoms: C_1  and  C_2
REMARK    2  A    between atoms: C_2  and  O_3
REMARK    3  A    between atoms: O_3  and  C_4
REMARK    4  A    between atoms: C_4  and  C_6
REMARK    5  A    between atoms: C_6  and  N_7
REMARK    6  A    between atoms: C_8  and  C_9
REMARK                            x       y       z     vdW  Elec       q    Type
REMARK                         _______ _______ _______ _____ _____    ______ ____
ROOT
ATOM      1  N   UNL     1       4.286   5.844  18.274  0.00  0.00    +0.000 N 
ATOM      2  C   UNL     1       4.296   4.721  19.086  0.00  0.00    +0.000 A 
ATOM      3  N   UNL     1       5.527   4.478  19.509  0.00  0.00    +0.000 NA
ATOM      4  C   UNL     1       6.327   5.433  18.940  0.00  0.00    +0.000 A 
ATOM      5  C   UNL     1       7.717   5.598  19.035  0.00  0.00    +0.000 A 
ATOM      6  C   UNL     1       8.316   6.674  18.371  0.00  0.00    +0.000 A 
ATOM      7  C   UNL     1       7.544   7.573  17.634  0.00  0.00    +0.000 A 
ATOM      8  C   UNL     1       6.158   7.417  17.523  0.00  0.00    +0.000 A 
ATOM      9  C   UNL     1       5.578   6.324  18.182  0.00  0.00    +0.000 A 
ENDROOT
BRANCH   2  10
ATOM     10  C   UNL     1       3.116   3.927  19.450  0.00  0.00    +0.000 A 
ATOM     11  C   UNL     1       2.382   4.222  20.591  0.00  0.00    +0.000 A 
ATOM     12  C   UNL     1       1.266   3.444  20.889  0.00  0.00    +0.000 A 
ATOM     13  C   UNL     1       0.930   2.389  20.048  0.00  0.00    +0.000 A 
ATOM     14  C   UNL     1       1.721   2.162  18.936  0.00  0.00    +0.000 A 
ATOM     15  N   UNL     1       2.799   2.909  18.615  0.00  0.00    +0.000 NA
ENDBRANCH   2  10
BRANCH   1  16
ATOM     16  C   UNL     1       3.130   6.418  17.607  0.00  0.00    +0.000 C 
BRANCH  16  17
ATOM     17  C   UNL     1       2.510   7.600  18.312  0.00  0.00    +0.000 C 
ATOM     18  O   UNL     1       2.193   7.585  19.496  0.00  0.00    +0.000 OA
BRANCH  17  19
ATOM     19  O   UNL     1       2.184   8.594  17.437  0.00  0.00    +0.000 OA
BRANCH  19  21
ATOM     20  C   UNL     1       0.219   9.890  18.033  0.00  0.00    +0.000 C 
ATOM     21  C   UNL     1       1.733   9.833  18.002  0.00  0.00    +0.000 C 
ENDBRANCH  19  21
ENDBRANCH  17  19
ENDBRANCH  16  17
ENDBRANCH   1  16
TORSDOF 5
ENDMDL
MODEL 4
REMARK VINA RESULT:      -6.9      2.384      5.081
REMARK  Name = 
REMARK  6 active torsions:
REMARK  status: ('A' for Active; 'I' for Inactive)
REMARK    1  A    between atoms: C_1  and  C_2
REMARK    2  A    between atoms: C_2  and  O_3
REMARK    3  A    between atoms: O_3  and  C_4
REMARK    4  A    between atoms: C_4  and  C_6
REMARK    5  A    between atoms: C_6  and  N_7
REMARK    6  A    between atoms: C_8  and  C_9
REMARK                            x       y       z     vdW  Elec       q    Type
REMARK                         _______ _______ _______ _____ _____    ______ ____
ROOT
ATOM      1  N   UNL     1       3.382   5.137  19.226  0.00  0.00    +0.000 N 
ATOM      2  C   UNL     1       4.544   4.750  18.578  0.00  0.00    +0.000 A 
ATOM      3  N   UNL     1       4.404   3.527  18.089  0.00  0.00    +0.000 NA
ATOM      4  C   UNL     1       3.152   3.106  18.453  0.00  0.00    +0.000 A 
ATOM      5  C   UNL     1       2.529   1.872  18.219  0.00  0.00    +0.000 A 
ATOM      6  C   UNL     1       1.220   1.679  18.677  0.00  0.00    +0.000 A 
ATOM      7  C   UNL     1       0.544   2.699  19.346  0.00  0.00    +0.000 A 
ATOM      8  C   UNL     1       1.156   3.933  19.595  0.00  0.00    +0.000 A 
ATOM      9  C   UNL     1       2.472   4.102  19.143  0.00  0.00    +0.000 A 
ENDROOT
BRANCH   2  10
ATOM     10  C   UNL     1       5.747   5.577  18.427  0.00  0.00    +0.000 A 
ATOM     11  C   UNL     1       5.827   6.547  17.436  0.00  0.00    +0.000 A 
ATOM     12  C   UNL     1       6.987   7.310  17.339  0.00  0.00    +0.000 A 
ATOM     13  C   UNL     1       8.034   7.070  18.222  0.00  0.00    +0.000 A 
ATOM     14  C   UNL     1       7.873   6.079  19.174  0.00  0.00    +0.000 A 
ATOM     15  N   UNL     1       6.754   5.334  19.300  0.00  0.00    +0.000 NA
ENDBRANCH   2  10
BRANCH   1  16
ATOM     16  C   UNL     1       3.151   6.402  19.904  0.00  0.00    +0.000 C 
BRANCH  16  17
ATOM     17  C   UNL     1       2.333   7.403  19.124  0.00  0.00    +0.000 C 
ATOM     18  O   UNL     1       2.271   7.410  17.900  0.00  0.00    +0.000 OA
BRANCH  17  19
ATOM     19  O   UNL     1       1.839   8.385  19.929  0.00  0.00    +0.000 OA
BRANCH  19  21
ATOM     20  C   UNL     1       1.048   9.110  22.107  0.00  0.00    +0.000 C 
ATOM     21  C   UNL     1       1.157   7.967  21.120  0.00  0.00    +0.000 C 
ENDBRANCH  19  21
ENDBRANCH  17  19
ENDBRANCH  16  17
ENDBRANCH   1  16
TORSDOF 5
ENDMDL
MODEL 5
REMARK VINA RESULT:      -6.9      1.199      5.172
REMARK  Name = 
REMARK  6 active torsions:
REMARK  status: ('A' for Active; 'I' for Inactive)
REMARK    1  A    between atoms: C_1  and  C_2
REMARK    2  A    between atoms: C_2  and  O_3
REMARK    3  A    between atoms: O_3  and  C_4
REMARK    4  A    between atoms: C_4  and  C_6
REMARK    5  A    between atoms: C_6  and  N_7
REMARK    6  A    between atoms: C_8  and  C_9
REMARK                            x       y       z     vdW  Elec       q    Type
REMARK                         _______ _______ _______ _____ _____    ______ ____
ROOT
ATOM      1  N   UNL     1       3.188   6.432  19.165  0.00  0.00    +0.000 N 
ATOM      2  C   UNL     1       3.738   6.703  17.922  0.00  0.00    +0.000 A 
ATOM      3  N   UNL     1       3.252   7.841  17.450  0.00  0.00    +0.000 NA
ATOM      4  C   UNL     1       2.353   8.293  18.379  0.00  0.00    +0.000 A 
ATOM      5  C   UNL     1       1.537   9.433  18.343  0.00  0.00    +0.000 A 
ATOM      6  C   UNL     1       0.702   9.701  19.434  0.00  0.00    +0.000 A 
ATOM      7  C   UNL     1       0.689   8.854  20.543  0.00  0.00    +0.000 A 
ATOM      8  C   UNL     1       1.492   7.709  20.591  0.00  0.00    +0.000 A 
ATOM      9  C   UNL     1       2.309   7.449  19.481  0.00  0.00    +0.000 A 
ENDROOT
BRANCH   2  10
ATOM     10  C   UNL     1       4.734   5.872  17.236  0.00  0.00    +0.000 A 
ATOM     11  C   UNL     1       4.357   4.725  16.550  0.00  0.00    +0.000 A 
ATOM     12  C   UNL     1       5.339   3.974  15.909  0.00  0.00    +0.000 A 
ATOM     13  C   UNL     1       6.665   4.384  15.988  0.00  0.00    +0.000 A 
ATOM     14  C   UNL     1       6.954   5.535  16.698  0.00  0.00    +0.000 A 
ATOM     15  N   UNL     1       6.020   6.290  17.317  0.00  0.00    +0.000 NA
ENDBRANCH   2  10
BRANCH   1  16
ATOM     16  C   UNL     1       3.458   5.270  19.994  0.00  0.00    +0.000 C 
BRANCH  16  17
ATOM     17  C   UNL     1       2.316   4.289  20.109  0.00  0.00    +0.000 C 
ATOM     18  O   UNL     1       1.717   4.077  21.157  0.00  0.00    +0.000 OA
BRANCH  17  19
ATOM     19  O   UNL     1       2.168   3.555  18.971  0.00  0.00    +0.000 OA
BRANCH  19  21
ATOM     20  C   UNL     1       3.454   1.575  18.402  0.00  0.00    +0.000 C 
ATOM     21  C   UNL     1       2.232   2.128  19.106  0.00  0.00    +0.000 C 
ENDBRANCH  19  21
ENDBRANCH  17  19
ENDBRANCH  16  17
ENDBRANCH   1  16
TORSDOF 5
ENDMDL
MODEL 6
REMARK VINA RESULT:      -6.8      2.982      4.868
REMARK  Name = 
REMARK  6 active torsions:
REMARK  status: ('A' for Active; 'I' for Inactive)
REMARK    1  A    between atoms: C_1  and  C_2
REMARK    2  A    between atoms: C_2  and  O_3
REMARK    3  A    between atoms: O_3  and  C_4
REMARK    4  A    between atoms: C_4  and  C_6
REMARK    5  A    between atoms: C_6  and  N_7
REMARK    6  A    between atoms: C_8  and  C_9
REMARK                            x       y       z     vdW  Elec       q    Type
REMARK                         _______ _______ _______ _____ _____    ______ ____
ROOT
ATOM      1  N   UNL     1       5.541   5.258  17.494  0.00  0.00    +0.000 N 
ATOM      2  C   UNL     1       4.391   4.501  17.652  0.00  0.00    +0.000 A 
ATOM      3  N   UNL     1       4.155   3.801  16.553  0.00  0.00    +0.000 NA
ATOM      4  C   UNL     1       5.141   4.134  15.663  0.00  0.00    +0.000 A 
ATOM      5  C   UNL     1       5.326   3.703  14.341  0.00  0.00    +0.000 A 
ATOM      6  C   UNL     1       6.433   4.173  13.626  0.00  0.00    +0.000 A 
ATOM      7  C   UNL     1       7.344   5.048  14.221  0.00  0.00    +0.000 A 
ATOM      8  C   UNL     1       7.169   5.493  15.535  0.00  0.00    +0.000 A 
ATOM      9  C   UNL     1       6.045   5.024  16.230  0.00  0.00    +0.000 A 
ENDROOT
BRANCH   2  10
ATOM     10  C   UNL     1       3.567   4.454  18.865  0.00  0.00    +0.000 A 
ATOM     11  C   UNL     1       2.737   5.514  19.206  0.00  0.00    +0.000 A 
ATOM     12  C   UNL     1       1.969   5.418  20.363  0.00  0.00    +0.000 A 
ATOM     13  C   UNL     1       2.067   4.275  21.150  0.00  0.00    +0.000 A 
ATOM     14  C   UNL     1       2.925   3.271  20.740  0.00  0.00    +0.000 A 
ATOM     15  N   UNL     1       3.670   3.331  19.616  0.00  0.00    +0.000 NA
ENDBRANCH   2  10
BRANCH   1  16
ATOM     16  C   UNL     1       6.118   6.167  18.470  0.00  0.00    +0.000 C 
BRANCH  16  17
ATOM     17  C   UNL     1       7.579   5.934  18.772  0.00  0.00    +0.000 C 
ATOM     18  O   UNL     1       8.010   4.881  19.229  0.00  0.00    +0.000 OA
BRANCH  17  19
ATOM     19  O   UNL     1       8.307   7.080  18.650  0.00  0.00    +0.000 OA
BRANCH  19  21
ATOM     20  C   UNL     1       8.419   9.443  18.102  0.00  0.00    +0.000 C 
ATOM     21  C   UNL     1       7.762   8.109  17.813  0.00  0.00    +0.000 C 
ENDBRANCH  19  21
ENDBRANCH  17  19
ENDBRANCH  16  17
ENDBRANCH   1  16
TORSDOF 5
ENDMDL
MODEL 7
REMARK VINA RESULT:      -6.8      3.079      5.008
REMARK  Name = 
REMARK  6 active torsions:
REMARK  status: ('A' for Active; 'I' for Inactive)
REMARK    1  A    between atoms: C_1  and  C_2
REMARK    2  A    between atoms: C_2  and  O_3
REMARK    3  A    between atoms: O_3  and  C_4
REMARK    4  A    between atoms: C_4  and  C_6
REMARK    5  A    between atoms: C_6  and  N_7
REMARK    6  A    between atoms: C_8  and  C_9
REMARK                            x       y       z     vdW  Elec       q    Type
REMARK                         _______ _______ _______ _____ _____    ______ ____
ROOT
ATOM      1  N   UNL     1       5.511   5.037  17.620  0.00  0.00    +0.000 N 
ATOM      2  C   UNL     1       4.376   4.259  17.785  0.00  0.00    +0.000 A 
ATOM      3  N   UNL     1       4.117   3.595  16.668  0.00  0.00    +0.000 NA
ATOM      4  C   UNL     1       5.072   3.973  15.763  0.00  0.00    +0.000 A 
ATOM      5  C   UNL     1       5.224   3.591  14.422  0.00  0.00    +0.000 A 
ATOM      6  C   UNL     1       6.304   4.101  13.692  0.00  0.00    +0.000 A 
ATOM      7  C   UNL     1       7.219   4.967  14.291  0.00  0.00    +0.000 A 
ATOM      8  C   UNL     1       7.077   5.364  15.625  0.00  0.00    +0.000 A 
ATOM      9  C   UNL     1       5.980   4.855  16.334  0.00  0.00    +0.000 A 
ENDROOT
BRANCH   2  10
ATOM     10  C   UNL     1       3.589   4.158  19.019  0.00  0.00    +0.000 A 
ATOM     11  C   UNL     1       3.656   3.024  19.818  0.00  0.00    +0.000 A 
ATOM     12  C   UNL     1       2.895   2.980  20.982  0.00  0.00    +0.000 A 
ATOM     13  C   UNL     1       2.080   4.060  21.302  0.00  0.00    +0.000 A 
ATOM     14  C   UNL     1       2.068   5.146  20.446  0.00  0.00    +0.000 A 
ATOM     15  N   UNL     1       2.806   5.222  19.318  0.00  0.00    +0.000 NA
ENDBRANCH   2  10
BRANCH   1  16
ATOM     16  C   UNL     1       6.104   5.919  18.611  0.00  0.00    +0.000 C 
BRANCH  16  17
ATOM     17  C   UNL     1       7.601   5.791  18.764  0.00  0.00    +0.000 C 
ATOM     18  O   UNL     1       8.163   4.726  18.993  0.00  0.00    +0.000 OA
BRANCH  17  19
ATOM     19  O   UNL     1       8.210   7.010  18.799  0.00  0.00    +0.000 OA
BRANCH  19  21
ATOM     20  C   UNL     1       8.377   9.333  18.113  0.00  0.00    +0.000 C 
ATOM     21  C   UNL     1       7.813   7.962  17.802  0.00  0.00    +0.000 C 
ENDBRANCH  19  21
ENDBRANCH  17  19
ENDBRANCH  16  17
ENDBRANCH   1  16
TORSDOF 5
ENDMDL
MODEL 8
REMARK VINA RESULT:      -6.8      1.042      1.417
REMARK  Name = 
REMARK  6 active torsions:
REMARK  status: ('A' for Active; 'I' for Inactive)
REMARK    1  A    between atoms: C_1  and  C_2
REMARK    2  A    between atoms: C_2  and  O_3
REMARK    3  A    between atoms: O_3  and  C_4
REMARK    4  A    between atoms: C_4  and  C_6
REMARK    5  A    between atoms: C_6  and  N_7
REMARK    6  A    between atoms: C_8  and  C_9
REMARK                            x       y       z     vdW  Elec       q    Type
REMARK                         _______ _______ _______ _____ _____    ______ ____
ROOT
ATOM      1  N   UNL     1       3.451   5.444  18.028  0.00  0.00    +0.000 N 
ATOM      2  C   UNL     1       3.340   6.824  17.950  0.00  0.00    +0.000 A 
ATOM      3  N   UNL     1       4.133   7.288  16.996  0.00  0.00    +0.000 NA
ATOM      4  C   UNL     1       4.788   6.205  16.475  0.00  0.00    +0.000 A 
ATOM      5  C   UNL     1       5.766   6.158  15.470  0.00  0.00    +0.000 A 
ATOM      6  C   UNL     1       6.282   4.915  15.088  0.00  0.00    +0.000 A 
ATOM      7  C   UNL     1       5.826   3.741  15.689  0.00  0.00    +0.000 A 
ATOM      8  C   UNL     1       4.858   3.772  16.698  0.00  0.00    +0.000 A 
ATOM      9  C   UNL     1       4.364   5.028  17.079  0.00  0.00    +0.000 A 
ENDROOT
BRANCH   2  10
ATOM     10  C   UNL     1       2.456   7.651  18.779  0.00  0.00    +0.000 A 
ATOM     11  C   UNL     1       2.176   7.301  20.094  0.00  0.00    +0.000 A 
ATOM     12  C   UNL     1       1.337   8.123  20.841  0.00  0.00    +0.000 A 
ATOM     13  C   UNL     1       0.793   9.257  20.247  0.00  0.00    +0.000 A 
ATOM     14  C   UNL     1       1.119   9.526  18.930  0.00  0.00    +0.000 A 
ATOM     15  N   UNL     1       1.941   8.755  18.187  0.00  0.00    +0.000 NA
ENDBRANCH   2  10
BRANCH   1  16
ATOM     16  C   UNL     1       2.754   4.572  18.958  0.00  0.00    +0.000 C 
BRANCH  16  17
ATOM     17  C   UNL     1       1.498   3.935  18.415  0.00  0.00    +0.000 C 
ATOM     18  O   UNL     1       1.055   4.172  17.296  0.00  0.00    +0.000 OA
BRANCH  17  19
ATOM     19  O   UNL     1       0.838   3.226  19.373  0.00  0.00    +0.000 OA
BRANCH  19  21
ATOM     20  C   UNL     1       1.461   2.686  21.657  0.00  0.00    +0.000 C 
ATOM     21  C   UNL     1       1.626   2.349  20.190  0.00  0.00    +0.000 C 
ENDBRANCH  19  21
ENDBRANCH  17  19
ENDBRANCH  16  17
ENDBRANCH   1  16
TORSDOF 5
ENDMDL
MODEL 9
REMARK VINA RESULT:      -6.8      2.344      5.103
REMARK  Name = 
REMARK  6 active torsions:
REMARK  status: ('A' for Active; 'I' for Inactive)
REMARK    1  A    between atoms: C_1  and  C_2
REMARK    2  A    between atoms: C_2  and  O_3
REMARK    3  A    between atoms: O_3  and  C_4
REMARK    4  A    between atoms: C_4  and  C_6
REMARK    5  A    between atoms: C_6  and  N_7
REMARK    6  A    between atoms: C_8  and  C_9
REMARK                            x       y       z     vdW  Elec       q    Type
REMARK                         _______ _______ _______ _____ _____    ______ ____
ROOT
ATOM      1  N   UNL     1       3.410   5.252  19.133  0.00  0.00    +0.000 N 
ATOM      2  C   UNL     1       4.585   4.881  18.497  0.00  0.00    +0.000 A 
ATOM      3  N   UNL     1       4.479   3.643  18.038  0.00  0.00    +0.000 NA
ATOM      4  C   UNL     1       3.239   3.197  18.410  0.00  0.00    +0.000 A 
ATOM      5  C   UNL     1       2.651   1.940  18.205  0.00  0.00    +0.000 A 
ATOM      6  C   UNL     1       1.347   1.722  18.666  0.00  0.00    +0.000 A 
ATOM      7  C   UNL     1       0.642   2.739  19.310  0.00  0.00    +0.000 A 
ATOM      8  C   UNL     1       1.218   3.995  19.529  0.00  0.00    +0.000 A 
ATOM      9  C   UNL     1       2.530   4.189  19.074  0.00  0.00    +0.000 A 
ENDROOT
BRANCH   2  10
ATOM     10  C   UNL     1       5.764   5.737  18.327  0.00  0.00    +0.000 A 
ATOM     11  C   UNL     1       6.893   5.562  19.116  0.00  0.00    +0.000 A 
ATOM     12  C   UNL     1       7.989   6.395  18.911  0.00  0.00    +0.000 A 
ATOM     13  C   UNL     1       7.916   7.386  17.938  0.00  0.00    +0.000 A 
ATOM     14  C   UNL     1       6.750   7.495  17.202  0.00  0.00    +0.000 A 
ATOM     15  N   UNL     1       5.678   6.692  17.370  0.00  0.00    +0.000 NA
ENDBRANCH   2  10
BRANCH   1  16
ATOM     16  C   UNL     1       3.143   6.525  19.780  0.00  0.00    +0.000 C 
BRANCH  16  17
ATOM     17  C   UNL     1       2.293   7.481  18.978  0.00  0.00    +0.000 C 
ATOM     18  O   UNL     1       2.250   7.475  17.752  0.00  0.00    +0.000 OA
BRANCH  17  19
ATOM     19  O   UNL     1       1.741   8.446  19.766  0.00  0.00    +0.000 OA
BRANCH  19  21
ATOM     20  C   UNL     1      -0.033   8.603  21.417  0.00  0.00    +0.000 C 
ATOM     21  C   UNL     1       1.341   8.055  21.086  0.00  0.00    +0.000 C 
ENDBRANCH  19  21
ENDBRANCH  17  19
ENDBRANCH  16  17
ENDBRANCH   1  16
TORSDOF 5
ENDMDL
