MODEL 1
REMARK VINA RESULT:      -8.0      0.000      0.000
REMARK  Name = 
REMARK  7 active torsions:
REMARK  status: ('A' for Active; 'I' for Inactive)
REMARK    1  A    between atoms: C_1  and  C_2
REMARK    2  A    between atoms: C_7  and  O_8
REMARK    3  A    between atoms: O_8  and  C_9
REMARK    4  A    between atoms: C_9  and  C_10
REMARK    5  A    between atoms: N_12  and  C_13
REMARK    6  A    between atoms: C_16  and  S_17
REMARK    7  A    between atoms: S_17  and  N_20
REMARK                            x       y       z     vdW  Elec       q    Type
REMARK                         _______ _______ _______ _____ _____    ______ ____
ROOT
ATOM      1  C   UNL     1       5.671   6.775  17.070  0.00  0.00    +0.000 A 
ATOM      2  C   UNL     1       5.929   5.481  16.594  0.00  0.00    +0.000 A 
ATOM      3  C   UNL     1       4.961   4.477  16.733  0.00  0.00    +0.000 A 
ATOM      4  C   UNL     1       3.720   4.770  17.314  0.00  0.00    +0.000 A 
ATOM      5  C   UNL     1       3.438   6.083  17.707  0.00  0.00    +0.000 A 
ATOM      6  C   UNL     1       4.427   7.069  17.627  0.00  0.00    +0.000 A 
ENDROOT
BRANCH   1   9
ATOM      7  C   UNL     1       7.747   7.865  17.863  0.00  0.00    +0.000 C 
ATOM      8  O   UNL     1       8.074   6.996  18.669  0.00  0.00    +0.000 OA
ATOM      9  N   UNL     1       6.628   7.812  17.049  0.00  0.00    +0.000 N 
ATOM     10  H   UNL     1       6.700   8.350  16.192  0.00  0.00    +0.000 HD
BRANCH   7  11
ATOM     11  C   UNL     1       8.549   9.165  17.697  0.00  0.00    +0.000 C 
BRANCH  11  12
ATOM     12  O   UNL     1       8.518  10.012  18.833  0.00  0.00    +0.000 OA
BRANCH  12  19
ATOM     13  C   UNL     1       9.158  11.492  21.577  0.00  0.00    +0.000 C 
ATOM     14  C   UNL     1       9.923  11.526  20.281  0.00  0.00    +0.000 A 
ATOM     15  C   UNL     1      11.077  12.347  20.284  0.00  0.00    +0.000 A 
ATOM     16  C   UNL     1      11.889  12.479  19.160  0.00  0.00    +0.000 A 
ATOM     17  C   UNL     1      11.571  11.784  18.007  0.00  0.00    +0.000 A 
ATOM     18  C   UNL     1      10.436  10.969  17.980  0.00  0.00    +0.000 A 
ATOM     19  C   UNL     1       9.590  10.831  19.103  0.00  0.00    +0.000 A 
ENDBRANCH  12  19
ENDBRANCH  11  12
ENDBRANCH   7  11
ENDBRANCH   1   9
BRANCH   4  20
ATOM     20  S   UNL     1       2.435   3.531  17.433  0.00  0.00    +0.000 S 
ATOM     21  O   UNL     1       1.184   4.242  17.472  0.00  0.00    +0.000 OA
ATOM     22  O   UNL     1       2.704   2.536  16.415  0.00  0.00    +0.000 OA
BRANCH  20  23
ATOM     23  N   UNL     1       2.641   2.790  18.943  0.00  0.00    +0.000 NA
ATOM     24  C   UNL     1       1.510   2.111  19.610  0.00  0.00    +0.000 C 
ATOM     25  C   UNL     1       0.824   3.044  20.614  0.00  0.00    +0.000 C 
ATOM     26  O   UNL     1       1.755   3.598  21.557  0.00  0.00    +0.000 OA
ATOM     27  C   UNL     1       2.841   4.280  20.909  0.00  0.00    +0.000 C 
ATOM     28  C   UNL     1       3.582   3.360  19.934  0.00  0.00    +0.000 C 
ENDBRANCH  20  23
ENDBRANCH   4  20
TORSDOF 6
ENDMDL
MODEL 2
REMARK VINA RESULT:      -7.7      6.543      8.720
REMARK  Name = 
REMARK  7 active torsions:
REMARK  status: ('A' for Active; 'I' for Inactive)
REMARK    1  A    between atoms: C_1  and  C_2
REMARK    2  A    between atoms: C_7  and  O_8
REMARK    3  A    between atoms: O_8  and  C_9
REMARK    4  A    between atoms: C_9  and  C_10
REMARK    5  A    between atoms: N_12  and  C_13
REMARK    6  A    between atoms: C_16  and  S_17
REMARK    7  A    between atoms: S_17  and  N_20
REMARK                            x       y       z     vdW  Elec       q    Type
REMARK                         _______ _______ _______ _____ _____    ______ ____
ROOT
ATOM      1  C   UNL     1       1.013   9.582  19.424  0.00  0.00    +0.000 A 
ATOM      2  C   UNL     1       1.626   9.064  18.274  0.00  0.00    +0.000 A 
ATOM      3  C   UNL     1       2.302   7.837  18.331  0.00  0.00    +0.000 A 
ATOM      4  C   UNL     1       2.337   7.107  19.527  0.00  0.00    +0.000 A 
ATOM      5  C   UNL     1       1.650   7.589  20.646  0.00  0.00    +0.000 A 
ATOM      6  C   UNL     1       1.030   8.843  20.606  0.00  0.00    +0.000 A 
ENDROOT
BRANCH   1   9
ATOM      7  C   UNL     1      -0.904  11.105  19.057  0.00  0.00    +0.000 C 
ATOM      8  O   UNL     1      -1.696  10.254  18.654  0.00  0.00    +0.000 OA
ATOM      9  N   UNL     1       0.395  10.850  19.465  0.00  0.00    +0.000 N 
ATOM     10  H   UNL     1       0.771  11.520  20.126  0.00  0.00    +0.000 HD
BRANCH   7  11
ATOM     11  C   UNL     1      -1.268  12.596  19.112  0.00  0.00    +0.000 C 
BRANCH  11  12
ATOM     12  O   UNL     1      -1.049  13.198  20.376  0.00  0.00    +0.000 OA
BRANCH  12  19
ATOM     13  C   UNL     1      -0.853  11.186  22.836  0.00  0.00    +0.000 C 
ATOM     14  C   UNL     1      -1.956  12.149  22.483  0.00  0.00    +0.000 A 
ATOM     15  C   UNL     1      -3.067  12.140  23.362  0.00  0.00    +0.000 A 
ATOM     16  C   UNL     1      -4.164  12.976  23.171  0.00  0.00    +0.000 A 
ATOM     17  C   UNL     1      -4.173  13.849  22.097  0.00  0.00    +0.000 A 
ATOM     18  C   UNL     1      -3.089  13.874  21.215  0.00  0.00    +0.000 A 
ATOM     19  C   UNL     1      -1.972  13.026  21.382  0.00  0.00    +0.000 A 
ENDBRANCH  12  19
ENDBRANCH  11  12
ENDBRANCH   7  11
ENDBRANCH   1   9
BRANCH   4  20
ATOM     20  S   UNL     1       3.122   5.502  19.613  0.00  0.00    +0.000 S 
ATOM     21  O   UNL     1       4.538   5.733  19.504  0.00  0.00    +0.000 OA
ATOM     22  O   UNL     1       2.557   4.811  20.756  0.00  0.00    +0.000 OA
BRANCH  20  23
ATOM     23  N   UNL     1       2.636   4.671  18.219  0.00  0.00    +0.000 NA
ATOM     24  C   UNL     1       1.359   3.926  18.191  0.00  0.00    +0.000 C 
ATOM     25  C   UNL     1       1.582   2.443  18.507  0.00  0.00    +0.000 C 
ATOM     26  O   UNL     1       2.572   1.853  17.650  0.00  0.00    +0.000 OA
ATOM     27  C   UNL     1       3.821   2.562  17.696  0.00  0.00    +0.000 C 
ATOM     28  C   UNL     1       3.642   4.040  17.335  0.00  0.00    +0.000 C 
ENDBRANCH  20  23
ENDBRANCH   4  20
TORSDOF 6
ENDMDL
MODEL 3
REMARK VINA RESULT:      -7.7      5.271      7.936
REMARK  Name = 
REMARK  7 active torsions:
REMARK  status: ('A' for Active; 'I' for Inactive)
REMARK    1  A    between atoms: C_1  and  C_2
REMARK    2  A    between atoms: C_7  and  O_8
REMARK    3  A    between atoms: O_8  and  C_9
REMARK    4  A    between atoms: C_9  and  C_10
REMARK    5  A    between atoms: N_12  and  C_13
REMARK    6  A    between atoms: C_16  and  S_17
REMARK    7  A    between atoms: S_17  and  N_20
REMARK                            x       y       z     vdW  Elec       q    Type
REMARK                         _______ _______ _______ _____ _____    ______ ____
ROOT
ATOM      1  C   UNL     1       2.264   7.421  19.741  0.00  0.00    +0.000 A 
ATOM      2  C   UNL     1       1.498   7.698  20.883  0.00  0.00    +0.000 A 
ATOM      3  C   UNL     1       0.695   8.847  20.928  0.00  0.00    +0.000 A 
ATOM      4  C   UNL     1       0.627   9.703  19.819  0.00  0.00    +0.000 A 
ATOM      5  C   UNL     1       1.327   9.373  18.654  0.00  0.00    +0.000 A 
ATOM      6  C   UNL     1       2.178   8.262  18.633  0.00  0.00    +0.000 A 
ENDROOT
BRANCH   1   9
ATOM      7  C   UNL     1       2.862   5.108  19.095  0.00  0.00    +0.000 C 
ATOM      8  O   UNL     1       1.795   4.823  18.554  0.00  0.00    +0.000 OA
ATOM      9  N   UNL     1       3.163   6.337  19.659  0.00  0.00    +0.000 N 
ATOM     10  H   UNL     1       4.152   6.560  19.688  0.00  0.00    +0.000 HD
BRANCH   7  11
ATOM     11  C   UNL     1       3.998   4.084  19.247  0.00  0.00    +0.000 C 
BRANCH  11  12
ATOM     12  O   UNL     1       4.934   4.098  18.183  0.00  0.00    +0.000 OA
BRANCH  12  19
ATOM     13  C   UNL     1       5.127   6.332  15.923  0.00  0.00    +0.000 C 
ATOM     14  C   UNL     1       6.008   6.120  17.125  0.00  0.00    +0.000 A 
ATOM     15  C   UNL     1       7.083   7.035  17.252  0.00  0.00    +0.000 A 
ATOM     16  C   UNL     1       7.983   6.970  18.313  0.00  0.00    +0.000 A 
ATOM     17  C   UNL     1       7.825   5.992  19.279  0.00  0.00    +0.000 A 
ATOM     18  C   UNL     1       6.773   5.078  19.173  0.00  0.00    +0.000 A 
ATOM     19  C   UNL     1       5.857   5.116  18.099  0.00  0.00    +0.000 A 
ENDBRANCH  12  19
ENDBRANCH  11  12
ENDBRANCH   7  11
ENDBRANCH   1   9
BRANCH   4  20
ATOM     20  S   UNL     1      -0.448  11.132  19.814  0.00  0.00    +0.000 S 
ATOM     21  O   UNL     1      -1.490  10.856  18.861  0.00  0.00    +0.000 OA
ATOM     22  O   UNL     1      -0.753  11.442  21.196  0.00  0.00    +0.000 OA
BRANCH  20  23
ATOM     23  N   UNL     1       0.478  12.409  19.194  0.00  0.00    +0.000 NA
ATOM     24  C   UNL     1       1.715  12.845  19.877  0.00  0.00    +0.000 C 
ATOM     25  C   UNL     1       1.439  14.031  20.807  0.00  0.00    +0.000 C 
ATOM     26  O   UNL     1       0.790  15.113  20.121  0.00  0.00    +0.000 OA
ATOM     27  C   UNL     1      -0.426  14.695  19.477  0.00  0.00    +0.000 C 
ATOM     28  C   UNL     1      -0.177  13.541  18.501  0.00  0.00    +0.000 C 
ENDBRANCH  20  23
ENDBRANCH   4  20
TORSDOF 6
ENDMDL
MODEL 4
REMARK VINA RESULT:      -7.7      5.641      8.886
REMARK  Name = 
REMARK  7 active torsions:
REMARK  status: ('A' for Active; 'I' for Inactive)
REMARK    1  A    between atoms: C_1  and  C_2
REMARK    2  A    between atoms: C_7  and  O_8
REMARK    3  A    between atoms: O_8  and  C_9
REMARK    4  A    between atoms: C_9  and  C_10
REMARK    5  A    between atoms: N_12  and  C_13
REMARK    6  A    between atoms: C_16  and  S_17
REMARK    7  A    between atoms: S_17  and  N_20
REMARK                            x       y       z     vdW  Elec       q    Type
REMARK                         _______ _______ _______ _____ _____    ______ ____
ROOT
ATOM      1  C   UNL     1       1.621   8.622  19.473  0.00  0.00    +0.000 A 
ATOM      2  C   UNL     1       1.802   7.539  20.346  0.00  0.00    +0.000 A 
ATOM      3  C   UNL     1       2.534   6.418  19.931  0.00  0.00    +0.000 A 
ATOM      4  C   UNL     1       3.118   6.390  18.657  0.00  0.00    +0.000 A 
ATOM      5  C   UNL     1       3.005   7.510  17.825  0.00  0.00    +0.000 A 
ATOM      6  C   UNL     1       2.221   8.601  18.215  0.00  0.00    +0.000 A 
ENDROOT
BRANCH   1   9
ATOM      7  C   UNL     1      -0.175   9.752  20.749  0.00  0.00    +0.000 C 
ATOM      8  O   UNL     1      -0.454   8.806  21.484  0.00  0.00    +0.000 OA
ATOM      9  N   UNL     1       0.822   9.742  19.787  0.00  0.00    +0.000 N 
ATOM     10  H   UNL     1       1.204  10.654  19.562  0.00  0.00    +0.000 HD
BRANCH   7  11
ATOM     11  C   UNL     1      -0.953  11.076  20.793  0.00  0.00    +0.000 C 
BRANCH  11  12
ATOM     12  O   UNL     1      -1.042  11.735  19.542  0.00  0.00    +0.000 OA
BRANCH  12  19
ATOM     13  C   UNL     1      -4.012  12.733  20.103  0.00  0.00    +0.000 C 
ATOM     14  C   UNL     1      -3.483  11.937  18.940  0.00  0.00    +0.000 A 
ATOM     15  C   UNL     1      -4.451  11.568  17.973  0.00  0.00    +0.000 A 
ATOM     16  C   UNL     1      -4.116  10.834  16.839  0.00  0.00    +0.000 A 
ATOM     17  C   UNL     1      -2.799  10.457  16.639  0.00  0.00    +0.000 A 
ATOM     18  C   UNL     1      -1.828  10.807  17.581  0.00  0.00    +0.000 A 
ATOM     19  C   UNL     1      -2.147  11.540  18.745  0.00  0.00    +0.000 A 
ENDBRANCH  12  19
ENDBRANCH  11  12
ENDBRANCH   7  11
ENDBRANCH   1   9
BRANCH   4  20
ATOM     20  S   UNL     1       4.125   5.010  18.126  0.00  0.00    +0.000 S 
ATOM     21  O   UNL     1       4.640   4.397  19.322  0.00  0.00    +0.000 OA
ATOM     22  O   UNL     1       3.343   4.255  17.168  0.00  0.00    +0.000 OA
BRANCH  20  23
ATOM     23  N   UNL     1       5.440   5.685  17.298  0.00  0.00    +0.000 NA
ATOM     24  C   UNL     1       5.609   5.466  15.846  0.00  0.00    +0.000 C 
ATOM     25  C   UNL     1       6.558   4.294  15.574  0.00  0.00    +0.000 C 
ATOM     26  O   UNL     1       7.816   4.453  16.247  0.00  0.00    +0.000 OA
ATOM     27  C   UNL     1       7.654   4.641  17.663  0.00  0.00    +0.000 C 
ATOM     28  C   UNL     1       6.750   5.838  17.971  0.00  0.00    +0.000 C 
ENDBRANCH  20  23
ENDBRANCH   4  20
TORSDOF 6
ENDMDL
MODEL 5
REMARK VINA RESULT:      -7.7      5.299      8.293
REMARK  Name = 
REMARK  7 active torsions:
REMARK  status: ('A' for Active; 'I' for Inactive)
REMARK    1  A    between atoms: C_1  and  C_2
REMARK    2  A    between atoms: C_7  and  O_8
REMARK    3  A    between atoms: O_8  and  C_9
REMARK    4  A    between atoms: C_9  and  C_10
REMARK    5  A    between atoms: N_12  and  C_13
REMARK    6  A    between atoms: C_16  and  S_17
REMARK    7  A    between atoms: S_17  and  N_20
REMARK                            x       y       z     vdW  Elec       q    Type
REMARK                         _______ _______ _______ _____ _____    ______ ____
ROOT
ATOM      1  C   UNL     1       2.362   8.077  18.524  0.00  0.00    +0.000 A 
ATOM      2  C   UNL     1       2.364   7.183  19.605  0.00  0.00    +0.000 A 
ATOM      3  C   UNL     1       3.111   5.999  19.535  0.00  0.00    +0.000 A 
ATOM      4  C   UNL     1       3.886   5.721  18.400  0.00  0.00    +0.000 A 
ATOM      5  C   UNL     1       3.945   6.658  17.363  0.00  0.00    +0.000 A 
ATOM      6  C   UNL     1       3.150   7.808  17.406  0.00  0.00    +0.000 A 
ENDROOT
BRANCH   1   9
ATOM      7  C   UNL     1       0.710   9.642  19.499  0.00  0.00    +0.000 C 
ATOM      8  O   UNL     1       0.575   9.065  20.577  0.00  0.00    +0.000 OA
ATOM      9  N   UNL     1       1.564   9.240  18.485  0.00  0.00    +0.000 N 
ATOM     10  H   UNL     1       1.871   9.985  17.869  0.00  0.00    +0.000 HD
BRANCH   7  11
ATOM     11  C   UNL     1      -0.113  10.887  19.132  0.00  0.00    +0.000 C 
BRANCH  11  12
ATOM     12  O   UNL     1      -1.505  10.745  19.355  0.00  0.00    +0.000 OA
BRANCH  12  19
ATOM     13  C   UNL     1      -4.298  12.271  19.352  0.00  0.00    +0.000 C 
ATOM     14  C   UNL     1      -3.631  11.513  18.237  0.00  0.00    +0.000 A 
ATOM     15  C   UNL     1      -4.363  11.458  17.024  0.00  0.00    +0.000 A 
ATOM     16  C   UNL     1      -3.877  10.795  15.900  0.00  0.00    +0.000 A 
ATOM     17  C   UNL     1      -2.640  10.177  15.959  0.00  0.00    +0.000 A 
ATOM     18  C   UNL     1      -1.902  10.216  17.145  0.00  0.00    +0.000 A 
ATOM     19  C   UNL     1      -2.381  10.870  18.301  0.00  0.00    +0.000 A 
ENDBRANCH  12  19
ENDBRANCH  11  12
ENDBRANCH   7  11
ENDBRANCH   1   9
BRANCH   4  20
ATOM     20  S   UNL     1       4.912   4.258  18.312  0.00  0.00    +0.000 S 
ATOM     21  O   UNL     1       5.619   4.330  17.060  0.00  0.00    +0.000 OA
ATOM     22  O   UNL     1       5.620   4.157  19.572  0.00  0.00    +0.000 OA
BRANCH  20  23
ATOM     23  N   UNL     1       3.845   2.946  18.214  0.00  0.00    +0.000 NA
ATOM     24  C   UNL     1       2.634   3.020  17.368  0.00  0.00    +0.000 C 
ATOM     25  C   UNL     1       1.412   3.432  18.194  0.00  0.00    +0.000 C 
ATOM     26  O   UNL     1       1.222   2.583  19.336  0.00  0.00    +0.000 OA
ATOM     27  C   UNL     1       2.389   2.531  20.173  0.00  0.00    +0.000 C 
ATOM     28  C   UNL     1       3.623   2.072  19.389  0.00  0.00    +0.000 C 
ENDBRANCH  20  23
ENDBRANCH   4  20
TORSDOF 6
ENDMDL
MODEL 6
REMARK VINA RESULT:      -7.7      5.754      8.476
REMARK  Name = 
REMARK  7 active torsions:
REMARK  status: ('A' for Active; 'I' for Inactive)
REMARK    1  A    between atoms: C_1  and  C_2
REMARK    2  A    between atoms: C_7  and  O_8
REMARK    3  A    between atoms: O_8  and  C_9
REMARK    4  A    between atoms: C_9  and  C_10
REMARK    5  A    between atoms: N_12  and  C_13
REMARK    6  A    between atoms: C_16  and  S_17
REMARK    7  A    between atoms: S_17  and  N_20
REMARK                            x       y       z     vdW  Elec       q    Type
REMARK                         _______ _______ _______ _____ _____    ______ ____
ROOT
ATOM      1  C   UNL     1       1.382   7.397  20.602  0.00  0.00    +0.000 A 
ATOM      2  C   UNL     1       1.504   6.068  21.033  0.00  0.00    +0.000 A 
ATOM      3  C   UNL     1       2.275   5.159  20.296  0.00  0.00    +0.000 A 
ATOM      4  C   UNL     1       2.955   5.582  19.146  0.00  0.00    +0.000 A 
ATOM      5  C   UNL     1       2.899   6.929  18.771  0.00  0.00    +0.000 A 
ATOM      6  C   UNL     1       2.078   7.821  19.471  0.00  0.00    +0.000 A 
ENDROOT
BRANCH   1   9
ATOM      7  C   UNL     1       0.961   9.184  22.263  0.00  0.00    +0.000 C 
ATOM      8  O   UNL     1       2.105   9.246  22.710  0.00  0.00    +0.000 OA
ATOM      9  N   UNL     1       0.553   8.344  21.240  0.00  0.00    +0.000 N 
ATOM     10  H   UNL     1      -0.253   8.671  20.718  0.00  0.00    +0.000 HD
BRANCH   7  11
ATOM     11  C   UNL     1      -0.186  10.029  22.839  0.00  0.00    +0.000 C 
BRANCH  11  12
ATOM     12  O   UNL     1      -0.209  11.366  22.371  0.00  0.00    +0.000 OA
BRANCH  12  19
ATOM     13  C   UNL     1      -2.897  12.556  23.592  0.00  0.00    +0.000 C 
ATOM     14  C   UNL     1      -2.523  12.347  22.150  0.00  0.00    +0.000 A 
ATOM     15  C   UNL     1      -3.517  12.716  21.210  0.00  0.00    +0.000 A 
ATOM     16  C   UNL     1      -3.318  12.584  19.838  0.00  0.00    +0.000 A 
ATOM     17  C   UNL     1      -2.113  12.088  19.371  0.00  0.00    +0.000 A 
ATOM     18  C   UNL     1      -1.119  11.715  20.280  0.00  0.00    +0.000 A 
ATOM     19  C   UNL     1      -1.304  11.827  21.675  0.00  0.00    +0.000 A 
ENDBRANCH  12  19
ENDBRANCH  11  12
ENDBRANCH   7  11
ENDBRANCH   1   9
BRANCH   4  20
ATOM     20  S   UNL     1       4.010   4.468  18.227  0.00  0.00    +0.000 S 
ATOM     21  O   UNL     1       4.670   3.636  19.199  0.00  0.00    +0.000 OA
ATOM     22  O   UNL     1       3.206   3.895  17.167  0.00  0.00    +0.000 OA
BRANCH  20  23
ATOM     23  N   UNL     1       5.197   5.439  17.506  0.00  0.00    +0.000 NA
ATOM     24  C   UNL     1       5.380   5.440  16.038  0.00  0.00    +0.000 C 
ATOM     25  C   UNL     1       6.494   4.474  15.623  0.00  0.00    +0.000 C 
ATOM     26  O   UNL     1       7.721   4.734  16.322  0.00  0.00    +0.000 OA
ATOM     27  C   UNL     1       7.549   4.708  17.748  0.00  0.00    +0.000 C 
ATOM     28  C   UNL     1       6.476   5.701  18.203  0.00  0.00    +0.000 C 
ENDBRANCH  20  23
ENDBRANCH   4  20
TORSDOF 6
ENDMDL
MODEL 7
REMARK VINA RESULT:      -7.7      6.605      8.777
REMARK  Name = 
REMARK  7 active torsions:
REMARK  status: ('A' for Active; 'I' for Inactive)
REMARK    1  A    between atoms: C_1  and  C_2
REMARK    2  A    between atoms: C_7  and  O_8
REMARK    3  A    between atoms: O_8  and  C_9
REMARK    4  A    between atoms: C_9  and  C_10
REMARK    5  A    between atoms: N_12  and  C_13
REMARK    6  A    between atoms: C_16  and  S_17
REMARK    7  A    between atoms: S_17  and  N_20
REMARK                            x       y       z     vdW  Elec       q    Type
REMARK                         _______ _______ _______ _____ _____    ______ ____
ROOT
ATOM      1  C   UNL     1       1.483   8.519  19.727  0.00  0.00    +0.000 A 
ATOM      2  C   UNL     1       1.652   7.395  20.548  0.00  0.00    +0.000 A 
ATOM      3  C   UNL     1       2.397   6.299  20.092  0.00  0.00    +0.000 A 
ATOM      4  C   UNL     1       3.006   6.336  18.830  0.00  0.00    +0.000 A 
ATOM      5  C   UNL     1       2.905   7.496  18.053  0.00  0.00    +0.000 A 
ATOM      6  C   UNL     1       2.108   8.563  18.481  0.00  0.00    +0.000 A 
ENDROOT
BRANCH   1   9
ATOM      7  C   UNL     1       0.718  10.268  21.303  0.00  0.00    +0.000 C 
ATOM      8  O   UNL     1       1.500  10.002  22.213  0.00  0.00    +0.000 OA
ATOM      9  N   UNL     1       0.673   9.620  20.079  0.00  0.00    +0.000 N 
ATOM     10  H   UNL     1       0.299  10.175  19.318  0.00  0.00    +0.000 HD
BRANCH   7  11
ATOM     11  C   UNL     1      -0.356  11.358  21.443  0.00  0.00    +0.000 C 
BRANCH  11  12
ATOM     12  O   UNL     1      -0.288  12.082  22.659  0.00  0.00    +0.000 OA
BRANCH  12  19
ATOM     13  C   UNL     1      -0.522  15.223  23.118  0.00  0.00    +0.000 C 
ATOM     14  C   UNL     1      -1.556  14.153  23.341  0.00  0.00    +0.000 A 
ATOM     15  C   UNL     1      -2.799  14.612  23.844  0.00  0.00    +0.000 A 
ATOM     16  C   UNL     1      -3.856  13.743  24.100  0.00  0.00    +0.000 A 
ATOM     17  C   UNL     1      -3.699  12.391  23.850  0.00  0.00    +0.000 A 
ATOM     18  C   UNL     1      -2.481  11.915  23.356  0.00  0.00    +0.000 A 
ATOM     19  C   UNL     1      -1.391  12.776  23.103  0.00  0.00    +0.000 A 
ENDBRANCH  12  19
ENDBRANCH  11  12
ENDBRANCH   7  11
ENDBRANCH   1   9
BRANCH   4  20
ATOM     20  S   UNL     1       4.029   4.988  18.251  0.00  0.00    +0.000 S 
ATOM     21  O   UNL     1       4.562   4.347  19.424  0.00  0.00    +0.000 OA
ATOM     22  O   UNL     1       3.251   4.250  17.276  0.00  0.00    +0.000 OA
BRANCH  20  23
ATOM     23  N   UNL     1       5.328   5.707  17.435  0.00  0.00    +0.000 NA
ATOM     24  C   UNL     1       5.500   5.518  15.978  0.00  0.00    +0.000 C 
ATOM     25  C   UNL     1       6.474   4.373  15.684  0.00  0.00    +0.000 C 
ATOM     26  O   UNL     1       7.730   4.547  16.359  0.00  0.00    +0.000 OA
ATOM     27  C   UNL     1       7.565   4.705  17.778  0.00  0.00    +0.000 C 
ATOM     28  C   UNL     1       6.635   5.876  18.109  0.00  0.00    +0.000 C 
ENDBRANCH  20  23
ENDBRANCH   4  20
TORSDOF 6
ENDMDL
MODEL 8
REMARK VINA RESULT:      -7.6      6.280      8.844
REMARK  Name = 
REMARK  7 active torsions:
REMARK  status: ('A' for Active; 'I' for Inactive)
REMARK    1  A    between atoms: C_1  and  C_2
REMARK    2  A    between atoms: C_7  and  O_8
REMARK    3  A    between atoms: O_8  and  C_9
REMARK    4  A    between atoms: C_9  and  C_10
REMARK    5  A    between atoms: N_12  and  C_13
REMARK    6  A    between atoms: C_16  and  S_17
REMARK    7  A    between atoms: S_17  and  N_20
REMARK                            x       y       z     vdW  Elec       q    Type
REMARK                         _______ _______ _______ _____ _____    ______ ____
ROOT
ATOM      1  C   UNL     1       1.316   9.470  19.099  0.00  0.00    +0.000 A 
ATOM      2  C   UNL     1       1.449   8.492  20.096  0.00  0.00    +0.000 A 
ATOM      3  C   UNL     1       2.169   7.318  19.835  0.00  0.00    +0.000 A 
ATOM      4  C   UNL     1       2.787   7.132  18.590  0.00  0.00    +0.000 A 
ATOM      5  C   UNL     1       2.721   8.150  17.632  0.00  0.00    +0.000 A 
ATOM      6  C   UNL     1       1.950   9.292  17.871  0.00  0.00    +0.000 A 
ENDROOT
BRANCH   1   9
ATOM      7  C   UNL     1      -0.743  10.798  18.741  0.00  0.00    +0.000 C 
ATOM      8  O   UNL     1      -1.370   9.938  18.124  0.00  0.00    +0.000 OA
ATOM      9  N   UNL     1       0.532  10.633  19.258  0.00  0.00    +0.000 N 
ATOM     10  H   UNL     1       0.748  11.225  20.051  0.00  0.00    +0.000 HD
BRANCH   7  11
ATOM     11  C   UNL     1      -1.307  12.207  18.976  0.00  0.00    +0.000 C 
BRANCH  11  12
ATOM     12  O   UNL     1      -0.924  12.784  20.212  0.00  0.00    +0.000 OA
BRANCH  12  19
ATOM     13  C   UNL     1      -0.683  10.849  22.728  0.00  0.00    +0.000 C 
ATOM     14  C   UNL     1      -1.738  11.877  22.421  0.00  0.00    +0.000 A 
ATOM     15  C   UNL     1      -2.776  11.981  23.380  0.00  0.00    +0.000 A 
ATOM     16  C   UNL     1      -3.822  12.888  23.238  0.00  0.00    +0.000 A 
ATOM     17  C   UNL     1      -3.851  13.722  22.134  0.00  0.00    +0.000 A 
ATOM     18  C   UNL     1      -2.840  13.637  21.174  0.00  0.00    +0.000 A 
ATOM     19  C   UNL     1      -1.776  12.715  21.291  0.00  0.00    +0.000 A 
ENDBRANCH  12  19
ENDBRANCH  11  12
ENDBRANCH   7  11
ENDBRANCH   1   9
BRANCH   4  20
ATOM     20  S   UNL     1       3.778   5.682  18.252  0.00  0.00    +0.000 S 
ATOM     21  O   UNL     1       4.533   5.415  19.448  0.00  0.00    +0.000 OA
ATOM     22  O   UNL     1       2.895   4.685  17.681  0.00  0.00    +0.000 OA
BRANCH  20  23
ATOM     23  N   UNL     1       4.880   6.142  17.050  0.00  0.00    +0.000 NA
ATOM     24  C   UNL     1       5.143   5.261  15.892  0.00  0.00    +0.000 C 
ATOM     25  C   UNL     1       6.384   4.395  16.131  0.00  0.00    +0.000 C 
ATOM     26  O   UNL     1       7.531   5.183  16.482  0.00  0.00    +0.000 OA
ATOM     27  C   UNL     1       7.285   6.020  17.624  0.00  0.00    +0.000 C 
ATOM     28  C   UNL     1       6.079   6.937  17.399  0.00  0.00    +0.000 C 
ENDBRANCH  20  23
ENDBRANCH   4  20
TORSDOF 6
ENDMDL
MODEL 9
REMARK VINA RESULT:      -7.6      5.188      7.978
REMARK  Name = 
REMARK  7 active torsions:
REMARK  status: ('A' for Active; 'I' for Inactive)
REMARK    1  A    between atoms: C_1  and  C_2
REMARK    2  A    between atoms: C_7  and  O_8
REMARK    3  A    between atoms: O_8  and  C_9
REMARK    4  A    between atoms: C_9  and  C_10
REMARK    5  A    between atoms: N_12  and  C_13
REMARK    6  A    between atoms: C_16  and  S_17
REMARK    7  A    between atoms: S_17  and  N_20
REMARK                            x       y       z     vdW  Elec       q    Type
REMARK                         _______ _______ _______ _____ _____    ______ ____
ROOT
ATOM      1  C   UNL     1       2.202   7.902  18.948  0.00  0.00    +0.000 A 
ATOM      2  C   UNL     1       2.979   7.808  17.784  0.00  0.00    +0.000 A 
ATOM      3  C   UNL     1       3.844   6.720  17.604  0.00  0.00    +0.000 A 
ATOM      4  C   UNL     1       3.910   5.705  18.569  0.00  0.00    +0.000 A 
ATOM      5  C   UNL     1       3.069   5.763  19.685  0.00  0.00    +0.000 A 
ATOM      6  C   UNL     1       2.253   6.880  19.895  0.00  0.00    +0.000 A 
ENDROOT
BRANCH   1   9
ATOM      7  C   UNL     1       1.004   9.395  20.517  0.00  0.00    +0.000 C 
ATOM      8  O   UNL     1       1.379   8.853  21.556  0.00  0.00    +0.000 OA
ATOM      9  N   UNL     1       1.379   9.010  19.241  0.00  0.00    +0.000 N 
ATOM     10  H   UNL     1       1.342   9.748  18.547  0.00  0.00    +0.000 HD
BRANCH   7  11
ATOM     11  C   UNL     1       0.014  10.570  20.523  0.00  0.00    +0.000 C 
BRANCH  11  12
ATOM     12  O   UNL     1      -0.227  11.128  19.243  0.00  0.00    +0.000 OA
BRANCH  12  19
ATOM     13  C   UNL     1      -2.723  12.873  20.170  0.00  0.00    +0.000 C 
ATOM     14  C   UNL     1      -2.645  11.831  19.086  0.00  0.00    +0.000 A 
ATOM     15  C   UNL     1      -3.859  11.583  18.400  0.00  0.00    +0.000 A 
ATOM     16  C   UNL     1      -3.946  10.649  17.370  0.00  0.00    +0.000 A 
ATOM     17  C   UNL     1      -2.815   9.945  16.996  0.00  0.00    +0.000 A 
ATOM     18  C   UNL     1      -1.607  10.171  17.660  0.00  0.00    +0.000 A 
ATOM     19  C   UNL     1      -1.499  11.103  18.716  0.00  0.00    +0.000 A 
ENDBRANCH  12  19
ENDBRANCH  11  12
ENDBRANCH   7  11
ENDBRANCH   1   9
BRANCH   4  20
ATOM     20  S   UNL     1       4.944   4.265  18.332  0.00  0.00    +0.000 S 
ATOM     21  O   UNL     1       5.760   4.532  17.178  0.00  0.00    +0.000 OA
ATOM     22  O   UNL     1       5.536   3.948  19.617  0.00  0.00    +0.000 OA
BRANCH  20  23
ATOM     23  N   UNL     1       3.893   2.999  17.925  0.00  0.00    +0.000 NA
ATOM     24  C   UNL     1       2.721   3.243  17.057  0.00  0.00    +0.000 C 
ATOM     25  C   UNL     1       1.460   3.481  17.893  0.00  0.00    +0.000 C 
ATOM     26  O   UNL     1       1.227   2.420  18.832  0.00  0.00    +0.000 OA
ATOM     27  C   UNL     1       2.356   2.200  19.693  0.00  0.00    +0.000 C 
ATOM     28  C   UNL     1       3.627   1.908  18.889  0.00  0.00    +0.000 C 
ENDBRANCH  20  23
ENDBRANCH   4  20
TORSDOF 6
ENDMDL
