MODEL 1
REMARK VINA RESULT:      -9.1      0.000      0.000
REMARK  Name = 
REMARK  4 active torsions:
REMARK  status: ('A' for Active; 'I' for Inactive)
REMARK    1  A    between atoms: C_1  and  C_2
REMARK    2  A    between atoms: C_6  and  C_7
REMARK    3  A    between atoms: C_7  and  N_8
REMARK    4  A    between atoms: C_13  and  C_14
REMARK                            x       y       z     vdW  Elec       q    Type
REMARK                         _______ _______ _______ _____ _____    ______ ____
ROOT
ATOM      1  N   UNL     1       5.158   4.993  17.099  0.00  0.00    +0.000 N 
ATOM      2  C   UNL     1       5.103   6.399  17.037  0.00  0.00    +0.000 A 
ATOM      3  O   UNL     1       5.982   7.143  16.639  0.00  0.00    +0.000 OA
ATOM      4  N   UNL     1       3.878   6.928  17.472  0.00  0.00    +0.000 N 
ATOM      5  N   UNL     1       3.623   8.251  17.458  0.00  0.00    +0.000 NA
ATOM      6  C   UNL     1       2.372   8.317  17.931  0.00  0.00    +0.000 A 
ATOM      7  N   UNL     1       1.827   7.083  18.243  0.00  0.00    +0.000 NA
ATOM      8  C   UNL     1       2.787   6.233  17.915  0.00  0.00    +0.000 A 
ATOM      9  C   UNL     1       2.846   4.781  17.926  0.00  0.00    +0.000 A 
ATOM     10  C   UNL     1       1.727   3.988  18.214  0.00  0.00    +0.000 A 
ATOM     11  C   UNL     1       1.816   2.594  18.141  0.00  0.00    +0.000 A 
ATOM     12  C   UNL     1       3.029   1.989  17.827  0.00  0.00    +0.000 A 
ATOM     13  C   UNL     1       4.148   2.772  17.561  0.00  0.00    +0.000 A 
ATOM     14  C   UNL     1       4.065   4.173  17.553  0.00  0.00    +0.000 A 
ENDROOT
BRANCH   6  15
ATOM     15  C   UNL     1       1.692   9.602  18.099  0.00  0.00    +0.000 A 
ATOM     16  C   UNL     1       2.450  10.787  18.117  0.00  0.00    +0.000 A 
ATOM     17  C   UNL     1       1.853  12.022  18.374  0.00  0.00    +0.000 A 
ATOM     18  C   UNL     1       0.483  12.089  18.607  0.00  0.00    +0.000 A 
ATOM     19  C   UNL     1      -0.287  10.927  18.565  0.00  0.00    +0.000 A 
ATOM     20  C   UNL     1       0.310   9.686  18.305  0.00  0.00    +0.000 A 
ENDBRANCH   6  15
BRANCH   1  21
ATOM     21  C   UNL     1       6.349   4.383  16.504  0.00  0.00    +0.000 C 
BRANCH  21  27
ATOM     22  C   UNL     1       4.752   3.039  11.909  0.00  0.00    +0.000 C 
ATOM     23  C   UNL     1       5.710   3.832  12.753  0.00  0.00    +0.000 A 
ATOM     24  C   UNL     1       6.838   4.442  12.204  0.00  0.00    +0.000 A 
ATOM     25  C   UNL     1       7.754   5.089  13.032  0.00  0.00    +0.000 A 
ATOM     26  C   UNL     1       7.571   5.092  14.417  0.00  0.00    +0.000 A 
ATOM     27  C   UNL     1       6.449   4.482  14.994  0.00  0.00    +0.000 A 
ATOM     28  C   UNL     1       5.506   3.891  14.139  0.00  0.00    +0.000 A 
ENDBRANCH  21  27
ENDBRANCH   1  21
TORSDOF 3
ENDMDL
MODEL 2
REMARK VINA RESULT:      -8.8      2.611      3.791
REMARK  Name = 
REMARK  4 active torsions:
REMARK  status: ('A' for Active; 'I' for Inactive)
REMARK    1  A    between atoms: C_1  and  C_2
REMARK    2  A    between atoms: C_6  and  C_7
REMARK    3  A    between atoms: C_7  and  N_8
REMARK    4  A    between atoms: C_13  and  C_14
REMARK                            x       y       z     vdW  Elec       q    Type
REMARK                         _______ _______ _______ _____ _____    ______ ____
ROOT
ATOM      1  N   UNL     1       2.989   5.517  18.267  0.00  0.00    +0.000 N 
ATOM      2  C   UNL     1       2.731   6.900  18.335  0.00  0.00    +0.000 A 
ATOM      3  O   UNL     1       3.053   7.740  17.514  0.00  0.00    +0.000 OA
ATOM      4  N   UNL     1       2.010   7.277  19.479  0.00  0.00    +0.000 N 
ATOM      5  N   UNL     1       1.641   8.552  19.707  0.00  0.00    +0.000 NA
ATOM      6  C   UNL     1       0.983   8.467  20.870  0.00  0.00    +0.000 A 
ATOM      7  N   UNL     1       0.922   7.183  21.385  0.00  0.00    +0.000 NA
ATOM      8  C   UNL     1       1.549   6.458  20.474  0.00  0.00    +0.000 A 
ATOM      9  C   UNL     1       1.784   5.028  20.360  0.00  0.00    +0.000 A 
ATOM     10  C   UNL     1       1.215   4.104  21.247  0.00  0.00    +0.000 A 
ATOM     11  C   UNL     1       1.411   2.732  21.053  0.00  0.00    +0.000 A 
ATOM     12  C   UNL     1       2.209   2.283  20.006  0.00  0.00    +0.000 A 
ATOM     13  C   UNL     1       2.793   3.200  19.136  0.00  0.00    +0.000 A 
ATOM     14  C   UNL     1       2.549   4.575  19.264  0.00  0.00    +0.000 A 
ENDROOT
BRANCH   6  15
ATOM     15  C   UNL     1       0.411   9.655  21.506  0.00  0.00    +0.000 A 
ATOM     16  C   UNL     1      -0.410   9.503  22.638  0.00  0.00    +0.000 A 
ATOM     17  C   UNL     1      -1.054  10.599  23.214  0.00  0.00    +0.000 A 
ATOM     18  C   UNL     1      -0.877  11.867  22.669  0.00  0.00    +0.000 A 
ATOM     19  C   UNL     1      -0.045  12.038  21.563  0.00  0.00    +0.000 A 
ATOM     20  C   UNL     1       0.605  10.940  20.984  0.00  0.00    +0.000 A 
ENDBRANCH   6  15
BRANCH   1  21
ATOM     21  C   UNL     1       3.592   5.051  17.016  0.00  0.00    +0.000 C 
BRANCH  21  27
ATOM     22  C   UNL     1       8.061   5.682  19.275  0.00  0.00    +0.000 C 
ATOM     23  C   UNL     1       7.274   5.129  18.121  0.00  0.00    +0.000 A 
ATOM     24  C   UNL     1       7.901   4.643  16.973  0.00  0.00    +0.000 A 
ATOM     25  C   UNL     1       7.137   4.225  15.885  0.00  0.00    +0.000 A 
ATOM     26  C   UNL     1       5.744   4.331  15.920  0.00  0.00    +0.000 A 
ATOM     27  C   UNL     1       5.090   4.820  17.060  0.00  0.00    +0.000 A 
ATOM     28  C   UNL     1       5.874   5.176  18.168  0.00  0.00    +0.000 A 
ENDBRANCH  21  27
ENDBRANCH   1  21
TORSDOF 3
ENDMDL
MODEL 3
REMARK VINA RESULT:      -8.5      3.720      8.821
REMARK  Name = 
REMARK  4 active torsions:
REMARK  status: ('A' for Active; 'I' for Inactive)
REMARK    1  A    between atoms: C_1  and  C_2
REMARK    2  A    between atoms: C_6  and  C_7
REMARK    3  A    between atoms: C_7  and  N_8
REMARK    4  A    between atoms: C_13  and  C_14
REMARK                            x       y       z     vdW  Elec       q    Type
REMARK                         _______ _______ _______ _____ _____    ______ ____
ROOT
ATOM      1  N   UNL     1       0.755  10.799  19.359  0.00  0.00    +0.000 N 
ATOM      2  C   UNL     1       1.549   9.842  18.697  0.00  0.00    +0.000 A 
ATOM      3  O   UNL     1       2.122   9.985  17.631  0.00  0.00    +0.000 OA
ATOM      4  N   UNL     1       1.667   8.634  19.401  0.00  0.00    +0.000 N 
ATOM      5  N   UNL     1       2.411   7.607  18.945  0.00  0.00    +0.000 NA
ATOM      6  C   UNL     1       2.260   6.683  19.900  0.00  0.00    +0.000 A 
ATOM      7  N   UNL     1       1.447   7.088  20.946  0.00  0.00    +0.000 NA
ATOM      8  C   UNL     1       1.117   8.325  20.615  0.00  0.00    +0.000 A 
ATOM      9  C   UNL     1       0.341   9.343  21.304  0.00  0.00    +0.000 A 
ATOM     10  C   UNL     1      -0.125   9.170  22.614  0.00  0.00    +0.000 A 
ATOM     11  C   UNL     1      -0.805  10.207  23.260  0.00  0.00    +0.000 A 
ATOM     12  C   UNL     1      -1.062  11.398  22.588  0.00  0.00    +0.000 A 
ATOM     13  C   UNL     1      -0.619  11.565  21.279  0.00  0.00    +0.000 A 
ATOM     14  C   UNL     1       0.132  10.569  20.636  0.00  0.00    +0.000 A 
ENDROOT
BRANCH   6  15
ATOM     15  C   UNL     1       2.904   5.372  19.797  0.00  0.00    +0.000 A 
ATOM     16  C   UNL     1       2.306   4.259  20.415  0.00  0.00    +0.000 A 
ATOM     17  C   UNL     1       2.936   3.014  20.425  0.00  0.00    +0.000 A 
ATOM     18  C   UNL     1       4.172   2.863  19.805  0.00  0.00    +0.000 A 
ATOM     19  C   UNL     1       4.766   3.950  19.164  0.00  0.00    +0.000 A 
ATOM     20  C   UNL     1       4.134   5.201  19.150  0.00  0.00    +0.000 A 
ENDBRANCH   6  15
BRANCH   1  21
ATOM     21  C   UNL     1       0.735  12.130  18.748  0.00  0.00    +0.000 C 
BRANCH  21  27
ATOM     22  C   UNL     1       3.525  14.825  21.977  0.00  0.00    +0.000 C 
ATOM     23  C   UNL     1       3.303  14.331  20.575  0.00  0.00    +0.000 A 
ATOM     24  C   UNL     1       4.016  14.852  19.494  0.00  0.00    +0.000 A 
ATOM     25  C   UNL     1       3.718  14.438  18.197  0.00  0.00    +0.000 A 
ATOM     26  C   UNL     1       2.677  13.534  17.969  0.00  0.00    +0.000 A 
ATOM     27  C   UNL     1       1.943  13.000  19.037  0.00  0.00    +0.000 A 
ATOM     28  C   UNL     1       2.300  13.381  20.340  0.00  0.00    +0.000 A 
ENDBRANCH  21  27
ENDBRANCH   1  21
TORSDOF 3
ENDMDL
MODEL 4
REMARK VINA RESULT:      -8.5      2.515      3.286
REMARK  Name = 
REMARK  4 active torsions:
REMARK  status: ('A' for Active; 'I' for Inactive)
REMARK    1  A    between atoms: C_1  and  C_2
REMARK    2  A    between atoms: C_6  and  C_7
REMARK    3  A    between atoms: C_7  and  N_8
REMARK    4  A    between atoms: C_13  and  C_14
REMARK                            x       y       z     vdW  Elec       q    Type
REMARK                         _______ _______ _______ _____ _____    ______ ____
ROOT
ATOM      1  N   UNL     1       3.067   5.196  18.246  0.00  0.00    +0.000 N 
ATOM      2  C   UNL     1       2.703   6.555  18.203  0.00  0.00    +0.000 A 
ATOM      3  O   UNL     1       2.832   7.312  17.256  0.00  0.00    +0.000 OA
ATOM      4  N   UNL     1       2.121   7.015  19.394  0.00  0.00    +0.000 N 
ATOM      5  N   UNL     1       1.679   8.279  19.536  0.00  0.00    +0.000 NA
ATOM      6  C   UNL     1       1.201   8.289  20.786  0.00  0.00    +0.000 A 
ATOM      7  N   UNL     1       1.325   7.074  21.441  0.00  0.00    +0.000 NA
ATOM      8  C   UNL     1       1.878   6.291  20.530  0.00  0.00    +0.000 A 
ATOM      9  C   UNL     1       2.216   4.877  20.537  0.00  0.00    +0.000 A 
ATOM     10  C   UNL     1       1.861   4.028  21.594  0.00  0.00    +0.000 A 
ATOM     11  C   UNL     1       2.145   2.661  21.522  0.00  0.00    +0.000 A 
ATOM     12  C   UNL     1       2.823   2.147  20.422  0.00  0.00    +0.000 A 
ATOM     13  C   UNL     1       3.197   2.991  19.380  0.00  0.00    +0.000 A 
ATOM     14  C   UNL     1       2.856   4.352  19.394  0.00  0.00    +0.000 A 
ENDROOT
BRANCH   6  15
ATOM     15  C   UNL     1       0.625   9.501  21.369  0.00  0.00    +0.000 A 
ATOM     16  C   UNL     1      -0.115   9.409  22.562  0.00  0.00    +0.000 A 
ATOM     17  C   UNL     1      -0.764  10.523  23.097  0.00  0.00    +0.000 A 
ATOM     18  C   UNL     1      -0.673  11.750  22.448  0.00  0.00    +0.000 A 
ATOM     19  C   UNL     1       0.078  11.865  21.279  0.00  0.00    +0.000 A 
ATOM     20  C   UNL     1       0.733  10.748  20.741  0.00  0.00    +0.000 A 
ENDBRANCH   6  15
BRANCH   1  21
ATOM     21  C   UNL     1       3.526   4.626  16.977  0.00  0.00    +0.000 C 
BRANCH  21  27
ATOM     22  C   UNL     1       7.321   4.869  13.659  0.00  0.00    +0.000 C 
ATOM     23  C   UNL     1       6.863   4.911  15.089  0.00  0.00    +0.000 A 
ATOM     24  C   UNL     1       7.769   4.852  16.150  0.00  0.00    +0.000 A 
ATOM     25  C   UNL     1       7.303   4.797  17.462  0.00  0.00    +0.000 A 
ATOM     26  C   UNL     1       5.930   4.757  17.721  0.00  0.00    +0.000 A 
ATOM     27  C   UNL     1       5.000   4.810  16.673  0.00  0.00    +0.000 A 
ATOM     28  C   UNL     1       5.488   4.928  15.363  0.00  0.00    +0.000 A 
ENDBRANCH  21  27
ENDBRANCH   1  21
TORSDOF 3
ENDMDL
MODEL 5
REMARK VINA RESULT:      -8.4      0.501      1.327
REMARK  Name = 
REMARK  4 active torsions:
REMARK  status: ('A' for Active; 'I' for Inactive)
REMARK    1  A    between atoms: C_1  and  C_2
REMARK    2  A    between atoms: C_6  and  C_7
REMARK    3  A    between atoms: C_7  and  N_8
REMARK    4  A    between atoms: C_13  and  C_14
REMARK                            x       y       z     vdW  Elec       q    Type
REMARK                         _______ _______ _______ _____ _____    ______ ____
ROOT
ATOM      1  N   UNL     1       5.086   5.079  17.490  0.00  0.00    +0.000 N 
ATOM      2  C   UNL     1       5.029   6.485  17.431  0.00  0.00    +0.000 A 
ATOM      3  O   UNL     1       5.940   7.236  17.131  0.00  0.00    +0.000 OA
ATOM      4  N   UNL     1       3.763   7.004  17.740  0.00  0.00    +0.000 N 
ATOM      5  N   UNL     1       3.502   8.325  17.708  0.00  0.00    +0.000 NA
ATOM      6  C   UNL     1       2.209   8.381  18.050  0.00  0.00    +0.000 A 
ATOM      7  N   UNL     1       1.642   7.142  18.296  0.00  0.00    +0.000 NA
ATOM      8  C   UNL     1       2.635   6.299  18.064  0.00  0.00    +0.000 A 
ATOM      9  C   UNL     1       2.703   4.848  18.071  0.00  0.00    +0.000 A 
ATOM     10  C   UNL     1       1.564   4.047  18.237  0.00  0.00    +0.000 A 
ATOM     11  C   UNL     1       1.670   2.654  18.164  0.00  0.00    +0.000 A 
ATOM     12  C   UNL     1       2.912   2.057  17.974  0.00  0.00    +0.000 A 
ATOM     13  C   UNL     1       4.048   2.849  17.830  0.00  0.00    +0.000 A 
ATOM     14  C   UNL     1       3.957   4.249  17.823  0.00  0.00    +0.000 A 
ENDROOT
BRANCH   6  15
ATOM     15  C   UNL     1       1.507   9.661  18.155  0.00  0.00    +0.000 A 
ATOM     16  C   UNL     1       2.252  10.851  18.255  0.00  0.00    +0.000 A 
ATOM     17  C   UNL     1       1.624  12.080  18.457  0.00  0.00    +0.000 A 
ATOM     18  C   UNL     1       0.237  12.138  18.551  0.00  0.00    +0.000 A 
ATOM     19  C   UNL     1      -0.518  10.972  18.426  0.00  0.00    +0.000 A 
ATOM     20  C   UNL     1       0.110   9.736  18.221  0.00  0.00    +0.000 A 
ENDBRANCH   6  15
BRANCH   1  21
ATOM     21  C   UNL     1       6.337   4.479  17.017  0.00  0.00    +0.000 C 
BRANCH  21  27
ATOM     22  C   UNL     1       8.467   5.876  12.660  0.00  0.00    +0.000 C 
ATOM     23  C   UNL     1       7.468   5.016  13.382  0.00  0.00    +0.000 A 
ATOM     24  C   UNL     1       6.489   4.296  12.695  0.00  0.00    +0.000 A 
ATOM     25  C   UNL     1       5.521   3.585  13.403  0.00  0.00    +0.000 A 
ATOM     26  C   UNL     1       5.499   3.625  14.799  0.00  0.00    +0.000 A 
ATOM     27  C   UNL     1       6.468   4.344  15.512  0.00  0.00    +0.000 A 
ATOM     28  C   UNL     1       7.471   5.001  14.784  0.00  0.00    +0.000 A 
ENDBRANCH  21  27
ENDBRANCH   1  21
TORSDOF 3
ENDMDL
MODEL 6
REMARK VINA RESULT:      -8.4      3.334      8.682
REMARK  Name = 
REMARK  4 active torsions:
REMARK  status: ('A' for Active; 'I' for Inactive)
REMARK    1  A    between atoms: C_1  and  C_2
REMARK    2  A    between atoms: C_6  and  C_7
REMARK    3  A    between atoms: C_7  and  N_8
REMARK    4  A    between atoms: C_13  and  C_14
REMARK                            x       y       z     vdW  Elec       q    Type
REMARK                         _______ _______ _______ _____ _____    ______ ____
ROOT
ATOM      1  N   UNL     1       0.804  11.101  19.360  0.00  0.00    +0.000 N 
ATOM      2  C   UNL     1       1.575  10.286  18.508  0.00  0.00    +0.000 A 
ATOM      3  O   UNL     1       2.075  10.613  17.446  0.00  0.00    +0.000 OA
ATOM      4  N   UNL     1       1.765   8.986  19.002  0.00  0.00    +0.000 N 
ATOM      5  N   UNL     1       2.500   8.069  18.345  0.00  0.00    +0.000 NA
ATOM      6  C   UNL     1       2.432   7.001  19.149  0.00  0.00    +0.000 A 
ATOM      7  N   UNL     1       1.679   7.210  20.293  0.00  0.00    +0.000 NA
ATOM      8  C   UNL     1       1.301   8.474  20.183  0.00  0.00    +0.000 A 
ATOM      9  C   UNL     1       0.549   9.345  21.070  0.00  0.00    +0.000 A 
ATOM     10  C   UNL     1       0.172   8.953  22.362  0.00  0.00    +0.000 A 
ATOM     11  C   UNL     1      -0.487   9.854  23.205  0.00  0.00    +0.000 A 
ATOM     12  C   UNL     1      -0.813  11.126  22.747  0.00  0.00    +0.000 A 
ATOM     13  C   UNL     1      -0.460  11.512  21.457  0.00  0.00    +0.000 A 
ATOM     14  C   UNL     1       0.270  10.654  20.620  0.00  0.00    +0.000 A 
ENDROOT
BRANCH   6  15
ATOM     15  C   UNL     1       3.096   5.745  18.800  0.00  0.00    +0.000 A 
ATOM     16  C   UNL     1       2.478   4.867  17.889  0.00  0.00    +0.000 A 
ATOM     17  C   UNL     1       3.029   3.617  17.606  0.00  0.00    +0.000 A 
ATOM     18  C   UNL     1       4.213   3.230  18.224  0.00  0.00    +0.000 A 
ATOM     19  C   UNL     1       4.853   4.098  19.108  0.00  0.00    +0.000 A 
ATOM     20  C   UNL     1       4.304   5.356  19.392  0.00  0.00    +0.000 A 
ENDBRANCH   6  15
BRANCH   1  21
ATOM     21  C   UNL     1       0.716  12.510  18.971  0.00  0.00    +0.000 C 
BRANCH  21  27
ATOM     22  C   UNL     1       4.969  14.952  17.779  0.00  0.00    +0.000 C 
ATOM     23  C   UNL     1       3.972  14.550  18.829  0.00  0.00    +0.000 A 
ATOM     24  C   UNL     1       4.230  14.723  20.189  0.00  0.00    +0.000 A 
ATOM     25  C   UNL     1       3.324  14.251  21.137  0.00  0.00    +0.000 A 
ATOM     26  C   UNL     1       2.175  13.566  20.733  0.00  0.00    +0.000 A 
ATOM     27  C   UNL     1       1.895  13.375  19.373  0.00  0.00    +0.000 A 
ATOM     28  C   UNL     1       2.788  13.912  18.433  0.00  0.00    +0.000 A 
ENDBRANCH  21  27
ENDBRANCH   1  21
TORSDOF 3
ENDMDL
MODEL 7
REMARK VINA RESULT:      -8.4      3.353      8.731
REMARK  Name = 
REMARK  4 active torsions:
REMARK  status: ('A' for Active; 'I' for Inactive)
REMARK    1  A    between atoms: C_1  and  C_2
REMARK    2  A    between atoms: C_6  and  C_7
REMARK    3  A    between atoms: C_7  and  N_8
REMARK    4  A    between atoms: C_13  and  C_14
REMARK                            x       y       z     vdW  Elec       q    Type
REMARK                         _______ _______ _______ _____ _____    ______ ____
ROOT
ATOM      1  N   UNL     1       0.854  11.038  19.365  0.00  0.00    +0.000 N 
ATOM      2  C   UNL     1       1.605  10.173  18.545  0.00  0.00    +0.000 A 
ATOM      3  O   UNL     1       2.123  10.451  17.478  0.00  0.00    +0.000 OA
ATOM      4  N   UNL     1       1.749   8.884  19.081  0.00  0.00    +0.000 N 
ATOM      5  N   UNL     1       2.460   7.924  18.459  0.00  0.00    +0.000 NA
ATOM      6  C   UNL     1       2.351   6.884  19.295  0.00  0.00    +0.000 A 
ATOM      7  N   UNL     1       1.597   7.153  20.425  0.00  0.00    +0.000 NA
ATOM      8  C   UNL     1       1.260   8.423  20.273  0.00  0.00    +0.000 A 
ATOM      9  C   UNL     1       0.530   9.346  21.126  0.00  0.00    +0.000 A 
ATOM     10  C   UNL     1       0.131   9.006  22.426  0.00  0.00    +0.000 A 
ATOM     11  C   UNL     1      -0.506   9.953  23.235  0.00  0.00    +0.000 A 
ATOM     12  C   UNL     1      -0.787  11.220  22.735  0.00  0.00    +0.000 A 
ATOM     13  C   UNL     1      -0.412  11.554  21.437  0.00  0.00    +0.000 A 
ATOM     14  C   UNL     1       0.296  10.648  20.633  0.00  0.00    +0.000 A 
ENDROOT
BRANCH   6  15
ATOM     15  C   UNL     1       2.978   5.597  18.990  0.00  0.00    +0.000 A 
ATOM     16  C   UNL     1       4.290   5.347  19.432  0.00  0.00    +0.000 A 
ATOM     17  C   UNL     1       4.958   4.174  19.079  0.00  0.00    +0.000 A 
ATOM     18  C   UNL     1       4.318   3.228  18.284  0.00  0.00    +0.000 A 
ATOM     19  C   UNL     1       3.008   3.449  17.861  0.00  0.00    +0.000 A 
ATOM     20  C   UNL     1       2.333   4.625  18.216  0.00  0.00    +0.000 A 
ENDBRANCH   6  15
BRANCH   1  21
ATOM     21  C   UNL     1       0.813  12.437  18.932  0.00  0.00    +0.000 C 
BRANCH  21  27
ATOM     22  C   UNL     1       3.943  14.785  22.119  0.00  0.00    +0.000 C 
ATOM     23  C   UNL     1       3.600  14.402  20.707  0.00  0.00    +0.000 A 
ATOM     24  C   UNL     1       4.254  14.973  19.614  0.00  0.00    +0.000 A 
ATOM     25  C   UNL     1       3.845  14.664  18.318  0.00  0.00    +0.000 A 
ATOM     26  C   UNL     1       2.752  13.819  18.107  0.00  0.00    +0.000 A 
ATOM     27  C   UNL     1       2.076  13.237  19.188  0.00  0.00    +0.000 A 
ATOM     28  C   UNL     1       2.542  13.510  20.483  0.00  0.00    +0.000 A 
ENDBRANCH  21  27
ENDBRANCH   1  21
TORSDOF 3
ENDMDL
MODEL 8
REMARK VINA RESULT:      -8.3      3.676      8.718
REMARK  Name = 
REMARK  4 active torsions:
REMARK  status: ('A' for Active; 'I' for Inactive)
REMARK    1  A    between atoms: C_1  and  C_2
REMARK    2  A    between atoms: C_6  and  C_7
REMARK    3  A    between atoms: C_7  and  N_8
REMARK    4  A    between atoms: C_13  and  C_14
REMARK                            x       y       z     vdW  Elec       q    Type
REMARK                         _______ _______ _______ _____ _____    ______ ____
ROOT
ATOM      1  N   UNL     1       0.687  10.890  19.381  0.00  0.00    +0.000 N 
ATOM      2  C   UNL     1       1.504   9.948  18.725  0.00  0.00    +0.000 A 
ATOM      3  O   UNL     1       2.083  10.103  17.665  0.00  0.00    +0.000 OA
ATOM      4  N   UNL     1       1.637   8.741  19.428  0.00  0.00    +0.000 N 
ATOM      5  N   UNL     1       2.403   7.729  18.977  0.00  0.00    +0.000 NA
ATOM      6  C   UNL     1       2.259   6.800  19.930  0.00  0.00    +0.000 A 
ATOM      7  N   UNL     1       1.430   7.189  20.969  0.00  0.00    +0.000 NA
ATOM      8  C   UNL     1       1.081   8.421  20.637  0.00  0.00    +0.000 A 
ATOM      9  C   UNL     1       0.282   9.424  21.320  0.00  0.00    +0.000 A 
ATOM     10  C   UNL     1      -0.193   9.240  22.626  0.00  0.00    +0.000 A 
ATOM     11  C   UNL     1      -0.897  10.264  23.268  0.00  0.00    +0.000 A 
ATOM     12  C   UNL     1      -1.169  11.451  22.595  0.00  0.00    +0.000 A 
ATOM     13  C   UNL     1      -0.718  11.629  21.290  0.00  0.00    +0.000 A 
ATOM     14  C   UNL     1       0.056  10.647  20.652  0.00  0.00    +0.000 A 
ENDROOT
BRANCH   6  15
ATOM     15  C   UNL     1       2.927   5.502  19.830  0.00  0.00    +0.000 A 
ATOM     16  C   UNL     1       4.234   5.435  19.312  0.00  0.00    +0.000 A 
ATOM     17  C   UNL     1       4.867   4.209  19.107  0.00  0.00    +0.000 A 
ATOM     18  C   UNL     1       4.204   3.029  19.428  0.00  0.00    +0.000 A 
ATOM     19  C   UNL     1       2.919   3.078  19.968  0.00  0.00    +0.000 A 
ATOM     20  C   UNL     1       2.281   4.309  20.177  0.00  0.00    +0.000 A 
ENDBRANCH   6  15
BRANCH   1  21
ATOM     21  C   UNL     1       0.648  12.222  18.772  0.00  0.00    +0.000 C 
BRANCH  21  27
ATOM     22  C   UNL     1       4.999  14.594  17.817  0.00  0.00    +0.000 C 
ATOM     23  C   UNL     1       3.874  14.314  18.772  0.00  0.00    +0.000 A 
ATOM     24  C   UNL     1       3.945  14.683  20.116  0.00  0.00    +0.000 A 
ATOM     25  C   UNL     1       2.924  14.323  20.994  0.00  0.00    +0.000 A 
ATOM     26  C   UNL     1       1.847  13.555  20.543  0.00  0.00    +0.000 A 
ATOM     27  C   UNL     1       1.754  13.167  19.199  0.00  0.00    +0.000 A 
ATOM     28  C   UNL     1       2.761  13.593  18.319  0.00  0.00    +0.000 A 
ENDBRANCH  21  27
ENDBRANCH   1  21
TORSDOF 3
ENDMDL
MODEL 9
REMARK VINA RESULT:      -8.3      1.545      7.408
REMARK  Name = 
REMARK  4 active torsions:
REMARK  status: ('A' for Active; 'I' for Inactive)
REMARK    1  A    between atoms: C_1  and  C_2
REMARK    2  A    between atoms: C_6  and  C_7
REMARK    3  A    between atoms: C_7  and  N_8
REMARK    4  A    between atoms: C_13  and  C_14
REMARK                            x       y       z     vdW  Elec       q    Type
REMARK                         _______ _______ _______ _____ _____    ______ ____
ROOT
ATOM      1  N   UNL     1       2.918   6.080  18.975  0.00  0.00    +0.000 N 
ATOM      2  C   UNL     1       3.882   6.495  18.036  0.00  0.00    +0.000 A 
ATOM      3  O   UNL     1       4.464   7.566  18.017  0.00  0.00    +0.000 OA
ATOM      4  N   UNL     1       4.168   5.524  17.064  0.00  0.00    +0.000 N 
ATOM      5  N   UNL     1       5.086   5.723  16.099  0.00  0.00    +0.000 NA
ATOM      6  C   UNL     1       5.051   4.574  15.414  0.00  0.00    +0.000 A 
ATOM      7  N   UNL     1       4.144   3.653  15.912  0.00  0.00    +0.000 NA
ATOM      8  C   UNL     1       3.630   4.270  16.964  0.00  0.00    +0.000 A 
ATOM      9  C   UNL     1       2.673   3.843  17.971  0.00  0.00    +0.000 A 
ATOM     10  C   UNL     1       2.192   2.528  18.036  0.00  0.00    +0.000 A 
ATOM     11  C   UNL     1       1.328   2.147  19.068  0.00  0.00    +0.000 A 
ATOM     12  C   UNL     1       0.907   3.083  20.006  0.00  0.00    +0.000 A 
ATOM     13  C   UNL     1       1.366   4.395  19.932  0.00  0.00    +0.000 A 
ATOM     14  C   UNL     1       2.292   4.783  18.952  0.00  0.00    +0.000 A 
ENDROOT
BRANCH   6  15
ATOM     15  C   UNL     1       5.903   4.363  14.242  0.00  0.00    +0.000 A 
ATOM     16  C   UNL     1       7.098   5.095  14.117  0.00  0.00    +0.000 A 
ATOM     17  C   UNL     1       7.887   4.998  12.970  0.00  0.00    +0.000 A 
ATOM     18  C   UNL     1       7.496   4.156  11.935  0.00  0.00    +0.000 A 
ATOM     19  C   UNL     1       6.329   3.402  12.055  0.00  0.00    +0.000 A 
ATOM     20  C   UNL     1       5.535   3.496  13.206  0.00  0.00    +0.000 A 
ENDBRANCH   6  15
BRANCH   1  21
ATOM     21  C   UNL     1       2.705   6.991  20.102  0.00  0.00    +0.000 C 
BRANCH  21  27
ATOM     22  C   UNL     1      -0.684  10.385  21.672  0.00  0.00    +0.000 C 
ATOM     23  C   UNL     1       0.141   9.820  20.551  0.00  0.00    +0.000 A 
ATOM     24  C   UNL     1      -0.088  10.178  19.221  0.00  0.00    +0.000 A 
ATOM     25  C   UNL     1       0.633   9.562  18.199  0.00  0.00    +0.000 A 
ATOM     26  C   UNL     1       1.556   8.556  18.496  0.00  0.00    +0.000 A 
ATOM     27  C   UNL     1       1.802   8.176  19.823  0.00  0.00    +0.000 A 
ATOM     28  C   UNL     1       1.111   8.851  20.842  0.00  0.00    +0.000 A 
ENDBRANCH  21  27
ENDBRANCH   1  21
TORSDOF 3
ENDMDL
