MODEL 1
REMARK VINA RESULT:      -8.0      0.000      0.000
REMARK  Name = 
REMARK  7 active torsions:
REMARK  status: ('A' for Active; 'I' for Inactive)
REMARK    1  A    between atoms: C_1  and  C_2
REMARK    2  A    between atoms: C_3  and  C_4
REMARK    3  A    between atoms: C_4  and  C_6
REMARK    4  A    between atoms: N_19  and  C_20
REMARK    5  A    between atoms: C_20  and  C_21
REMARK    6  A    between atoms: C_20  and  C_22
REMARK    7  A    between atoms: C_22  and  N_23
REMARK                            x       y       z     vdW  Elec       q    Type
REMARK                         _______ _______ _______ _____ _____    ______ ____
ROOT
ATOM      1  C   UNL     1       4.177   7.538  17.802  0.00  0.00    +0.000 C 
ATOM      2  C   UNL     1       3.758   6.365  18.627  0.00  0.00    +0.000 A 
ATOM      3  C   UNL     1       4.386   5.138  18.824  0.00  0.00    +0.000 A 
ATOM      4  C   UNL     1       3.498   4.336  19.610  0.00  0.00    +0.000 A 
ATOM      5  C   UNL     1       3.566   2.997  20.061  0.00  0.00    +0.000 A 
ATOM      6  C   UNL     1       2.539   2.471  20.845  0.00  0.00    +0.000 A 
ATOM      7  C   UNL     1       1.453   3.262  21.186  0.00  0.00    +0.000 A 
ATOM      8  C   UNL     1       1.355   4.589  20.742  0.00  0.00    +0.000 A 
ATOM      9  C   UNL     1       2.389   5.117  19.949  0.00  0.00    +0.000 A 
ATOM     10  N   UNL     1       2.572   6.362  19.359  0.00  0.00    +0.000 N 
ENDROOT
BRANCH   3  11
ATOM     11  C   UNL     1       5.670   4.673  18.292  0.00  0.00    +0.000 C 
ATOM     12  O   UNL     1       6.608   4.395  19.039  0.00  0.00    +0.000 OA
BRANCH  11  13
ATOM     13  C   UNL     1       5.912   4.552  16.832  0.00  0.00    +0.000 A 
ATOM     14  C   UNL     1       7.136   5.019  16.323  0.00  0.00    +0.000 A 
ATOM     15  C   UNL     1       7.401   4.965  14.952  0.00  0.00    +0.000 A 
ATOM     16  C   UNL     1       6.449   4.442  14.079  0.00  0.00    +0.000 A 
ATOM     17  C   UNL     1       5.229   3.984  14.575  0.00  0.00    +0.000 A 
ATOM     18  C   UNL     1       4.958   4.058  15.941  0.00  0.00    +0.000 A 
ATOM     19  F   UNL     1       3.750   3.658  16.357  0.00  0.00    +0.000 F 
ENDBRANCH  11  13
ENDBRANCH   3  11
BRANCH  10  20
ATOM     20  C   UNL     1       1.623   7.482  19.396  0.00  0.00    +0.000 C 
ATOM     21  C   UNL     1       1.544   8.089  20.811  0.00  0.00    +0.000 C 
BRANCH  20  22
ATOM     22  C   UNL     1       1.854   8.618  18.364  0.00  0.00    +0.000 C 
BRANCH  22  23
ATOM     23  N   UNL     1       1.387   9.985  18.556  0.00  0.00    +0.000 NA
ATOM     24  C   UNL     1       2.221  11.063  18.017  0.00  0.00    +0.000 C 
ATOM     25  C   UNL     1       1.809  12.392  18.682  0.00  0.00    +0.000 C 
ATOM     26  O   UNL     1       0.411  12.672  18.490  0.00  0.00    +0.000 OA
ATOM     27  C   UNL     1      -0.392  11.586  18.981  0.00  0.00    +0.000 C 
ATOM     28  C   UNL     1      -0.026  10.262  18.282  0.00  0.00    +0.000 C 
ENDBRANCH  22  23
ENDBRANCH  20  22
ENDBRANCH  10  20
TORSDOF 5
ENDMDL
MODEL 2
REMARK VINA RESULT:      -7.9      0.919      1.268
REMARK  Name = 
REMARK  7 active torsions:
REMARK  status: ('A' for Active; 'I' for Inactive)
REMARK    1  A    between atoms: C_1  and  C_2
REMARK    2  A    between atoms: C_3  and  C_4
REMARK    3  A    between atoms: C_4  and  C_6
REMARK    4  A    between atoms: N_19  and  C_20
REMARK    5  A    between atoms: C_20  and  C_21
REMARK    6  A    between atoms: C_20  and  C_22
REMARK    7  A    between atoms: C_22  and  N_23
REMARK                            x       y       z     vdW  Elec       q    Type
REMARK                         _______ _______ _______ _____ _____    ______ ____
ROOT
ATOM      1  C   UNL     1       4.193   7.559  17.764  0.00  0.00    +0.000 C 
ATOM      2  C   UNL     1       3.765   6.380  18.577  0.00  0.00    +0.000 A 
ATOM      3  C   UNL     1       4.389   5.150  18.768  0.00  0.00    +0.000 A 
ATOM      4  C   UNL     1       3.493   4.343  19.541  0.00  0.00    +0.000 A 
ATOM      5  C   UNL     1       3.555   3.001  19.982  0.00  0.00    +0.000 A 
ATOM      6  C   UNL     1       2.521   2.470  20.754  0.00  0.00    +0.000 A 
ATOM      7  C   UNL     1       1.434   3.261  21.092  0.00  0.00    +0.000 A 
ATOM      8  C   UNL     1       1.342   4.592  20.659  0.00  0.00    +0.000 A 
ATOM      9  C   UNL     1       2.383   5.124  19.877  0.00  0.00    +0.000 A 
ATOM     10  N   UNL     1       2.574   6.373  19.300  0.00  0.00    +0.000 N 
ENDROOT
BRANCH   3  11
ATOM     11  C   UNL     1       5.676   4.687  18.242  0.00  0.00    +0.000 C 
ATOM     12  O   UNL     1       6.587   4.344  18.995  0.00  0.00    +0.000 OA
BRANCH  11  13
ATOM     13  C   UNL     1       5.954   4.645  16.785  0.00  0.00    +0.000 A 
ATOM     14  C   UNL     1       5.261   3.703  16.005  0.00  0.00    +0.000 A 
ATOM     15  C   UNL     1       5.512   3.593  14.635  0.00  0.00    +0.000 A 
ATOM     16  C   UNL     1       6.453   4.425  14.031  0.00  0.00    +0.000 A 
ATOM     17  C   UNL     1       7.150   5.357  14.798  0.00  0.00    +0.000 A 
ATOM     18  C   UNL     1       6.913   5.450  16.170  0.00  0.00    +0.000 A 
ATOM     19  F   UNL     1       7.651   6.321  16.869  0.00  0.00    +0.000 F 
ENDBRANCH  11  13
ENDBRANCH   3  11
BRANCH  10  20
ATOM     20  C   UNL     1       1.626   7.496  19.338  0.00  0.00    +0.000 C 
ATOM     21  C   UNL     1       1.551   8.102  20.754  0.00  0.00    +0.000 C 
BRANCH  20  22
ATOM     22  C   UNL     1       1.858   8.631  18.307  0.00  0.00    +0.000 C 
BRANCH  22  23
ATOM     23  N   UNL     1       1.425  10.007  18.515  0.00  0.00    +0.000 NA
ATOM     24  C   UNL     1       2.272  11.070  17.966  0.00  0.00    +0.000 C 
ATOM     25  C   UNL     1       1.903  12.403  18.647  0.00  0.00    +0.000 C 
ATOM     26  O   UNL     1       0.508  12.715  18.484  0.00  0.00    +0.000 OA
ATOM     27  C   UNL     1      -0.309  11.645  18.984  0.00  0.00    +0.000 C 
ATOM     28  C   UNL     1       0.014  10.317  18.271  0.00  0.00    +0.000 C 
ENDBRANCH  22  23
ENDBRANCH  20  22
ENDBRANCH  10  20
TORSDOF 5
ENDMDL
MODEL 3
REMARK VINA RESULT:      -7.8      1.425      1.914
REMARK  Name = 
REMARK  7 active torsions:
REMARK  status: ('A' for Active; 'I' for Inactive)
REMARK    1  A    between atoms: C_1  and  C_2
REMARK    2  A    between atoms: C_3  and  C_4
REMARK    3  A    between atoms: C_4  and  C_6
REMARK    4  A    between atoms: N_19  and  C_20
REMARK    5  A    between atoms: C_20  and  C_21
REMARK    6  A    between atoms: C_20  and  C_22
REMARK    7  A    between atoms: C_22  and  N_23
REMARK                            x       y       z     vdW  Elec       q    Type
REMARK                         _______ _______ _______ _____ _____    ______ ____
ROOT
ATOM      1  C   UNL     1       4.579   7.699  17.783  0.00  0.00    +0.000 C 
ATOM      2  C   UNL     1       4.041   6.551  18.575  0.00  0.00    +0.000 A 
ATOM      3  C   UNL     1       4.532   5.256  18.721  0.00  0.00    +0.000 A 
ATOM      4  C   UNL     1       3.569   4.529  19.492  0.00  0.00    +0.000 A 
ATOM      5  C   UNL     1       3.494   3.176  19.898  0.00  0.00    +0.000 A 
ATOM      6  C   UNL     1       2.423   2.739  20.678  0.00  0.00    +0.000 A 
ATOM      7  C   UNL     1       1.434   3.632  21.059  0.00  0.00    +0.000 A 
ATOM      8  C   UNL     1       1.478   4.976  20.662  0.00  0.00    +0.000 A 
ATOM      9  C   UNL     1       2.556   5.416  19.872  0.00  0.00    +0.000 A 
ATOM     10  N   UNL     1       2.870   6.652  19.323  0.00  0.00    +0.000 N 
ENDROOT
BRANCH   3  11
ATOM     11  C   UNL     1       5.752   4.672  18.156  0.00  0.00    +0.000 C 
ATOM     12  O   UNL     1       6.679   4.308  18.879  0.00  0.00    +0.000 OA
BRANCH  11  13
ATOM     13  C   UNL     1       5.941   4.528  16.692  0.00  0.00    +0.000 A 
ATOM     14  C   UNL     1       7.153   4.971  16.133  0.00  0.00    +0.000 A 
ATOM     15  C   UNL     1       7.370   4.894  14.755  0.00  0.00    +0.000 A 
ATOM     16  C   UNL     1       6.381   4.372  13.923  0.00  0.00    +0.000 A 
ATOM     17  C   UNL     1       5.173   3.938  14.467  0.00  0.00    +0.000 A 
ATOM     18  C   UNL     1       4.951   4.034  15.841  0.00  0.00    +0.000 A 
ATOM     19  F   UNL     1       3.753   3.657  16.303  0.00  0.00    +0.000 F 
ENDBRANCH  11  13
ENDBRANCH   3  11
BRANCH  10  20
ATOM     20  C   UNL     1       2.049   7.868  19.410  0.00  0.00    +0.000 C 
ATOM     21  C   UNL     1       1.192   8.044  18.140  0.00  0.00    +0.000 C 
BRANCH  20  22
ATOM     22  C   UNL     1       1.143   8.002  20.662  0.00  0.00    +0.000 C 
BRANCH  22  23
ATOM     23  N   UNL     1       0.595   9.270  21.125  0.00  0.00    +0.000 NA
ATOM     24  C   UNL     1       0.272   9.383  22.550  0.00  0.00    +0.000 C 
ATOM     25  C   UNL     1      -0.671  10.585  22.754  0.00  0.00    +0.000 C 
ATOM     26  O   UNL     1      -0.095  11.805  22.254  0.00  0.00    +0.000 OA
ATOM     27  C   UNL     1       0.259  11.664  20.869  0.00  0.00    +0.000 C 
ATOM     28  C   UNL     1       1.246  10.499  20.662  0.00  0.00    +0.000 C 
ENDBRANCH  22  23
ENDBRANCH  20  22
ENDBRANCH  10  20
TORSDOF 5
ENDMDL
MODEL 4
REMARK VINA RESULT:      -7.8      3.276      8.403
REMARK  Name = 
REMARK  7 active torsions:
REMARK  status: ('A' for Active; 'I' for Inactive)
REMARK    1  A    between atoms: C_1  and  C_2
REMARK    2  A    between atoms: C_3  and  C_4
REMARK    3  A    between atoms: C_4  and  C_6
REMARK    4  A    between atoms: N_19  and  C_20
REMARK    5  A    between atoms: C_20  and  C_21
REMARK    6  A    between atoms: C_20  and  C_22
REMARK    7  A    between atoms: C_22  and  N_23
REMARK                            x       y       z     vdW  Elec       q    Type
REMARK                         _______ _______ _______ _____ _____    ______ ____
ROOT
ATOM      1  C   UNL     1       1.426   9.324  17.545  0.00  0.00    +0.000 C 
ATOM      2  C   UNL     1       0.842   9.567  18.899  0.00  0.00    +0.000 A 
ATOM      3  C   UNL     1      -0.051  10.546  19.326  0.00  0.00    +0.000 A 
ATOM      4  C   UNL     1      -0.187  10.397  20.743  0.00  0.00    +0.000 A 
ATOM      5  C   UNL     1      -0.898  11.135  21.718  0.00  0.00    +0.000 A 
ATOM      6  C   UNL     1      -0.863  10.742  23.056  0.00  0.00    +0.000 A 
ATOM      7  C   UNL     1      -0.134   9.624  23.430  0.00  0.00    +0.000 A 
ATOM      8  C   UNL     1       0.589   8.881  22.486  0.00  0.00    +0.000 A 
ATOM      9  C   UNL     1       0.556   9.280  21.137  0.00  0.00    +0.000 A 
ATOM     10  N   UNL     1       1.162   8.770  19.996  0.00  0.00    +0.000 N 
ENDROOT
BRANCH   3  11
ATOM     11  C   UNL     1      -0.700  11.597  18.537  0.00  0.00    +0.000 C 
ATOM     12  O   UNL     1      -0.152  12.683  18.349  0.00  0.00    +0.000 OA
BRANCH  11  13
ATOM     13  C   UNL     1      -2.056  11.418  17.963  0.00  0.00    +0.000 A 
ATOM     14  C   UNL     1      -2.163  10.853  16.680  0.00  0.00    +0.000 A 
ATOM     15  C   UNL     1      -3.413  10.697  16.075  0.00  0.00    +0.000 A 
ATOM     16  C   UNL     1      -4.566  11.099  16.746  0.00  0.00    +0.000 A 
ATOM     17  C   UNL     1      -4.469  11.667  18.015  0.00  0.00    +0.000 A 
ATOM     18  C   UNL     1      -3.218  11.841  18.608  0.00  0.00    +0.000 A 
ATOM     19  F   UNL     1      -3.178  12.444  19.803  0.00  0.00    +0.000 F 
ENDBRANCH  11  13
ENDBRANCH   3  11
BRANCH  10  20
ATOM     20  C   UNL     1       2.091   7.633  19.947  0.00  0.00    +0.000 C 
ATOM     21  C   UNL     1       1.601   6.484  20.850  0.00  0.00    +0.000 C 
BRANCH  20  22
ATOM     22  C   UNL     1       2.422   7.072  18.539  0.00  0.00    +0.000 C 
BRANCH  22  23
ATOM     23  N   UNL     1       2.938   5.728  18.311  0.00  0.00    +0.000 NA
ATOM     24  C   UNL     1       2.008   4.732  17.770  0.00  0.00    +0.000 C 
ATOM     25  C   UNL     1       2.589   3.325  18.011  0.00  0.00    +0.000 C 
ATOM     26  O   UNL     1       3.897   3.183  17.429  0.00  0.00    +0.000 OA
ATOM     27  C   UNL     1       4.784   4.193  17.934  0.00  0.00    +0.000 C 
ATOM     28  C   UNL     1       4.240   5.606  17.648  0.00  0.00    +0.000 C 
ENDBRANCH  22  23
ENDBRANCH  20  22
ENDBRANCH  10  20
TORSDOF 5
ENDMDL
MODEL 5
REMARK VINA RESULT:      -7.7      1.678      2.288
REMARK  Name = 
REMARK  7 active torsions:
REMARK  status: ('A' for Active; 'I' for Inactive)
REMARK    1  A    between atoms: C_1  and  C_2
REMARK    2  A    between atoms: C_3  and  C_4
REMARK    3  A    between atoms: C_4  and  C_6
REMARK    4  A    between atoms: N_19  and  C_20
REMARK    5  A    between atoms: C_20  and  C_21
REMARK    6  A    between atoms: C_20  and  C_22
REMARK    7  A    between atoms: C_22  and  N_23
REMARK                            x       y       z     vdW  Elec       q    Type
REMARK                         _______ _______ _______ _____ _____    ______ ____
ROOT
ATOM      1  C   UNL     1       4.628   7.677  17.849  0.00  0.00    +0.000 C 
ATOM      2  C   UNL     1       4.037   6.509  18.570  0.00  0.00    +0.000 A 
ATOM      3  C   UNL     1       4.490   5.196  18.671  0.00  0.00    +0.000 A 
ATOM      4  C   UNL     1       3.486   4.461  19.378  0.00  0.00    +0.000 A 
ATOM      5  C   UNL     1       3.364   3.093  19.718  0.00  0.00    +0.000 A 
ATOM      6  C   UNL     1       2.259   2.649  20.444  0.00  0.00    +0.000 A 
ATOM      7  C   UNL     1       1.281   3.550  20.837  0.00  0.00    +0.000 A 
ATOM      8  C   UNL     1       1.371   4.910  20.504  0.00  0.00    +0.000 A 
ATOM      9  C   UNL     1       2.485   5.356  19.768  0.00  0.00    +0.000 A 
ATOM     10  N   UNL     1       2.846   6.607  19.286  0.00  0.00    +0.000 N 
ENDROOT
BRANCH   3  11
ATOM     11  C   UNL     1       5.712   4.607  18.117  0.00  0.00    +0.000 C 
ATOM     12  O   UNL     1       6.578   4.127  18.848  0.00  0.00    +0.000 OA
BRANCH  11  13
ATOM     13  C   UNL     1       5.979   4.594  16.657  0.00  0.00    +0.000 A 
ATOM     14  C   UNL     1       5.292   3.657  15.866  0.00  0.00    +0.000 A 
ATOM     15  C   UNL     1       5.533   3.575  14.492  0.00  0.00    +0.000 A 
ATOM     16  C   UNL     1       6.460   4.428  13.896  0.00  0.00    +0.000 A 
ATOM     17  C   UNL     1       7.153   5.354  14.674  0.00  0.00    +0.000 A 
ATOM     18  C   UNL     1       6.925   5.420  16.049  0.00  0.00    +0.000 A 
ATOM     19  F   UNL     1       7.658   6.288  16.758  0.00  0.00    +0.000 F 
ENDBRANCH  11  13
ENDBRANCH   3  11
BRANCH  10  20
ATOM     20  C   UNL     1       2.054   7.839  19.405  0.00  0.00    +0.000 C 
ATOM     21  C   UNL     1       1.287   8.126  18.099  0.00  0.00    +0.000 C 
BRANCH  20  22
ATOM     22  C   UNL     1       1.072   7.917  20.604  0.00  0.00    +0.000 C 
BRANCH  22  23
ATOM     23  N   UNL     1       0.520   9.167  21.111  0.00  0.00    +0.000 NA
ATOM     24  C   UNL     1       0.466   9.338  22.566  0.00  0.00    +0.000 C 
ATOM     25  C   UNL     1      -0.516  10.478  22.897  0.00  0.00    +0.000 C 
ATOM     26  O   UNL     1      -0.147  11.705  22.245  0.00  0.00    +0.000 OA
ATOM     27  C   UNL     1      -0.053  11.511  20.825  0.00  0.00    +0.000 C 
ATOM     28  C   UNL     1       0.969  10.410  20.479  0.00  0.00    +0.000 C 
ENDBRANCH  22  23
ENDBRANCH  20  22
ENDBRANCH  10  20
TORSDOF 5
ENDMDL
MODEL 6
REMARK VINA RESULT:      -7.6      2.208      2.885
REMARK  Name = 
REMARK  7 active torsions:
REMARK  status: ('A' for Active; 'I' for Inactive)
REMARK    1  A    between atoms: C_1  and  C_2
REMARK    2  A    between atoms: C_3  and  C_4
REMARK    3  A    between atoms: C_4  and  C_6
REMARK    4  A    between atoms: N_19  and  C_20
REMARK    5  A    between atoms: C_20  and  C_21
REMARK    6  A    between atoms: C_20  and  C_22
REMARK    7  A    between atoms: C_22  and  N_23
REMARK                            x       y       z     vdW  Elec       q    Type
REMARK                         _______ _______ _______ _____ _____    ______ ____
ROOT
ATOM      1  C   UNL     1       5.628   7.654  17.103  0.00  0.00    +0.000 C 
ATOM      2  C   UNL     1       4.835   6.407  17.330  0.00  0.00    +0.000 A 
ATOM      3  C   UNL     1       5.127   5.087  16.997  0.00  0.00    +0.000 A 
ATOM      4  C   UNL     1       3.976   4.307  17.335  0.00  0.00    +0.000 A 
ATOM      5  C   UNL     1       3.666   2.937  17.168  0.00  0.00    +0.000 A 
ATOM      6  C   UNL     1       2.445   2.436  17.619  0.00  0.00    +0.000 A 
ATOM      7  C   UNL     1       1.535   3.281  18.236  0.00  0.00    +0.000 A 
ATOM      8  C   UNL     1       1.812   4.645  18.405  0.00  0.00    +0.000 A 
ATOM      9  C   UNL     1       3.042   5.150  17.946  0.00  0.00    +0.000 A 
ATOM     10  N   UNL     1       3.590   6.426  17.956  0.00  0.00    +0.000 N 
ENDROOT
BRANCH   3  11
ATOM     11  C   UNL     1       6.330   4.552  16.353  0.00  0.00    +0.000 C 
ATOM     12  O   UNL     1       7.309   4.208  17.016  0.00  0.00    +0.000 OA
BRANCH  11  13
ATOM     13  C   UNL     1       6.439   4.435  14.878  0.00  0.00    +0.000 A 
ATOM     14  C   UNL     1       5.590   3.528  14.221  0.00  0.00    +0.000 A 
ATOM     15  C   UNL     1       5.677   3.348  12.838  0.00  0.00    +0.000 A 
ATOM     16  C   UNL     1       6.609   4.075  12.098  0.00  0.00    +0.000 A 
ATOM     17  C   UNL     1       7.461   4.971  12.744  0.00  0.00    +0.000 A 
ATOM     18  C   UNL     1       7.386   5.132  14.127  0.00  0.00    +0.000 A 
ATOM     19  F   UNL     1       8.265   5.962  14.702  0.00  0.00    +0.000 F 
ENDBRANCH  11  13
ENDBRANCH   3  11
BRANCH  10  20
ATOM     20  C   UNL     1       2.932   7.645  18.444  0.00  0.00    +0.000 C 
ATOM     21  C   UNL     1       2.156   8.342  17.309  0.00  0.00    +0.000 C 
BRANCH  20  22
ATOM     22  C   UNL     1       2.001   7.482  19.675  0.00  0.00    +0.000 C 
BRANCH  22  23
ATOM     23  N   UNL     1       1.563   8.597  20.505  0.00  0.00    +0.000 NA
ATOM     24  C   UNL     1       0.772   9.648  19.858  0.00  0.00    +0.000 C 
ATOM     25  C   UNL     1       0.787  10.904  20.751  0.00  0.00    +0.000 C 
ATOM     26  O   UNL     1       0.293  10.623  22.073  0.00  0.00    +0.000 OA
ATOM     27  C   UNL     1       1.049   9.560  22.676  0.00  0.00    +0.000 C 
ATOM     28  C   UNL     1       0.994   8.281  21.818  0.00  0.00    +0.000 C 
ENDBRANCH  22  23
ENDBRANCH  20  22
ENDBRANCH  10  20
TORSDOF 5
ENDMDL
MODEL 7
REMARK VINA RESULT:      -7.6      2.850      8.301
REMARK  Name = 
REMARK  7 active torsions:
REMARK  status: ('A' for Active; 'I' for Inactive)
REMARK    1  A    between atoms: C_1  and  C_2
REMARK    2  A    between atoms: C_3  and  C_4
REMARK    3  A    between atoms: C_4  and  C_6
REMARK    4  A    between atoms: N_19  and  C_20
REMARK    5  A    between atoms: C_20  and  C_21
REMARK    6  A    between atoms: C_20  and  C_22
REMARK    7  A    between atoms: C_22  and  N_23
REMARK                            x       y       z     vdW  Elec       q    Type
REMARK                         _______ _______ _______ _____ _____    ______ ____
ROOT
ATOM      1  C   UNL     1       1.427   9.092  17.742  0.00  0.00    +0.000 C 
ATOM      2  C   UNL     1       0.806   9.433  19.059  0.00  0.00    +0.000 A 
ATOM      3  C   UNL     1      -0.092  10.443  19.390  0.00  0.00    +0.000 A 
ATOM      4  C   UNL     1      -0.269  10.395  20.810  0.00  0.00    +0.000 A 
ATOM      5  C   UNL     1      -1.002  11.204  21.710  0.00  0.00    +0.000 A 
ATOM      6  C   UNL     1      -1.007  10.905  23.073  0.00  0.00    +0.000 A 
ATOM      7  C   UNL     1      -0.296   9.813  23.545  0.00  0.00    +0.000 A 
ATOM      8  C   UNL     1       0.449   9.002  22.677  0.00  0.00    +0.000 A 
ATOM      9  C   UNL     1       0.456   9.306  21.303  0.00  0.00    +0.000 A 
ATOM     10  N   UNL     1       1.090   8.714  20.218  0.00  0.00    +0.000 N 
ENDROOT
BRANCH   3  11
ATOM     11  C   UNL     1      -0.711  11.440  18.512  0.00  0.00    +0.000 C 
ATOM     12  O   UNL     1      -0.099  12.448  18.160  0.00  0.00    +0.000 OA
BRANCH  11  13
ATOM     13  C   UNL     1      -2.111  11.301  18.038  0.00  0.00    +0.000 A 
ATOM     14  C   UNL     1      -3.125  11.942  18.770  0.00  0.00    +0.000 A 
ATOM     15  C   UNL     1      -4.464  11.812  18.392  0.00  0.00    +0.000 A 
ATOM     16  C   UNL     1      -4.801  11.045  17.278  0.00  0.00    +0.000 A 
ATOM     17  C   UNL     1      -3.802  10.400  16.551  0.00  0.00    +0.000 A 
ATOM     18  C   UNL     1      -2.468  10.513  16.943  0.00  0.00    +0.000 A 
ATOM     19  F   UNL     1      -1.556   9.827  16.245  0.00  0.00    +0.000 F 
ENDBRANCH  11  13
ENDBRANCH   3  11
BRANCH  10  20
ATOM     20  C   UNL     1       2.012   7.572  20.275  0.00  0.00    +0.000 C 
ATOM     21  C   UNL     1       1.330   6.347  20.915  0.00  0.00    +0.000 C 
BRANCH  20  22
ATOM     22  C   UNL     1       2.671   7.148  18.935  0.00  0.00    +0.000 C 
BRANCH  22  23
ATOM     23  N   UNL     1       3.226   5.821  18.697  0.00  0.00    +0.000 NA
ATOM     24  C   UNL     1       2.670   5.050  17.582  0.00  0.00    +0.000 C 
ATOM     25  C   UNL     1       3.053   3.568  17.761  0.00  0.00    +0.000 C 
ATOM     26  O   UNL     1       4.478   3.394  17.852  0.00  0.00    +0.000 OA
ATOM     27  C   UNL     1       5.015   4.191  18.920  0.00  0.00    +0.000 C 
ATOM     28  C   UNL     1       4.685   5.684  18.720  0.00  0.00    +0.000 C 
ENDBRANCH  22  23
ENDBRANCH  20  22
ENDBRANCH  10  20
TORSDOF 5
ENDMDL
MODEL 8
REMARK VINA RESULT:      -7.5      1.517      1.887
REMARK  Name = 
REMARK  7 active torsions:
REMARK  status: ('A' for Active; 'I' for Inactive)
REMARK    1  A    between atoms: C_1  and  C_2
REMARK    2  A    between atoms: C_3  and  C_4
REMARK    3  A    between atoms: C_4  and  C_6
REMARK    4  A    between atoms: N_19  and  C_20
REMARK    5  A    between atoms: C_20  and  C_21
REMARK    6  A    between atoms: C_20  and  C_22
REMARK    7  A    between atoms: C_22  and  N_23
REMARK                            x       y       z     vdW  Elec       q    Type
REMARK                         _______ _______ _______ _____ _____    ______ ____
ROOT
ATOM      1  C   UNL     1       4.644   7.645  17.447  0.00  0.00    +0.000 C 
ATOM      2  C   UNL     1       4.077   6.562  18.306  0.00  0.00    +0.000 A 
ATOM      3  C   UNL     1       4.533   5.265  18.528  0.00  0.00    +0.000 A 
ATOM      4  C   UNL     1       3.553   4.612  19.342  0.00  0.00    +0.000 A 
ATOM      5  C   UNL     1       3.441   3.287  19.827  0.00  0.00    +0.000 A 
ATOM      6  C   UNL     1       2.361   2.927  20.632  0.00  0.00    +0.000 A 
ATOM      7  C   UNL     1       1.398   3.868  20.962  0.00  0.00    +0.000 A 
ATOM      8  C   UNL     1       1.478   5.185  20.486  0.00  0.00    +0.000 A 
ATOM      9  C   UNL     1       2.566   5.546  19.670  0.00  0.00    +0.000 A 
ATOM     10  N   UNL     1       2.912   6.739  19.048  0.00  0.00    +0.000 N 
ENDROOT
BRANCH   3  11
ATOM     11  C   UNL     1       5.734   4.615  17.997  0.00  0.00    +0.000 C 
ATOM     12  O   UNL     1       6.569   4.108  18.746  0.00  0.00    +0.000 OA
BRANCH  11  13
ATOM     13  C   UNL     1       6.019   4.571  16.541  0.00  0.00    +0.000 A 
ATOM     14  C   UNL     1       5.338   3.620  15.762  0.00  0.00    +0.000 A 
ATOM     15  C   UNL     1       5.595   3.508  14.393  0.00  0.00    +0.000 A 
ATOM     16  C   UNL     1       6.532   4.346  13.790  0.00  0.00    +0.000 A 
ATOM     17  C   UNL     1       7.217   5.286  14.557  0.00  0.00    +0.000 A 
ATOM     18  C   UNL     1       6.974   5.382  15.927  0.00  0.00    +0.000 A 
ATOM     19  F   UNL     1       7.701   6.262  16.626  0.00  0.00    +0.000 F 
ENDBRANCH  11  13
ENDBRANCH   3  11
BRANCH  10  20
ATOM     20  C   UNL     1       2.126   7.981  19.064  0.00  0.00    +0.000 C 
ATOM     21  C   UNL     1       1.079   7.982  17.932  0.00  0.00    +0.000 C 
BRANCH  20  22
ATOM     22  C   UNL     1       1.431   8.341  20.404  0.00  0.00    +0.000 C 
BRANCH  22  23
ATOM     23  N   UNL     1       0.931   9.674  20.716  0.00  0.00    +0.000 NA
ATOM     24  C   UNL     1       1.183  10.734  19.737  0.00  0.00    +0.000 C 
ATOM     25  C   UNL     1       0.983  12.102  20.420  0.00  0.00    +0.000 C 
ATOM     26  O   UNL     1      -0.332  12.224  20.989  0.00  0.00    +0.000 OA
ATOM     27  C   UNL     1      -0.582  11.153  21.913  0.00  0.00    +0.000 C 
ATOM     28  C   UNL     1      -0.439   9.781  21.225  0.00  0.00    +0.000 C 
ENDBRANCH  22  23
ENDBRANCH  20  22
ENDBRANCH  10  20
TORSDOF 5
ENDMDL
MODEL 9
REMARK VINA RESULT:      -7.5      7.053     10.938
REMARK  Name = 
REMARK  7 active torsions:
REMARK  status: ('A' for Active; 'I' for Inactive)
REMARK    1  A    between atoms: C_1  and  C_2
REMARK    2  A    between atoms: C_3  and  C_4
REMARK    3  A    between atoms: C_4  and  C_6
REMARK    4  A    between atoms: N_19  and  C_20
REMARK    5  A    between atoms: C_20  and  C_21
REMARK    6  A    between atoms: C_20  and  C_22
REMARK    7  A    between atoms: C_22  and  N_23
REMARK                            x       y       z     vdW  Elec       q    Type
REMARK                         _______ _______ _______ _____ _____    ______ ____
ROOT
ATOM      1  C   UNL     1      -1.591  12.791  22.359  0.00  0.00    +0.000 C 
ATOM      2  C   UNL     1      -2.105  12.389  21.014  0.00  0.00    +0.000 A 
ATOM      3  C   UNL     1      -3.305  12.707  20.383  0.00  0.00    +0.000 A 
ATOM      4  C   UNL     1      -3.342  11.964  19.160  0.00  0.00    +0.000 A 
ATOM      5  C   UNL     1      -4.325  11.833  18.150  0.00  0.00    +0.000 A 
ATOM      6  C   UNL     1      -4.078  11.035  17.033  0.00  0.00    +0.000 A 
ATOM      7  C   UNL     1      -2.866  10.373  16.910  0.00  0.00    +0.000 A 
ATOM      8  C   UNL     1      -1.879  10.476  17.901  0.00  0.00    +0.000 A 
ATOM      9  C   UNL     1      -2.131  11.278  19.029  0.00  0.00    +0.000 A 
ATOM     10  N   UNL     1      -1.376  11.565  20.159  0.00  0.00    +0.000 N 
ENDROOT
BRANCH   3  11
ATOM     11  C   UNL     1      -4.389  13.568  20.863  0.00  0.00    +0.000 C 
ATOM     12  O   UNL     1      -4.425  14.766  20.583  0.00  0.00    +0.000 OA
BRANCH  11  13
ATOM     13  C   UNL     1      -5.471  13.047  21.735  0.00  0.00    +0.000 A 
ATOM     14  C   UNL     1      -6.562  12.403  21.125  0.00  0.00    +0.000 A 
ATOM     15  C   UNL     1      -7.627  11.928  21.895  0.00  0.00    +0.000 A 
ATOM     16  C   UNL     1      -7.611  12.088  23.280  0.00  0.00    +0.000 A 
ATOM     17  C   UNL     1      -6.536  12.732  23.892  0.00  0.00    +0.000 A 
ATOM     18  C   UNL     1      -5.484  13.224  23.119  0.00  0.00    +0.000 A 
ATOM     19  F   UNL     1      -4.507  13.884  23.752  0.00  0.00    +0.000 F 
ENDBRANCH  11  13
ENDBRANCH   3  11
BRANCH  10  20
ATOM     20  C   UNL     1      -0.055  11.007  20.479  0.00  0.00    +0.000 C 
ATOM     21  C   UNL     1      -0.152   9.497  20.771  0.00  0.00    +0.000 C 
BRANCH  20  22
ATOM     22  C   UNL     1       1.070  11.256  19.440  0.00  0.00    +0.000 C 
BRANCH  22  23
ATOM     23  N   UNL     1       1.904  12.452  19.429  0.00  0.00    +0.000 NA
ATOM     24  C   UNL     1       1.793  13.339  18.267  0.00  0.00    +0.000 C 
ATOM     25  C   UNL     1       3.023  14.267  18.231  0.00  0.00    +0.000 C 
ATOM     26  O   UNL     1       3.156  15.022  19.448  0.00  0.00    +0.000 OA
ATOM     27  C   UNL     1       3.217  14.141  20.581  0.00  0.00    +0.000 C 
ATOM     28  C   UNL     1       1.965  13.246  20.659  0.00  0.00    +0.000 C 
ENDBRANCH  22  23
ENDBRANCH  20  22
ENDBRANCH  10  20
TORSDOF 5
ENDMDL
