MODEL 1
REMARK VINA RESULT:      -9.2      0.000      0.000
REMARK  Name = 
REMARK  8 active torsions:
REMARK  status: ('A' for Active; 'I' for Inactive)
REMARK    1  A    between atoms: O_1  and  C_2
REMARK    2  A    between atoms: C_2  and  C_3
REMARK    3  A    between atoms: C_2  and  C_21
REMARK    4  A    between atoms: C_2  and  C_27
REMARK    5  A    between atoms: C_3  and  N_4
REMARK    6  A    between atoms: C_7  and  C_8
REMARK    7  A    between atoms: C_11  and  C_12
REMARK    8  A    between atoms: C_21  and  N_22
REMARK                            x       y       z     vdW  Elec       q    Type
REMARK                         _______ _______ _______ _____ _____    ______ ____
ROOT
ATOM      1  C   UNL     1       3.731   5.235  17.345  0.00  0.00    +0.000 C 
ENDROOT
BRANCH   1   2
ATOM      2  N   UNL     1       5.076   4.720  17.816  0.00  0.00    +0.000 NA
ATOM      3  C   UNL     1       6.044   4.948  16.713  0.00  0.00    +0.000 C 
ATOM      4  C   UNL     1       7.521   4.772  17.093  0.00  0.00    +0.000 C 
ATOM      5  C   UNL     1       7.927   5.596  18.317  0.00  0.00    +0.000 C 
ATOM      6  C   UNL     1       6.976   5.234  19.450  0.00  0.00    +0.000 C 
ATOM      7  C   UNL     1       5.509   5.399  19.048  0.00  0.00    +0.000 C 
BRANCH   5   8
ATOM      8  C   UNL     1       7.937   7.071  18.051  0.00  0.00    +0.000 A 
ATOM      9  N   UNL     1       7.219   7.764  17.193  0.00  0.00    +0.000 NA
ATOM     10  N   UNL     1       7.562   9.084  17.368  0.00  0.00    +0.000 NA
ATOM     11  C   UNL     1       8.469   9.119  18.316  0.00  0.00    +0.000 A 
ATOM     12  O   UNL     1       8.767   7.867  18.811  0.00  0.00    +0.000 OA
BRANCH  11  13
ATOM     13  C   UNL     1       9.158  10.272  18.874  0.00  0.00    +0.000 A 
ATOM     14  C   UNL     1       9.270  10.536  20.237  0.00  0.00    +0.000 A 
ATOM     15  C   UNL     1       9.968  11.668  20.674  0.00  0.00    +0.000 A 
ATOM     16  C   UNL     1      10.530  12.508  19.725  0.00  0.00    +0.000 A 
ATOM     17  N   UNL     1      10.436  12.296  18.399  0.00  0.00    +0.000 NA
ATOM     18  C   UNL     1       9.758  11.191  18.005  0.00  0.00    +0.000 A 
ENDBRANCH  11  13
ENDBRANCH   5   8
ENDBRANCH   1   2
BRANCH   1  19
ATOM     19  C   UNL     1       2.598   5.632  18.389  0.00  0.00    +0.000 C 
BRANCH  19  20
ATOM     20  C   UNL     1       2.306   4.543  19.433  0.00  0.00    +0.000 A 
ATOM     21  C   UNL     1       2.630   4.719  20.792  0.00  0.00    +0.000 A 
ATOM     22  C   UNL     1       2.115   3.857  21.764  0.00  0.00    +0.000 A 
ATOM     23  C   UNL     1       1.293   2.803  21.384  0.00  0.00    +0.000 A 
ATOM     24  F   UNL     1       0.714   2.046  22.324  0.00  0.00    +0.000 F 
ATOM     25  C   UNL     1       1.047   2.541  20.046  0.00  0.00    +0.000 A 
ATOM     26  C   UNL     1       1.581   3.391  19.083  0.00  0.00    +0.000 A 
ATOM     27  F   UNL     1       1.301   3.145  17.796  0.00  0.00    +0.000 F 
ENDBRANCH  19  20
BRANCH  19  28
ATOM     28  O   UNL     1       1.376   5.902  17.663  0.00  0.00    +0.000 OA
ATOM     29  H   UNL     1       1.579   5.791  16.715  0.00  0.00    +0.000 HD
ENDBRANCH  19  28
BRANCH  19  30
ATOM     30  C   UNL     1       2.966   6.928  19.157  0.00  0.00    +0.000 C 
BRANCH  30  31
ATOM     31  N   UNL     1       2.135   8.067  18.830  0.00  0.00    +0.000 N 
ATOM     32  C   UNL     1       1.282   8.731  19.654  0.00  0.00    +0.000 A 
ATOM     33  N   UNL     1       0.740   9.740  18.999  0.00  0.00    +0.000 NA
ATOM     34  C   UNL     1       1.314   9.648  17.768  0.00  0.00    +0.000 A 
ATOM     35  N   UNL     1       2.179   8.639  17.614  0.00  0.00    +0.000 NA
ENDBRANCH  30  31
ENDBRANCH  19  30
ENDBRANCH   1  19
TORSDOF 8
ENDMDL
MODEL 2
REMARK VINA RESULT:      -9.0      2.389      4.183
REMARK  Name = 
REMARK  8 active torsions:
REMARK  status: ('A' for Active; 'I' for Inactive)
REMARK    1  A    between atoms: O_1  and  C_2
REMARK    2  A    between atoms: C_2  and  C_3
REMARK    3  A    between atoms: C_2  and  C_21
REMARK    4  A    between atoms: C_2  and  C_27
REMARK    5  A    between atoms: C_3  and  N_4
REMARK    6  A    between atoms: C_7  and  C_8
REMARK    7  A    between atoms: C_11  and  C_12
REMARK    8  A    between atoms: C_21  and  N_22
REMARK                            x       y       z     vdW  Elec       q    Type
REMARK                         _______ _______ _______ _____ _____    ______ ____
ROOT
ATOM      1  C   UNL     1       3.583   5.625  17.872  0.00  0.00    +0.000 C 
ENDROOT
BRANCH   1   2
ATOM      2  N   UNL     1       4.951   5.034  18.147  0.00  0.00    +0.000 NA
ATOM      3  C   UNL     1       5.770   5.237  16.924  0.00  0.00    +0.000 C 
ATOM      4  C   UNL     1       7.274   4.981  17.095  0.00  0.00    +0.000 C 
ATOM      5  C   UNL     1       7.885   5.758  18.263  0.00  0.00    +0.000 C 
ATOM      6  C   UNL     1       7.080   5.419  19.511  0.00  0.00    +0.000 C 
ATOM      7  C   UNL     1       5.583   5.665  19.316  0.00  0.00    +0.000 C 
BRANCH   5   8
ATOM      8  C   UNL     1       7.935   7.237  18.018  0.00  0.00    +0.000 A 
ATOM      9  N   UNL     1       7.231   7.962  17.176  0.00  0.00    +0.000 NA
ATOM     10  N   UNL     1       7.612   9.269  17.368  0.00  0.00    +0.000 NA
ATOM     11  C   UNL     1       8.527   9.265  18.309  0.00  0.00    +0.000 A 
ATOM     12  O   UNL     1       8.793   7.997  18.784  0.00  0.00    +0.000 OA
BRANCH  11  13
ATOM     13  C   UNL     1       9.252  10.389  18.879  0.00  0.00    +0.000 A 
ATOM     14  C   UNL     1       9.992  11.304  18.134  0.00  0.00    +0.000 A 
ATOM     15  C   UNL     1      10.644  12.364  18.777  0.00  0.00    +0.000 A 
ATOM     16  C   UNL     1      10.535  12.470  20.155  0.00  0.00    +0.000 A 
ATOM     17  N   UNL     1       9.838  11.603  20.913  0.00  0.00    +0.000 NA
ATOM     18  C   UNL     1       9.216  10.590  20.263  0.00  0.00    +0.000 A 
ENDBRANCH  11  13
ENDBRANCH   5   8
ENDBRANCH   1   2
BRANCH   1  19
ATOM     19  C   UNL     1       2.623   6.050  19.067  0.00  0.00    +0.000 C 
BRANCH  19  20
ATOM     20  C   UNL     1       2.237   7.538  19.054  0.00  0.00    +0.000 A 
ATOM     21  C   UNL     1       2.418   8.337  17.909  0.00  0.00    +0.000 A 
ATOM     22  C   UNL     1       1.817   9.594  17.815  0.00  0.00    +0.000 A 
ATOM     23  C   UNL     1       1.048  10.070  18.871  0.00  0.00    +0.000 A 
ATOM     24  F   UNL     1       0.384  11.225  18.735  0.00  0.00    +0.000 F 
ATOM     25  C   UNL     1       0.942   9.353  20.053  0.00  0.00    +0.000 A 
ATOM     26  C   UNL     1       1.564   8.112  20.146  0.00  0.00    +0.000 A 
ATOM     27  F   UNL     1       1.419   7.417  21.281  0.00  0.00    +0.000 F 
ENDBRANCH  19  20
BRANCH  19  28
ATOM     28  O   UNL     1       3.289   5.767  20.319  0.00  0.00    +0.000 OA
ATOM     29  H   UNL     1       2.602   5.767  21.012  0.00  0.00    +0.000 HD
ENDBRANCH  19  28
BRANCH  19  30
ATOM     30  C   UNL     1       1.308   5.227  19.055  0.00  0.00    +0.000 C 
BRANCH  30  31
ATOM     31  N   UNL     1       1.404   3.949  19.728  0.00  0.00    +0.000 N 
ATOM     32  C   UNL     1       1.599   2.730  19.160  0.00  0.00    +0.000 A 
ATOM     33  N   UNL     1       1.674   1.814  20.108  0.00  0.00    +0.000 NA
ATOM     34  C   UNL     1       1.525   2.544  21.248  0.00  0.00    +0.000 A 
ATOM     35  N   UNL     1       1.359   3.859  21.069  0.00  0.00    +0.000 NA
ENDBRANCH  30  31
ENDBRANCH  19  30
ENDBRANCH   1  19
TORSDOF 8
ENDMDL
MODEL 3
REMARK VINA RESULT:      -8.8      3.465      6.455
REMARK  Name = 
REMARK  8 active torsions:
REMARK  status: ('A' for Active; 'I' for Inactive)
REMARK    1  A    between atoms: O_1  and  C_2
REMARK    2  A    between atoms: C_2  and  C_3
REMARK    3  A    between atoms: C_2  and  C_21
REMARK    4  A    between atoms: C_2  and  C_27
REMARK    5  A    between atoms: C_3  and  N_4
REMARK    6  A    between atoms: C_7  and  C_8
REMARK    7  A    between atoms: C_11  and  C_12
REMARK    8  A    between atoms: C_21  and  N_22
REMARK                            x       y       z     vdW  Elec       q    Type
REMARK                         _______ _______ _______ _____ _____    ______ ____
ROOT
ATOM      1  C   UNL     1       2.934   7.601  19.656  0.00  0.00    +0.000 C 
ENDROOT
BRANCH   1   2
ATOM      2  N   UNL     1       1.496   8.053  19.510  0.00  0.00    +0.000 NA
ATOM      3  C   UNL     1       1.067   8.584  20.830  0.00  0.00    +0.000 C 
ATOM      4  C   UNL     1      -0.254   9.365  20.822  0.00  0.00    +0.000 C 
ATOM      5  C   UNL     1      -0.282  10.485  19.778  0.00  0.00    +0.000 C 
ATOM      6  C   UNL     1       0.047   9.862  18.427  0.00  0.00    +0.000 C 
ATOM      7  C   UNL     1       1.358   9.074  18.459  0.00  0.00    +0.000 C 
BRANCH   5   8
ATOM      8  C   UNL     1       0.646  11.615  20.109  0.00  0.00    +0.000 A 
ATOM      9  N   UNL     1       1.282  11.863  21.234  0.00  0.00    +0.000 NA
ATOM     10  N   UNL     1       2.045  12.986  21.015  0.00  0.00    +0.000 NA
ATOM     11  C   UNL     1       1.827  13.359  19.775  0.00  0.00    +0.000 A 
ATOM     12  O   UNL     1       0.940  12.530  19.121  0.00  0.00    +0.000 OA
BRANCH  11  13
ATOM     13  C   UNL     1       2.389  14.489  19.053  0.00  0.00    +0.000 A 
ATOM     14  C   UNL     1       1.792  15.746  18.974  0.00  0.00    +0.000 A 
ATOM     15  C   UNL     1       2.422  16.775  18.265  0.00  0.00    +0.000 A 
ATOM     16  C   UNL     1       3.635  16.509  17.648  0.00  0.00    +0.000 A 
ATOM     17  N   UNL     1       4.241  15.307  17.691  0.00  0.00    +0.000 NA
ATOM     18  C   UNL     1       3.610  14.331  18.388  0.00  0.00    +0.000 A 
ENDBRANCH  11  13
ENDBRANCH   5   8
ENDBRANCH   1   2
BRANCH   1  19
ATOM     19  C   UNL     1       3.444   6.264  18.961  0.00  0.00    +0.000 C 
BRANCH  19  20
ATOM     20  C   UNL     1       2.391   5.146  18.916  0.00  0.00    +0.000 A 
ATOM     21  C   UNL     1       2.017   4.533  17.704  0.00  0.00    +0.000 A 
ATOM     22  C   UNL     1       1.279   3.348  17.704  0.00  0.00    +0.000 A 
ATOM     23  C   UNL     1       0.892   2.778  18.911  0.00  0.00    +0.000 A 
ATOM     24  F   UNL     1       0.281   1.586  18.912  0.00  0.00    +0.000 F 
ATOM     25  C   UNL     1       1.151   3.415  20.114  0.00  0.00    +0.000 A 
ATOM     26  C   UNL     1       1.867   4.608  20.104  0.00  0.00    +0.000 A 
ATOM     27  F   UNL     1       2.142   5.191  21.278  0.00  0.00    +0.000 F 
ENDBRANCH  19  20
BRANCH  19  28
ATOM     28  O   UNL     1       4.593   5.773  19.690  0.00  0.00    +0.000 OA
ATOM     29  H   UNL     1       5.309   5.646  19.038  0.00  0.00    +0.000 HD
ENDBRANCH  19  28
BRANCH  19  30
ATOM     30  C   UNL     1       3.908   6.526  17.504  0.00  0.00    +0.000 C 
BRANCH  30  31
ATOM     31  N   UNL     1       5.287   6.169  17.248  0.00  0.00    +0.000 N 
ATOM     32  C   UNL     1       6.334   7.013  17.045  0.00  0.00    +0.000 A 
ATOM     33  N   UNL     1       7.439   6.307  16.891  0.00  0.00    +0.000 NA
ATOM     34  C   UNL     1       7.001   5.024  17.020  0.00  0.00    +0.000 A 
ATOM     35  N   UNL     1       5.689   4.887  17.243  0.00  0.00    +0.000 NA
ENDBRANCH  30  31
ENDBRANCH  19  30
ENDBRANCH   1  19
TORSDOF 8
ENDMDL
MODEL 4
REMARK VINA RESULT:      -8.8      3.965      6.930
REMARK  Name = 
REMARK  8 active torsions:
REMARK  status: ('A' for Active; 'I' for Inactive)
REMARK    1  A    between atoms: O_1  and  C_2
REMARK    2  A    between atoms: C_2  and  C_3
REMARK    3  A    between atoms: C_2  and  C_21
REMARK    4  A    between atoms: C_2  and  C_27
REMARK    5  A    between atoms: C_3  and  N_4
REMARK    6  A    between atoms: C_7  and  C_8
REMARK    7  A    between atoms: C_11  and  C_12
REMARK    8  A    between atoms: C_21  and  N_22
REMARK                            x       y       z     vdW  Elec       q    Type
REMARK                         _______ _______ _______ _____ _____    ______ ____
ROOT
ATOM      1  C   UNL     1       2.751   7.736  18.579  0.00  0.00    +0.000 C 
ENDROOT
BRANCH   1   2
ATOM      2  N   UNL     1       1.332   8.190  18.855  0.00  0.00    +0.000 NA
ATOM      3  C   UNL     1       1.250   8.514  20.303  0.00  0.00    +0.000 C 
ATOM      4  C   UNL     1      -0.013   9.274  20.731  0.00  0.00    +0.000 C 
ATOM      5  C   UNL     1      -0.264  10.536  19.902  0.00  0.00    +0.000 C 
ATOM      6  C   UNL     1      -0.288  10.124  18.435  0.00  0.00    +0.000 C 
ATOM      7  C   UNL     1       0.971   9.355  18.031  0.00  0.00    +0.000 C 
BRANCH   5   8
ATOM      8  C   UNL     1       0.746  11.614  20.159  0.00  0.00    +0.000 A 
ATOM      9  N   UNL     1       1.482  11.821  21.230  0.00  0.00    +0.000 NA
ATOM     10  N   UNL     1       2.283  12.904  20.953  0.00  0.00    +0.000 NA
ATOM     11  C   UNL     1       1.987  13.295  19.735  0.00  0.00    +0.000 A 
ATOM     12  O   UNL     1       1.008  12.518  19.152  0.00  0.00    +0.000 OA
BRANCH  11  13
ATOM     13  C   UNL     1       2.548  14.399  18.973  0.00  0.00    +0.000 A 
ATOM     14  C   UNL     1       3.778  14.357  18.320  0.00  0.00    +0.000 A 
ATOM     15  C   UNL     1       4.224  15.471  17.598  0.00  0.00    +0.000 A 
ATOM     16  C   UNL     1       3.420  16.599  17.557  0.00  0.00    +0.000 A 
ATOM     17  N   UNL     1       2.230  16.685  18.181  0.00  0.00    +0.000 NA
ATOM     18  C   UNL     1       1.823  15.591  18.869  0.00  0.00    +0.000 A 
ENDBRANCH  11  13
ENDBRANCH   5   8
ENDBRANCH   1   2
BRANCH   1  19
ATOM     19  C   UNL     1       3.099   6.191  18.423  0.00  0.00    +0.000 C 
BRANCH  19  20
ATOM     20  C   UNL     1       4.212   5.905  17.403  0.00  0.00    +0.000 A 
ATOM     21  C   UNL     1       5.247   6.829  17.162  0.00  0.00    +0.000 A 
ATOM     22  C   UNL     1       6.389   6.450  16.453  0.00  0.00    +0.000 A 
ATOM     23  C   UNL     1       6.496   5.154  15.962  0.00  0.00    +0.000 A 
ATOM     24  F   UNL     1       7.636   4.761  15.380  0.00  0.00    +0.000 F 
ATOM     25  C   UNL     1       5.448   4.256  16.090  0.00  0.00    +0.000 A 
ATOM     26  C   UNL     1       4.304   4.650  16.778  0.00  0.00    +0.000 A 
ATOM     27  F   UNL     1       3.316   3.757  16.924  0.00  0.00    +0.000 F 
ENDBRANCH  19  20
BRANCH  19  28
ATOM     28  O   UNL     1       1.907   5.490  18.000  0.00  0.00    +0.000 OA
ATOM     29  H   UNL     1       1.359   6.132  17.508  0.00  0.00    +0.000 HD
ENDBRANCH  19  28
BRANCH  19  30
ATOM     30  C   UNL     1       3.535   5.572  19.776  0.00  0.00    +0.000 C 
BRANCH  30  31
ATOM     31  N   UNL     1       2.747   4.429  20.185  0.00  0.00    +0.000 N 
ATOM     32  C   UNL     1       3.132   3.125  20.208  0.00  0.00    +0.000 A 
ATOM     33  N   UNL     1       2.148   2.387  20.686  0.00  0.00    +0.000 NA
ATOM     34  C   UNL     1       1.178   3.307  20.949  0.00  0.00    +0.000 A 
ATOM     35  N   UNL     1       1.498   4.574  20.662  0.00  0.00    +0.000 NA
ENDBRANCH  30  31
ENDBRANCH  19  30
ENDBRANCH   1  19
TORSDOF 8
ENDMDL
MODEL 5
REMARK VINA RESULT:      -8.7      2.327      4.093
REMARK  Name = 
REMARK  8 active torsions:
REMARK  status: ('A' for Active; 'I' for Inactive)
REMARK    1  A    between atoms: O_1  and  C_2
REMARK    2  A    between atoms: C_2  and  C_3
REMARK    3  A    between atoms: C_2  and  C_21
REMARK    4  A    between atoms: C_2  and  C_27
REMARK    5  A    between atoms: C_3  and  N_4
REMARK    6  A    between atoms: C_7  and  C_8
REMARK    7  A    between atoms: C_11  and  C_12
REMARK    8  A    between atoms: C_21  and  N_22
REMARK                            x       y       z     vdW  Elec       q    Type
REMARK                         _______ _______ _______ _____ _____    ______ ____
ROOT
ATOM      1  C   UNL     1       3.492   5.512  17.956  0.00  0.00    +0.000 C 
ENDROOT
BRANCH   1   2
ATOM      2  N   UNL     1       4.866   4.936  18.227  0.00  0.00    +0.000 NA
ATOM      3  C   UNL     1       5.659   5.089  16.980  0.00  0.00    +0.000 C 
ATOM      4  C   UNL     1       7.167   4.842  17.130  0.00  0.00    +0.000 C 
ATOM      5  C   UNL     1       7.800   5.670  18.251  0.00  0.00    +0.000 C 
ATOM      6  C   UNL     1       7.022   5.383  19.529  0.00  0.00    +0.000 C 
ATOM      7  C   UNL     1       5.521   5.618  19.356  0.00  0.00    +0.000 C 
BRANCH   5   8
ATOM      8  C   UNL     1       7.841   7.137  17.943  0.00  0.00    +0.000 A 
ATOM      9  N   UNL     1       7.208   7.804  17.003  0.00  0.00    +0.000 NA
ATOM     10  N   UNL     1       7.539   9.128  17.169  0.00  0.00    +0.000 NA
ATOM     11  C   UNL     1       8.355   9.191  18.196  0.00  0.00    +0.000 A 
ATOM     12  O   UNL     1       8.601   7.954  18.753  0.00  0.00    +0.000 OA
BRANCH  11  13
ATOM     13  C   UNL     1       8.994  10.359  18.780  0.00  0.00    +0.000 A 
ATOM     14  C   UNL     1       9.449  10.430  20.095  0.00  0.00    +0.000 A 
ATOM     15  C   UNL     1      10.065  11.598  20.559  0.00  0.00    +0.000 A 
ATOM     16  C   UNL     1      10.202  12.667  19.687  0.00  0.00    +0.000 A 
ATOM     17  N   UNL     1       9.767  12.644  18.412  0.00  0.00    +0.000 NA
ATOM     18  C   UNL     1       9.178  11.499  17.990  0.00  0.00    +0.000 A 
ENDBRANCH  11  13
ENDBRANCH   5   8
ENDBRANCH   1   2
BRANCH   1  19
ATOM     19  C   UNL     1       2.566   6.011  19.150  0.00  0.00    +0.000 C 
BRANCH  19  20
ATOM     20  C   UNL     1       2.238   7.512  19.097  0.00  0.00    +0.000 A 
ATOM     21  C   UNL     1       2.480   8.279  17.941  0.00  0.00    +0.000 A 
ATOM     22  C   UNL     1       1.930   9.556  17.806  0.00  0.00    +0.000 A 
ATOM     23  C   UNL     1       1.154  10.083  18.831  0.00  0.00    +0.000 A 
ATOM     24  F   UNL     1       0.539  11.259  18.654  0.00  0.00    +0.000 F 
ATOM     25  C   UNL     1       0.990   9.397  20.023  0.00  0.00    +0.000 A 
ATOM     26  C   UNL     1       1.560   8.135  20.158  0.00  0.00    +0.000 A 
ATOM     27  F   UNL     1       1.359   7.469  21.303  0.00  0.00    +0.000 F 
ENDBRANCH  19  20
BRANCH  19  28
ATOM     28  O   UNL     1       3.238   5.740  20.401  0.00  0.00    +0.000 OA
ATOM     29  H   UNL     1       2.674   6.103  21.111  0.00  0.00    +0.000 HD
ENDBRANCH  19  28
BRANCH  19  30
ATOM     30  C   UNL     1       1.219   5.241  19.181  0.00  0.00    +0.000 C 
BRANCH  30  31
ATOM     31  N   UNL     1       1.362   3.801  19.227  0.00  0.00    +0.000 N 
ATOM     32  C   UNL     1       1.491   3.019  20.332  0.00  0.00    +0.000 A 
ATOM     33  N   UNL     1       1.552   1.753  19.965  0.00  0.00    +0.000 NA
ATOM     34  C   UNL     1       1.444   1.823  18.610  0.00  0.00    +0.000 A 
ATOM     35  N   UNL     1       1.323   3.057  18.108  0.00  0.00    +0.000 NA
ENDBRANCH  30  31
ENDBRANCH  19  30
ENDBRANCH   1  19
TORSDOF 8
ENDMDL
MODEL 6
REMARK VINA RESULT:      -8.7      3.768      7.026
REMARK  Name = 
REMARK  8 active torsions:
REMARK  status: ('A' for Active; 'I' for Inactive)
REMARK    1  A    between atoms: O_1  and  C_2
REMARK    2  A    between atoms: C_2  and  C_3
REMARK    3  A    between atoms: C_2  and  C_21
REMARK    4  A    between atoms: C_2  and  C_27
REMARK    5  A    between atoms: C_3  and  N_4
REMARK    6  A    between atoms: C_7  and  C_8
REMARK    7  A    between atoms: C_11  and  C_12
REMARK    8  A    between atoms: C_21  and  N_22
REMARK                            x       y       z     vdW  Elec       q    Type
REMARK                         _______ _______ _______ _____ _____    ______ ____
ROOT
ATOM      1  C   UNL     1       3.875   6.791  18.063  0.00  0.00    +0.000 C 
ENDROOT
BRANCH   1   2
ATOM      2  N   UNL     1       5.146   6.036  18.396  0.00  0.00    +0.000 NA
ATOM      3  C   UNL     1       4.998   4.665  17.843  0.00  0.00    +0.000 C 
ATOM      4  C   UNL     1       6.288   3.833  17.808  0.00  0.00    +0.000 C 
ATOM      5  C   UNL     1       7.446   4.551  17.112  0.00  0.00    +0.000 C 
ATOM      6  C   UNL     1       7.629   5.899  17.798  0.00  0.00    +0.000 C 
ATOM      7  C   UNL     1       6.331   6.707  17.837  0.00  0.00    +0.000 C 
BRANCH   5   8
ATOM      8  C   UNL     1       7.237   4.703  15.636  0.00  0.00    +0.000 A 
ATOM      9  N   UNL     1       7.736   5.603  14.816  0.00  0.00    +0.000 NA
ATOM     10  N   UNL     1       7.284   5.283  13.557  0.00  0.00    +0.000 NA
ATOM     11  C   UNL     1       6.535   4.212  13.683  0.00  0.00    +0.000 A 
ATOM     12  O   UNL     1       6.453   3.772  14.987  0.00  0.00    +0.000 OA
BRANCH  11  13
ATOM     13  C   UNL     1       5.821   3.476  12.652  0.00  0.00    +0.000 A 
ATOM     14  C   UNL     1       4.580   3.847  12.139  0.00  0.00    +0.000 A 
ATOM     15  C   UNL     1       3.981   3.077  11.135  0.00  0.00    +0.000 A 
ATOM     16  C   UNL     1       4.646   1.950  10.678  0.00  0.00    +0.000 A 
ATOM     17  N   UNL     1       5.841   1.550  11.153  0.00  0.00    +0.000 NA
ATOM     18  C   UNL     1       6.398   2.317  12.122  0.00  0.00    +0.000 A 
ENDBRANCH  11  13
ENDBRANCH   5   8
ENDBRANCH   1   2
BRANCH   1  19
ATOM     19  C   UNL     1       2.605   6.713  19.018  0.00  0.00    +0.000 C 
BRANCH  19  20
ATOM     20  C   UNL     1       1.859   8.048  19.171  0.00  0.00    +0.000 A 
ATOM     21  C   UNL     1       1.644   8.902  18.072  0.00  0.00    +0.000 A 
ATOM     22  C   UNL     1       0.737   9.961  18.161  0.00  0.00    +0.000 A 
ATOM     23  C   UNL     1       0.057  10.187  19.351  0.00  0.00    +0.000 A 
ATOM     24  F   UNL     1      -0.891  11.132  19.400  0.00  0.00    +0.000 F 
ATOM     25  C   UNL     1       0.329   9.431  20.480  0.00  0.00    +0.000 A 
ATOM     26  C   UNL     1       1.250   8.393  20.389  0.00  0.00    +0.000 A 
ATOM     27  F   UNL     1       1.473   7.648  21.480  0.00  0.00    +0.000 F 
ENDBRANCH  19  20
BRANCH  19  28
ATOM     28  O   UNL     1       3.039   6.285  20.330  0.00  0.00    +0.000 OA
ATOM     29  H   UNL     1       3.288   5.344  20.253  0.00  0.00    +0.000 HD
ENDBRANCH  19  28
BRANCH  19  30
ATOM     30  C   UNL     1       1.582   5.662  18.512  0.00  0.00    +0.000 C 
BRANCH  30  31
ATOM     31  N   UNL     1       1.547   4.445  19.295  0.00  0.00    +0.000 N 
ATOM     32  C   UNL     1       2.098   3.243  18.978  0.00  0.00    +0.000 A 
ATOM     33  N   UNL     1       1.890   2.394  19.966  0.00  0.00    +0.000 NA
ATOM     34  C   UNL     1       1.209   3.145  20.875  0.00  0.00    +0.000 A 
ATOM     35  N   UNL     1       0.975   4.411  20.511  0.00  0.00    +0.000 NA
ENDBRANCH  30  31
ENDBRANCH  19  30
ENDBRANCH   1  19
TORSDOF 8
ENDMDL
MODEL 7
REMARK VINA RESULT:      -8.6      3.442      6.590
REMARK  Name = 
REMARK  8 active torsions:
REMARK  status: ('A' for Active; 'I' for Inactive)
REMARK    1  A    between atoms: O_1  and  C_2
REMARK    2  A    between atoms: C_2  and  C_3
REMARK    3  A    between atoms: C_2  and  C_21
REMARK    4  A    between atoms: C_2  and  C_27
REMARK    5  A    between atoms: C_3  and  N_4
REMARK    6  A    between atoms: C_7  and  C_8
REMARK    7  A    between atoms: C_11  and  C_12
REMARK    8  A    between atoms: C_21  and  N_22
REMARK                            x       y       z     vdW  Elec       q    Type
REMARK                         _______ _______ _______ _____ _____    ______ ____
ROOT
ATOM      1  C   UNL     1       2.919   7.925  18.455  0.00  0.00    +0.000 C 
ENDROOT
BRANCH   1   2
ATOM      2  N   UNL     1       1.486   8.246  18.830  0.00  0.00    +0.000 NA
ATOM      3  C   UNL     1       1.467   8.529  20.288  0.00  0.00    +0.000 C 
ATOM      4  C   UNL     1       0.172   9.164  20.813  0.00  0.00    +0.000 C 
ATOM      5  C   UNL     1      -0.239  10.417  20.036  0.00  0.00    +0.000 C 
ATOM      6  C   UNL     1      -0.319  10.038  18.562  0.00  0.00    +0.000 C 
ATOM      7  C   UNL     1       0.974   9.392  18.062  0.00  0.00    +0.000 C 
BRANCH   5   8
ATOM      8  C   UNL     1       0.688  11.575  20.262  0.00  0.00    +0.000 A 
ATOM      9  N   UNL     1       1.392  11.876  21.331  0.00  0.00    +0.000 NA
ATOM     10  N   UNL     1       2.118  13.002  21.020  0.00  0.00    +0.000 NA
ATOM     11  C   UNL     1       1.811  13.323  19.785  0.00  0.00    +0.000 A 
ATOM     12  O   UNL     1       0.898  12.455  19.222  0.00  0.00    +0.000 OA
BRANCH  11  13
ATOM     13  C   UNL     1       2.302  14.434  18.985  0.00  0.00    +0.000 A 
ATOM     14  C   UNL     1       3.470  14.399  18.225  0.00  0.00    +0.000 A 
ATOM     15  C   UNL     1       3.850  15.519  17.477  0.00  0.00    +0.000 A 
ATOM     16  C   UNL     1       3.046  16.647  17.517  0.00  0.00    +0.000 A 
ATOM     17  N   UNL     1       1.915  16.726  18.245  0.00  0.00    +0.000 NA
ATOM     18  C   UNL     1       1.571  15.626  18.956  0.00  0.00    +0.000 A 
ENDBRANCH  11  13
ENDBRANCH   5   8
ENDBRANCH   1   2
BRANCH   1  19
ATOM     19  C   UNL     1       3.486   6.445  18.590  0.00  0.00    +0.000 C 
BRANCH  19  20
ATOM     20  C   UNL     1       2.395   5.366  18.667  0.00  0.00    +0.000 A 
ATOM     21  C   UNL     1       1.991   4.644  17.528  0.00  0.00    +0.000 A 
ATOM     22  C   UNL     1       1.213   3.490  17.655  0.00  0.00    +0.000 A 
ATOM     23  C   UNL     1       0.816   3.063  18.916  0.00  0.00    +0.000 A 
ATOM     24  F   UNL     1       0.166   1.900  19.044  0.00  0.00    +0.000 F 
ATOM     25  C   UNL     1       1.107   3.813  20.045  0.00  0.00    +0.000 A 
ATOM     26  C   UNL     1       1.863   4.972  19.907  0.00  0.00    +0.000 A 
ATOM     27  F   UNL     1       2.167   5.665  21.012  0.00  0.00    +0.000 F 
ENDBRANCH  19  20
BRANCH  19  28
ATOM     28  O   UNL     1       4.286   6.365  19.792  0.00  0.00    +0.000 OA
ATOM     29  H   UNL     1       4.936   5.650  19.653  0.00  0.00    +0.000 HD
ENDBRANCH  19  28
BRANCH  19  30
ATOM     30  C   UNL     1       4.414   6.086  17.400  0.00  0.00    +0.000 C 
BRANCH  30  31
ATOM     31  N   UNL     1       5.758   5.711  17.790  0.00  0.00    +0.000 N 
ATOM     32  C   UNL     1       6.277   4.457  17.861  0.00  0.00    +0.000 A 
ATOM     33  N   UNL     1       7.547   4.530  18.212  0.00  0.00    +0.000 NA
ATOM     34  C   UNL     1       7.753   5.871  18.333  0.00  0.00    +0.000 A 
ATOM     35  N   UNL     1       6.686   6.638  18.082  0.00  0.00    +0.000 NA
ENDBRANCH  30  31
ENDBRANCH  19  30
ENDBRANCH   1  19
TORSDOF 8
ENDMDL
MODEL 8
REMARK VINA RESULT:      -8.6      3.780      8.702
REMARK  Name = 
REMARK  8 active torsions:
REMARK  status: ('A' for Active; 'I' for Inactive)
REMARK    1  A    between atoms: O_1  and  C_2
REMARK    2  A    between atoms: C_2  and  C_3
REMARK    3  A    between atoms: C_2  and  C_21
REMARK    4  A    between atoms: C_2  and  C_27
REMARK    5  A    between atoms: C_3  and  N_4
REMARK    6  A    between atoms: C_7  and  C_8
REMARK    7  A    between atoms: C_11  and  C_12
REMARK    8  A    between atoms: C_21  and  N_22
REMARK                            x       y       z     vdW  Elec       q    Type
REMARK                         _______ _______ _______ _____ _____    ______ ____
ROOT
ATOM      1  C   UNL     1       2.193   7.480  17.986  0.00  0.00    +0.000 C 
ENDROOT
BRANCH   1   2
ATOM      2  N   UNL     1       2.181   8.743  18.823  0.00  0.00    +0.000 NA
ATOM      3  C   UNL     1       2.018   9.886  17.889  0.00  0.00    +0.000 C 
ATOM      4  C   UNL     1       1.682  11.229  18.553  0.00  0.00    +0.000 C 
ATOM      5  C   UNL     1       0.476  11.149  19.490  0.00  0.00    +0.000 C 
ATOM      6  C   UNL     1       0.751  10.041  20.499  0.00  0.00    +0.000 C 
ATOM      7  C   UNL     1       1.099   8.716  19.820  0.00  0.00    +0.000 C 
BRANCH   5   8
ATOM      8  C   UNL     1      -0.816  10.929  18.763  0.00  0.00    +0.000 A 
ATOM      9  N   UNL     1      -1.104  10.042  17.834  0.00  0.00    +0.000 NA
ATOM     10  N   UNL     1      -2.433  10.214  17.523  0.00  0.00    +0.000 NA
ATOM     11  C   UNL     1      -2.876  11.195  18.275  0.00  0.00    +0.000 A 
ATOM     12  O   UNL     1      -1.900  11.710  19.103  0.00  0.00    +0.000 OA
BRANCH  11  13
ATOM     13  C   UNL     1      -4.211  11.767  18.330  0.00  0.00    +0.000 A 
ATOM     14  C   UNL     1      -4.814  12.244  19.492  0.00  0.00    +0.000 A 
ATOM     15  C   UNL     1      -6.101  12.791  19.437  0.00  0.00    +0.000 A 
ATOM     16  C   UNL     1      -6.749  12.840  18.212  0.00  0.00    +0.000 A 
ATOM     17  N   UNL     1      -6.207  12.382  17.067  0.00  0.00    +0.000 NA
ATOM     18  C   UNL     1      -4.959  11.861  17.151  0.00  0.00    +0.000 A 
ENDBRANCH  11  13
ENDBRANCH   5   8
ENDBRANCH   1   2
BRANCH   1  19
ATOM     19  C   UNL     1       3.173   6.277  18.338  0.00  0.00    +0.000 C 
BRANCH  19  20
ATOM     20  C   UNL     1       2.463   4.923  18.498  0.00  0.00    +0.000 A 
ATOM     21  C   UNL     1       2.642   3.882  17.567  0.00  0.00    +0.000 A 
ATOM     22  C   UNL     1       2.222   2.583  17.863  0.00  0.00    +0.000 A 
ATOM     23  C   UNL     1       1.603   2.320  19.079  0.00  0.00    +0.000 A 
ATOM     24  F   UNL     1       1.302   1.056  19.406  0.00  0.00    +0.000 F 
ATOM     25  C   UNL     1       1.315   3.344  19.967  0.00  0.00    +0.000 A 
ATOM     26  C   UNL     1       1.716   4.639  19.654  0.00  0.00    +0.000 A 
ATOM     27  F   UNL     1       1.464   5.610  20.541  0.00  0.00    +0.000 F 
ENDBRANCH  19  20
BRANCH  19  28
ATOM     28  O   UNL     1       3.851   6.580  19.578  0.00  0.00    +0.000 OA
ATOM     29  H   UNL     1       4.612   7.150  19.354  0.00  0.00    +0.000 HD
ENDBRANCH  19  28
BRANCH  19  30
ATOM     30  C   UNL     1       4.267   6.103  17.252  0.00  0.00    +0.000 C 
BRANCH  30  31
ATOM     31  N   UNL     1       5.620   6.132  17.765  0.00  0.00    +0.000 N 
ATOM     32  C   UNL     1       6.567   7.083  17.544  0.00  0.00    +0.000 A 
ATOM     33  N   UNL     1       7.658   6.778  18.220  0.00  0.00    +0.000 NA
ATOM     34  C   UNL     1       7.312   5.621  18.850  0.00  0.00    +0.000 A 
ATOM     35  N   UNL     1       6.071   5.185  18.605  0.00  0.00    +0.000 NA
ENDBRANCH  30  31
ENDBRANCH  19  30
ENDBRANCH   1  19
TORSDOF 8
ENDMDL
MODEL 9
REMARK VINA RESULT:      -8.6      3.809      8.791
REMARK  Name = 
REMARK  8 active torsions:
REMARK  status: ('A' for Active; 'I' for Inactive)
REMARK    1  A    between atoms: O_1  and  C_2
REMARK    2  A    between atoms: C_2  and  C_3
REMARK    3  A    between atoms: C_2  and  C_21
REMARK    4  A    between atoms: C_2  and  C_27
REMARK    5  A    between atoms: C_3  and  N_4
REMARK    6  A    between atoms: C_7  and  C_8
REMARK    7  A    between atoms: C_11  and  C_12
REMARK    8  A    between atoms: C_21  and  N_22
REMARK                            x       y       z     vdW  Elec       q    Type
REMARK                         _______ _______ _______ _____ _____    ______ ____
ROOT
ATOM      1  C   UNL     1       2.096   7.505  18.053  0.00  0.00    +0.000 C 
ENDROOT
BRANCH   1   2
ATOM      2  N   UNL     1       2.093   8.775  18.877  0.00  0.00    +0.000 NA
ATOM      3  C   UNL     1       1.946   9.911  17.932  0.00  0.00    +0.000 C 
ATOM      4  C   UNL     1       1.621  11.264  18.581  0.00  0.00    +0.000 C 
ATOM      5  C   UNL     1       0.408  11.205  19.513  0.00  0.00    +0.000 C 
ATOM      6  C   UNL     1       0.667  10.104  20.534  0.00  0.00    +0.000 C 
ATOM      7  C   UNL     1       1.005   8.769  19.869  0.00  0.00    +0.000 C 
BRANCH   5   8
ATOM      8  C   UNL     1      -0.882  10.991  18.780  0.00  0.00    +0.000 A 
ATOM      9  N   UNL     1      -1.122  10.242  17.726  0.00  0.00    +0.000 NA
ATOM     10  N   UNL     1      -2.469  10.344  17.469  0.00  0.00    +0.000 NA
ATOM     11  C   UNL     1      -2.970  11.150  18.376  0.00  0.00    +0.000 A 
ATOM     12  O   UNL     1      -2.016  11.611  19.260  0.00  0.00    +0.000 OA
BRANCH  11  13
ATOM     13  C   UNL     1      -4.346  11.588  18.544  0.00  0.00    +0.000 A 
ATOM     14  C   UNL     1      -5.402  11.191  17.727  0.00  0.00    +0.000 A 
ATOM     15  C   UNL     1      -6.697  11.658  17.981  0.00  0.00    +0.000 A 
ATOM     16  C   UNL     1      -6.893  12.518  19.050  0.00  0.00    +0.000 A 
ATOM     17  N   UNL     1      -5.899  12.935  19.859  0.00  0.00    +0.000 NA
ATOM     18  C   UNL     1      -4.658  12.464  19.590  0.00  0.00    +0.000 A 
ENDBRANCH  11  13
ENDBRANCH   5   8
ENDBRANCH   1   2
BRANCH   1  19
ATOM     19  C   UNL     1       3.047   6.287  18.433  0.00  0.00    +0.000 C 
BRANCH  19  20
ATOM     20  C   UNL     1       2.302   4.960  18.647  0.00  0.00    +0.000 A 
ATOM     21  C   UNL     1       2.360   3.920  17.698  0.00  0.00    +0.000 A 
ATOM     22  C   UNL     1       1.918   2.636  18.022  0.00  0.00    +0.000 A 
ATOM     23  C   UNL     1       1.396   2.385  19.286  0.00  0.00    +0.000 A 
ATOM     24  F   UNL     1       1.077   1.131  19.631  0.00  0.00    +0.000 F 
ATOM     25  C   UNL     1       1.226   3.412  20.201  0.00  0.00    +0.000 A 
ATOM     26  C   UNL     1       1.648   4.693  19.862  0.00  0.00    +0.000 A 
ATOM     27  F   UNL     1       1.511   5.666  20.772  0.00  0.00    +0.000 F 
ENDBRANCH  19  20
BRANCH  19  28
ATOM     28  O   UNL     1       3.749   6.613  19.655  0.00  0.00    +0.000 OA
ATOM     29  H   UNL     1       4.426   7.277  19.424  0.00  0.00    +0.000 HD
ENDBRANCH  19  28
BRANCH  19  30
ATOM     30  C   UNL     1       4.122   6.047  17.341  0.00  0.00    +0.000 C 
BRANCH  30  31
ATOM     31  N   UNL     1       5.446   5.782  17.862  0.00  0.00    +0.000 N 
ATOM     32  C   UNL     1       5.927   4.600  18.331  0.00  0.00    +0.000 A 
ATOM     33  N   UNL     1       7.193   4.750  18.675  0.00  0.00    +0.000 NA
ATOM     34  C   UNL     1       7.435   6.057  18.382  0.00  0.00    +0.000 A 
ATOM     35  N   UNL     1       6.396   6.733  17.878  0.00  0.00    +0.000 NA
ENDBRANCH  30  31
ENDBRANCH  19  30
ENDBRANCH   1  19
TORSDOF 8
ENDMDL
