MODEL 1
REMARK VINA RESULT:      -7.9      0.000      0.000
REMARK  Name = 
REMARK  4 active torsions:
REMARK  status: ('A' for Active; 'I' for Inactive)
REMARK    1  A    between atoms: C_2  and  C_7
REMARK    2  A    between atoms: N_3  and  C_4
REMARK    3  A    between atoms: N_11  and  S_12
REMARK    4  A    between atoms: S_12  and  C_15
REMARK                            x       y       z     vdW  Elec       q    Type
REMARK                         _______ _______ _______ _____ _____    ______ ____
ROOT
ATOM      1  C   UNL     1       5.071   5.820  16.629  0.00  0.00    +0.000 A 
ATOM      2  C   UNL     1       4.629   7.143  16.553  0.00  0.00    +0.000 A 
ATOM      3  C   UNL     1       3.669   7.376  17.560  0.00  0.00    +0.000 A 
ATOM      4  C   UNL     1       3.552   6.207  18.272  0.00  0.00    +0.000 A 
ATOM      5  N   UNL     1       4.407   5.280  17.719  0.00  0.00    +0.000 N 
ENDROOT
BRANCH   1   7
ATOM      6  O   UNL     1       7.236   5.670  15.770  0.00  0.00    +0.000 OA
ATOM      7  C   UNL     1       6.076   5.268  15.738  0.00  0.00    +0.000 C 
ATOM      8  N   UNL     1       5.673   4.340  14.801  0.00  0.00    +0.000 N 
ATOM      9  H   UNL     1       4.685   4.113  14.696  0.00  0.00    +0.000 HD
BRANCH   8  10
ATOM     10  C   UNL     1       6.575   3.862  13.794  0.00  0.00    +0.000 C 
ATOM     11  C   UNL     1       6.049   3.391  12.466  0.00  0.00    +0.000 C 
ATOM     12  C   UNL     1       6.842   4.662  12.549  0.00  0.00    +0.000 C 
ENDBRANCH   8  10
ENDBRANCH   1   7
BRANCH   5  13
ATOM     13  S   UNL     1       4.510   3.691  18.332  0.00  0.00    +0.000 S 
ATOM     14  O   UNL     1       4.415   2.801  17.193  0.00  0.00    +0.000 OA
ATOM     15  O   UNL     1       5.702   3.718  19.166  0.00  0.00    +0.000 OA
BRANCH  13  16
ATOM     16  C   UNL     1       3.130   3.365  19.366  0.00  0.00    +0.000 A 
ATOM     17  C   UNL     1       3.374   3.011  20.699  0.00  0.00    +0.000 A 
ATOM     18  C   UNL     1       2.304   2.811  21.571  0.00  0.00    +0.000 A 
ATOM     19  C   UNL     1       0.996   2.958  21.110  0.00  0.00    +0.000 A 
ATOM     20  C   UNL     1       0.759   3.263  19.767  0.00  0.00    +0.000 A 
ATOM     21  C   UNL     1       1.831   3.452  18.896  0.00  0.00    +0.000 A 
ATOM     22  F   UNL     1       1.571   3.706  17.608  0.00  0.00    +0.000 F 
ENDBRANCH  13  16
ENDBRANCH   5  13
TORSDOF 4
ENDMDL
MODEL 2
REMARK VINA RESULT:      -7.6      1.249      1.685
REMARK  Name = 
REMARK  4 active torsions:
REMARK  status: ('A' for Active; 'I' for Inactive)
REMARK    1  A    between atoms: C_2  and  C_7
REMARK    2  A    between atoms: N_3  and  C_4
REMARK    3  A    between atoms: N_11  and  S_12
REMARK    4  A    between atoms: S_12  and  C_15
REMARK                            x       y       z     vdW  Elec       q    Type
REMARK                         _______ _______ _______ _____ _____    ______ ____
ROOT
ATOM      1  C   UNL     1       4.988   5.400  16.510  0.00  0.00    +0.000 A 
ATOM      2  C   UNL     1       5.116   6.772  16.737  0.00  0.00    +0.000 A 
ATOM      3  C   UNL     1       4.088   7.203  17.602  0.00  0.00    +0.000 A 
ATOM      4  C   UNL     1       3.356   6.089  17.931  0.00  0.00    +0.000 A 
ATOM      5  N   UNL     1       3.909   5.005  17.285  0.00  0.00    +0.000 N 
ENDROOT
BRANCH   1   7
ATOM      6  O   UNL     1       7.075   4.482  16.007  0.00  0.00    +0.000 OA
ATOM      7  C   UNL     1       5.904   4.646  15.672  0.00  0.00    +0.000 C 
ATOM      8  N   UNL     1       5.445   4.191  14.455  0.00  0.00    +0.000 N 
ATOM      9  H   UNL     1       4.513   4.446  14.129  0.00  0.00    +0.000 HD
BRANCH   8  10
ATOM     10  C   UNL     1       6.330   3.570  13.512  0.00  0.00    +0.000 C 
ATOM     11  C   UNL     1       5.833   3.179  12.149  0.00  0.00    +0.000 C 
ATOM     12  C   UNL     1       6.808   4.309  12.294  0.00  0.00    +0.000 C 
ENDBRANCH   8  10
ENDBRANCH   1   7
BRANCH   5  13
ATOM     13  S   UNL     1       3.239   3.444  17.438  0.00  0.00    +0.000 S 
ATOM     14  O   UNL     1       2.104   3.390  16.539  0.00  0.00    +0.000 OA
ATOM     15  O   UNL     1       4.380   2.558  17.261  0.00  0.00    +0.000 OA
BRANCH  13  16
ATOM     16  C   UNL     1       2.625   3.221  19.067  0.00  0.00    +0.000 A 
ATOM     17  C   UNL     1       1.257   3.424  19.291  0.00  0.00    +0.000 A 
ATOM     18  C   UNL     1       0.718   3.191  20.555  0.00  0.00    +0.000 A 
ATOM     19  C   UNL     1       1.545   2.761  21.594  0.00  0.00    +0.000 A 
ATOM     20  C   UNL     1       2.916   2.609  21.376  0.00  0.00    +0.000 A 
ATOM     21  C   UNL     1       3.453   2.852  20.113  0.00  0.00    +0.000 A 
ATOM     22  F   UNL     1       4.776   2.734  19.947  0.00  0.00    +0.000 F 
ENDBRANCH  13  16
ENDBRANCH   5  13
TORSDOF 4
ENDMDL
MODEL 3
REMARK VINA RESULT:      -7.3      1.504      1.956
REMARK  Name = 
REMARK  4 active torsions:
REMARK  status: ('A' for Active; 'I' for Inactive)
REMARK    1  A    between atoms: C_2  and  C_7
REMARK    2  A    between atoms: N_3  and  C_4
REMARK    3  A    between atoms: N_11  and  S_12
REMARK    4  A    between atoms: S_12  and  C_15
REMARK                            x       y       z     vdW  Elec       q    Type
REMARK                         _______ _______ _______ _____ _____    ______ ____
ROOT
ATOM      1  C   UNL     1       4.331   5.856  17.087  0.00  0.00    +0.000 A 
ATOM      2  C   UNL     1       4.469   7.231  17.289  0.00  0.00    +0.000 A 
ATOM      3  C   UNL     1       3.294   7.737  17.886  0.00  0.00    +0.000 A 
ATOM      4  C   UNL     1       2.458   6.666  18.081  0.00  0.00    +0.000 A 
ATOM      5  N   UNL     1       3.090   5.536  17.614  0.00  0.00    +0.000 N 
ENDROOT
BRANCH   1   7
ATOM      6  O   UNL     1       6.410   4.794  17.122  0.00  0.00    +0.000 OA
ATOM      7  C   UNL     1       5.376   5.033  16.503  0.00  0.00    +0.000 C 
ATOM      8  N   UNL     1       5.210   4.597  15.206  0.00  0.00    +0.000 N 
ATOM      9  H   UNL     1       4.410   4.912  14.657  0.00  0.00    +0.000 HD
BRANCH   8  10
ATOM     10  C   UNL     1       6.260   3.908  14.514  0.00  0.00    +0.000 C 
ATOM     11  C   UNL     1       6.163   3.670  13.032  0.00  0.00    +0.000 C 
ATOM     12  C   UNL     1       7.176   4.637  13.571  0.00  0.00    +0.000 C 
ENDBRANCH   8  10
ENDBRANCH   1   7
BRANCH   5  13
ATOM     13  S   UNL     1       2.333   4.008  17.667  0.00  0.00    +0.000 S 
ATOM     14  O   UNL     1       0.955   4.215  17.269  0.00  0.00    +0.000 OA
ATOM     15  O   UNL     1       3.218   3.155  16.889  0.00  0.00    +0.000 OA
BRANCH  13  16
ATOM     16  C   UNL     1       2.316   3.413  19.317  0.00  0.00    +0.000 A 
ATOM     17  C   UNL     1       1.092   3.393  19.999  0.00  0.00    +0.000 A 
ATOM     18  C   UNL     1       1.024   2.865  21.288  0.00  0.00    +0.000 A 
ATOM     19  C   UNL     1       2.176   2.364  21.894  0.00  0.00    +0.000 A 
ATOM     20  C   UNL     1       3.402   2.433  21.228  0.00  0.00    +0.000 A 
ATOM     21  C   UNL     1       3.468   2.971  19.944  0.00  0.00    +0.000 A 
ATOM     22  F   UNL     1       4.663   3.057  19.347  0.00  0.00    +0.000 F 
ENDBRANCH  13  16
ENDBRANCH   5  13
TORSDOF 4
ENDMDL
MODEL 4
REMARK VINA RESULT:      -7.3      1.098      1.481
REMARK  Name = 
REMARK  4 active torsions:
REMARK  status: ('A' for Active; 'I' for Inactive)
REMARK    1  A    between atoms: C_2  and  C_7
REMARK    2  A    between atoms: N_3  and  C_4
REMARK    3  A    between atoms: N_11  and  S_12
REMARK    4  A    between atoms: S_12  and  C_15
REMARK                            x       y       z     vdW  Elec       q    Type
REMARK                         _______ _______ _______ _____ _____    ______ ____
ROOT
ATOM      1  C   UNL     1       5.173   5.648  16.480  0.00  0.00    +0.000 A 
ATOM      2  C   UNL     1       4.801   6.986  16.331  0.00  0.00    +0.000 A 
ATOM      3  C   UNL     1       3.912   7.344  17.366  0.00  0.00    +0.000 A 
ATOM      4  C   UNL     1       3.771   6.236  18.166  0.00  0.00    +0.000 A 
ATOM      5  N   UNL     1       4.542   5.224  17.638  0.00  0.00    +0.000 N 
ENDROOT
BRANCH   1   7
ATOM      6  O   UNL     1       7.308   5.150  15.677  0.00  0.00    +0.000 OA
ATOM      7  C   UNL     1       6.096   4.978  15.580  0.00  0.00    +0.000 C 
ATOM      8  N   UNL     1       5.568   4.208  14.565  0.00  0.00    +0.000 N 
ATOM      9  H   UNL     1       4.561   4.180  14.413  0.00  0.00    +0.000 HD
BRANCH   8  10
ATOM     10  C   UNL     1       6.409   3.638  13.552  0.00  0.00    +0.000 C 
ATOM     11  C   UNL     1       5.838   3.274  12.209  0.00  0.00    +0.000 C 
ATOM     12  C   UNL     1       6.794   4.424  12.330  0.00  0.00    +0.000 C 
ENDBRANCH   8  10
ENDBRANCH   1   7
BRANCH   5  13
ATOM     13  S   UNL     1       4.591   3.679  18.358  0.00  0.00    +0.000 S 
ATOM     14  O   UNL     1       4.376   2.719  17.295  0.00  0.00    +0.000 OA
ATOM     15  O   UNL     1       5.832   3.690  19.119  0.00  0.00    +0.000 OA
BRANCH  13  16
ATOM     16  C   UNL     1       3.261   3.510  19.490  0.00  0.00    +0.000 A 
ATOM     17  C   UNL     1       2.073   4.203  19.220  0.00  0.00    +0.000 A 
ATOM     18  C   UNL     1       0.971   4.042  20.058  0.00  0.00    +0.000 A 
ATOM     19  C   UNL     1       1.057   3.197  21.165  0.00  0.00    +0.000 A 
ATOM     20  C   UNL     1       2.259   2.548  21.456  0.00  0.00    +0.000 A 
ATOM     21  C   UNL     1       3.363   2.720  20.621  0.00  0.00    +0.000 A 
ATOM     22  F   UNL     1       4.511   2.115  20.948  0.00  0.00    +0.000 F 
ENDBRANCH  13  16
ENDBRANCH   5  13
TORSDOF 4
ENDMDL
MODEL 5
REMARK VINA RESULT:      -7.3      1.075      1.387
REMARK  Name = 
REMARK  4 active torsions:
REMARK  status: ('A' for Active; 'I' for Inactive)
REMARK    1  A    between atoms: C_2  and  C_7
REMARK    2  A    between atoms: N_3  and  C_4
REMARK    3  A    between atoms: N_11  and  S_12
REMARK    4  A    between atoms: S_12  and  C_15
REMARK                            x       y       z     vdW  Elec       q    Type
REMARK                         _______ _______ _______ _____ _____    ______ ____
ROOT
ATOM      1  C   UNL     1       5.215   5.809  16.292  0.00  0.00    +0.000 A 
ATOM      2  C   UNL     1       4.898   7.163  16.157  0.00  0.00    +0.000 A 
ATOM      3  C   UNL     1       3.982   7.532  17.165  0.00  0.00    +0.000 A 
ATOM      4  C   UNL     1       3.770   6.415  17.935  0.00  0.00    +0.000 A 
ATOM      5  N   UNL     1       4.524   5.386  17.416  0.00  0.00    +0.000 N 
ENDROOT
BRANCH   1   7
ATOM      6  O   UNL     1       7.350   5.369  15.455  0.00  0.00    +0.000 OA
ATOM      7  C   UNL     1       6.147   5.123  15.413  0.00  0.00    +0.000 C 
ATOM      8  N   UNL     1       5.634   4.250  14.478  0.00  0.00    +0.000 N 
ATOM      9  H   UNL     1       4.626   4.154  14.364  0.00  0.00    +0.000 HD
BRANCH   8  10
ATOM     10  C   UNL     1       6.475   3.650  13.483  0.00  0.00    +0.000 C 
ATOM     11  C   UNL     1       5.896   3.206  12.168  0.00  0.00    +0.000 C 
ATOM     12  C   UNL     1       6.824   4.384  12.218  0.00  0.00    +0.000 C 
ENDBRANCH   8  10
ENDBRANCH   1   7
BRANCH   5  13
ATOM     13  S   UNL     1       4.489   3.825  18.104  0.00  0.00    +0.000 S 
ATOM     14  O   UNL     1       4.607   2.887  17.007  0.00  0.00    +0.000 OA
ATOM     15  O   UNL     1       5.498   3.886  19.151  0.00  0.00    +0.000 OA
BRANCH  13  16
ATOM     16  C   UNL     1       2.932   3.548  18.863  0.00  0.00    +0.000 A 
ATOM     17  C   UNL     1       2.020   2.708  18.211  0.00  0.00    +0.000 A 
ATOM     18  C   UNL     1       0.799   2.409  18.814  0.00  0.00    +0.000 A 
ATOM     19  C   UNL     1       0.489   2.951  20.062  0.00  0.00    +0.000 A 
ATOM     20  C   UNL     1       1.382   3.826  20.683  0.00  0.00    +0.000 A 
ATOM     21  C   UNL     1       2.597   4.132  20.072  0.00  0.00    +0.000 A 
ATOM     22  F   UNL     1       3.415   5.004  20.676  0.00  0.00    +0.000 F 
ENDBRANCH  13  16
ENDBRANCH   5  13
TORSDOF 4
ENDMDL
MODEL 6
REMARK VINA RESULT:      -7.3      2.513      4.698
REMARK  Name = 
REMARK  4 active torsions:
REMARK  status: ('A' for Active; 'I' for Inactive)
REMARK    1  A    between atoms: C_2  and  C_7
REMARK    2  A    between atoms: N_3  and  C_4
REMARK    3  A    between atoms: N_11  and  S_12
REMARK    4  A    between atoms: S_12  and  C_15
REMARK                            x       y       z     vdW  Elec       q    Type
REMARK                         _______ _______ _______ _____ _____    ______ ____
ROOT
ATOM      1  C   UNL     1       3.804   6.153  17.678  0.00  0.00    +0.000 A 
ATOM      2  C   UNL     1       5.016   6.567  17.122  0.00  0.00    +0.000 A 
ATOM      3  C   UNL     1       5.562   5.518  16.353  0.00  0.00    +0.000 A 
ATOM      4  C   UNL     1       4.667   4.479  16.410  0.00  0.00    +0.000 A 
ATOM      5  N   UNL     1       3.605   4.870  17.194  0.00  0.00    +0.000 N 
ENDROOT
BRANCH   1   7
ATOM      6  O   UNL     1       2.686   6.680  19.659  0.00  0.00    +0.000 OA
ATOM      7  C   UNL     1       2.981   7.011  18.513  0.00  0.00    +0.000 C 
ATOM      8  N   UNL     1       2.475   8.166  17.957  0.00  0.00    +0.000 N 
ATOM      9  H   UNL     1       2.617   8.364  16.967  0.00  0.00    +0.000 HD
BRANCH   8  10
ATOM     10  C   UNL     1       1.538   8.985  18.670  0.00  0.00    +0.000 C 
ATOM     11  C   UNL     1       1.531  10.476  18.474  0.00  0.00    +0.000 C 
ATOM     12  C   UNL     1       0.390   9.648  17.961  0.00  0.00    +0.000 C 
ENDBRANCH   8  10
ENDBRANCH   1   7
BRANCH   5  13
ATOM     13  S   UNL     1       2.302   3.815  17.515  0.00  0.00    +0.000 S 
ATOM     14  O   UNL     1       1.089   4.570  17.273  0.00  0.00    +0.000 OA
ATOM     15  O   UNL     1       2.616   2.628  16.733  0.00  0.00    +0.000 OA
BRANCH  13  16
ATOM     16  C   UNL     1       2.308   3.367  19.211  0.00  0.00    +0.000 A 
ATOM     17  C   UNL     1       1.119   3.514  19.937  0.00  0.00    +0.000 A 
ATOM     18  C   UNL     1       1.063   3.105  21.269  0.00  0.00    +0.000 A 
ATOM     19  C   UNL     1       2.194   2.556  21.874  0.00  0.00    +0.000 A 
ATOM     20  C   UNL     1       3.390   2.458  21.160  0.00  0.00    +0.000 A 
ATOM     21  C   UNL     1       3.444   2.877  19.831  0.00  0.00    +0.000 A 
ATOM     22  F   UNL     1       4.615   2.805  19.186  0.00  0.00    +0.000 F 
ENDBRANCH  13  16
ENDBRANCH   5  13
TORSDOF 4
ENDMDL
MODEL 7
REMARK VINA RESULT:      -7.2      1.828      2.277
REMARK  Name = 
REMARK  4 active torsions:
REMARK  status: ('A' for Active; 'I' for Inactive)
REMARK    1  A    between atoms: C_2  and  C_7
REMARK    2  A    between atoms: N_3  and  C_4
REMARK    3  A    between atoms: N_11  and  S_12
REMARK    4  A    between atoms: S_12  and  C_15
REMARK                            x       y       z     vdW  Elec       q    Type
REMARK                         _______ _______ _______ _____ _____    ______ ____
ROOT
ATOM      1  C   UNL     1       6.667   5.263  17.284  0.00  0.00    +0.000 A 
ATOM      2  C   UNL     1       7.698   5.699  18.119  0.00  0.00    +0.000 A 
ATOM      3  C   UNL     1       7.275   5.626  19.464  0.00  0.00    +0.000 A 
ATOM      4  C   UNL     1       6.002   5.111  19.450  0.00  0.00    +0.000 A 
ATOM      5  N   UNL     1       5.646   4.881  18.140  0.00  0.00    +0.000 N 
ENDROOT
BRANCH   1   7
ATOM      6  O   UNL     1       7.684   5.813  15.256  0.00  0.00    +0.000 OA
ATOM      7  C   UNL     1       6.791   5.202  15.838  0.00  0.00    +0.000 C 
ATOM      8  N   UNL     1       5.832   4.507  15.133  0.00  0.00    +0.000 N 
ATOM      9  H   UNL     1       5.023   4.116  15.615  0.00  0.00    +0.000 HD
BRANCH   8  10
ATOM     10  C   UNL     1       5.804   4.526  13.699  0.00  0.00    +0.000 C 
ATOM     11  C   UNL     1       6.436   3.411  12.913  0.00  0.00    +0.000 C 
ATOM     12  C   UNL     1       4.944   3.566  12.926  0.00  0.00    +0.000 C 
ENDBRANCH   8  10
ENDBRANCH   1   7
BRANCH   5  13
ATOM     13  S   UNL     1       4.108   4.265  17.733  0.00  0.00    +0.000 S 
ATOM     14  O   UNL     1       3.408   5.325  17.037  0.00  0.00    +0.000 OA
ATOM     15  O   UNL     1       4.403   3.002  17.074  0.00  0.00    +0.000 OA
BRANCH  13  16
ATOM     16  C   UNL     1       3.205   3.916  19.196  0.00  0.00    +0.000 A 
ATOM     17  C   UNL     1       2.111   4.735  19.508  0.00  0.00    +0.000 A 
ATOM     18  C   UNL     1       1.327   4.449  20.625  0.00  0.00    +0.000 A 
ATOM     19  C   UNL     1       1.638   3.354  21.431  0.00  0.00    +0.000 A 
ATOM     20  C   UNL     1       2.758   2.572  21.142  0.00  0.00    +0.000 A 
ATOM     21  C   UNL     1       3.546   2.866  20.030  0.00  0.00    +0.000 A 
ATOM     22  F   UNL     1       4.635   2.121  19.803  0.00  0.00    +0.000 F 
ENDBRANCH  13  16
ENDBRANCH   5  13
TORSDOF 4
ENDMDL
MODEL 8
REMARK VINA RESULT:      -7.2      2.718      5.457
REMARK  Name = 
REMARK  4 active torsions:
REMARK  status: ('A' for Active; 'I' for Inactive)
REMARK    1  A    between atoms: C_2  and  C_7
REMARK    2  A    between atoms: N_3  and  C_4
REMARK    3  A    between atoms: N_11  and  S_12
REMARK    4  A    between atoms: S_12  and  C_15
REMARK                            x       y       z     vdW  Elec       q    Type
REMARK                         _______ _______ _______ _____ _____    ______ ____
ROOT
ATOM      1  C   UNL     1       2.058   4.103  19.725  0.00  0.00    +0.000 A 
ATOM      2  C   UNL     1       1.280   4.158  20.884  0.00  0.00    +0.000 A 
ATOM      3  C   UNL     1       1.707   3.159  21.784  0.00  0.00    +0.000 A 
ATOM      4  C   UNL     1       2.767   2.520  21.190  0.00  0.00    +0.000 A 
ATOM      5  N   UNL     1       2.985   3.099  19.960  0.00  0.00    +0.000 N 
ENDROOT
BRANCH   1   7
ATOM      6  O   UNL     1       1.470   4.606  17.522  0.00  0.00    +0.000 OA
ATOM      7  C   UNL     1       1.880   5.013  18.607  0.00  0.00    +0.000 C 
ATOM      8  N   UNL     1       2.261   6.327  18.773  0.00  0.00    +0.000 N 
ATOM      9  H   UNL     1       2.723   6.623  19.632  0.00  0.00    +0.000 HD
BRANCH   8  10
ATOM     10  C   UNL     1       2.254   7.247  17.672  0.00  0.00    +0.000 C 
ATOM     11  C   UNL     1       1.716   8.639  17.851  0.00  0.00    +0.000 C 
ATOM     12  C   UNL     1       3.186   8.426  17.640  0.00  0.00    +0.000 C 
ENDBRANCH   8  10
ENDBRANCH   1   7
BRANCH   5  13
ATOM     13  S   UNL     1       4.215   2.539  18.920  0.00  0.00    +0.000 S 
ATOM     14  O   UNL     1       5.276   2.033  19.768  0.00  0.00    +0.000 OA
ATOM     15  O   UNL     1       3.514   1.664  17.993  0.00  0.00    +0.000 OA
BRANCH  13  16
ATOM     16  C   UNL     1       4.874   3.884  18.006  0.00  0.00    +0.000 A 
ATOM     17  C   UNL     1       4.742   3.861  16.611  0.00  0.00    +0.000 A 
ATOM     18  C   UNL     1       5.191   4.942  15.854  0.00  0.00    +0.000 A 
ATOM     19  C   UNL     1       5.776   6.039  16.488  0.00  0.00    +0.000 A 
ATOM     20  C   UNL     1       5.950   6.032  17.873  0.00  0.00    +0.000 A 
ATOM     21  C   UNL     1       5.509   4.945  18.626  0.00  0.00    +0.000 A 
ATOM     22  F   UNL     1       5.725   4.953  19.947  0.00  0.00    +0.000 F 
ENDBRANCH  13  16
ENDBRANCH   5  13
TORSDOF 4
ENDMDL
MODEL 9
REMARK VINA RESULT:      -7.1      2.690      5.299
REMARK  Name = 
REMARK  4 active torsions:
REMARK  status: ('A' for Active; 'I' for Inactive)
REMARK    1  A    between atoms: C_2  and  C_7
REMARK    2  A    between atoms: N_3  and  C_4
REMARK    3  A    between atoms: N_11  and  S_12
REMARK    4  A    between atoms: S_12  and  C_15
REMARK                            x       y       z     vdW  Elec       q    Type
REMARK                         _______ _______ _______ _____ _____    ______ ____
ROOT
ATOM      1  C   UNL     1       1.970   4.010  19.737  0.00  0.00    +0.000 A 
ATOM      2  C   UNL     1       1.096   4.004  20.826  0.00  0.00    +0.000 A 
ATOM      3  C   UNL     1       1.503   3.017  21.749  0.00  0.00    +0.000 A 
ATOM      4  C   UNL     1       2.645   2.449  21.241  0.00  0.00    +0.000 A 
ATOM      5  N   UNL     1       2.931   3.059  20.040  0.00  0.00    +0.000 N 
ENDROOT
BRANCH   1   7
ATOM      6  O   UNL     1       1.401   4.537  17.535  0.00  0.00    +0.000 OA
ATOM      7  C   UNL     1       1.834   4.925  18.617  0.00  0.00    +0.000 C 
ATOM      8  N   UNL     1       2.279   6.220  18.779  0.00  0.00    +0.000 N 
ATOM      9  H   UNL     1       2.757   6.495  19.636  0.00  0.00    +0.000 HD
BRANCH   8  10
ATOM     10  C   UNL     1       2.314   7.137  17.676  0.00  0.00    +0.000 C 
ATOM     11  C   UNL     1       1.896   8.568  17.866  0.00  0.00    +0.000 C 
ATOM     12  C   UNL     1       3.337   8.236  17.613  0.00  0.00    +0.000 C 
ENDBRANCH   8  10
ENDBRANCH   1   7
BRANCH   5  13
ATOM     13  S   UNL     1       4.276   2.586  19.103  0.00  0.00    +0.000 S 
ATOM     14  O   UNL     1       5.225   1.982  20.015  0.00  0.00    +0.000 OA
ATOM     15  O   UNL     1       3.687   1.819  18.014  0.00  0.00    +0.000 OA
BRANCH  13  16
ATOM     16  C   UNL     1       5.045   4.005  18.414  0.00  0.00    +0.000 A 
ATOM     17  C   UNL     1       5.822   4.810  19.258  0.00  0.00    +0.000 A 
ATOM     18  C   UNL     1       6.504   5.908  18.735  0.00  0.00    +0.000 A 
ATOM     19  C   UNL     1       6.406   6.203  17.375  0.00  0.00    +0.000 A 
ATOM     20  C   UNL     1       5.590   5.427  16.550  0.00  0.00    +0.000 A 
ATOM     21  C   UNL     1       4.901   4.336  17.078  0.00  0.00    +0.000 A 
ATOM     22  F   UNL     1       4.098   3.634  16.269  0.00  0.00    +0.000 F 
ENDBRANCH  13  16
ENDBRANCH   5  13
TORSDOF 4
ENDMDL
