MODEL 1
REMARK VINA RESULT:      -7.8      0.000      0.000
REMARK  Name = 
REMARK  9 active torsions:
REMARK  status: ('A' for Active; 'I' for Inactive)
REMARK    1  A    between atoms: C_1  and  C_2
REMARK    2  A    between atoms: C_2  and  C_3
REMARK    3  A    between atoms: C_3  and  N_4
REMARK    4  A    between atoms: N_4  and  C_5
REMARK    5  A    between atoms: C_6  and  C_7
REMARK    6  A    between atoms: C_7  and  O_9
REMARK    7  A    between atoms: O_9  and  C_10
REMARK    8  A    between atoms: C_10  and  C_11
REMARK    9  A    between atoms: N_13  and  C_14
REMARK                            x       y       z     vdW  Elec       q    Type
REMARK                         _______ _______ _______ _____ _____    ______ ____
ROOT
ATOM      1  C   UNL     1       6.555   4.860  17.588  0.00  0.00    +0.000 C 
ATOM      2  C   UNL     1       6.014   4.580  16.407  0.00  0.00    +0.000 C 
ATOM      3  C   UNL     1       4.574   4.207  16.481  0.00  0.00    +0.000 C 
ATOM      4  N   UNL     1       4.294   4.287  17.902  0.00  0.00    +0.000 N 
ATOM      5  C   UNL     1       5.442   4.686  18.599  0.00  0.00    +0.000 C 
ATOM      6  O   UNL     1       5.624   4.880  19.786  0.00  0.00    +0.000 OA
ENDROOT
BRANCH   4   7
ATOM      7  C   UNL     1       3.065   3.855  18.488  0.00  0.00    +0.000 A 
ATOM      8  C   UNL     1       2.383   4.645  19.430  0.00  0.00    +0.000 A 
ATOM      9  C   UNL     1       1.270   4.159  20.129  0.00  0.00    +0.000 A 
ATOM     10  C   UNL     1       0.768   2.893  19.849  0.00  0.00    +0.000 A 
ATOM     11  C   UNL     1       1.382   2.119  18.869  0.00  0.00    +0.000 A 
ATOM     12  C   UNL     1       2.515   2.598  18.193  0.00  0.00    +0.000 A 
ENDBRANCH   4   7
BRANCH   1  13
ATOM     13  N   UNL     1       7.822   5.214  17.985  0.00  0.00    +0.000 N 
ATOM     14  H   UNL     1       8.304   4.456  18.469  0.00  0.00    +0.000 HD
BRANCH  13  15
ATOM     15  C   UNL     1       8.131   6.541  18.500  0.00  0.00    +0.000 C 
BRANCH  15  17
ATOM     16  C   UNL     1       8.211   8.995  18.017  0.00  0.00    +0.000 C 
ATOM     17  C   UNL     1       7.606   7.660  17.599  0.00  0.00    +0.000 C 
ENDBRANCH  15  17
ENDBRANCH  13  15
ENDBRANCH   1  13
BRANCH   2  18
ATOM     18  C   UNL     1       6.719   4.564  15.110  0.00  0.00    +0.000 C 
ATOM     19  O   UNL     1       7.628   5.341  14.863  0.00  0.00    +0.000 OA
BRANCH  18  20
ATOM     20  O   UNL     1       6.240   3.614  14.268  0.00  0.00    +0.000 OA
BRANCH  20  21
ATOM     21  C   UNL     1       6.480   3.773  12.865  0.00  0.00    +0.000 C 
ATOM     22  C   UNL     1       5.304   3.266  12.046  0.00  0.00    +0.000 C 
ENDBRANCH  20  21
ENDBRANCH  18  20
ENDBRANCH   2  18
TORSDOF 7
ENDMDL
MODEL 2
REMARK VINA RESULT:      -7.5      1.198      1.414
REMARK  Name = 
REMARK  9 active torsions:
REMARK  status: ('A' for Active; 'I' for Inactive)
REMARK    1  A    between atoms: C_1  and  C_2
REMARK    2  A    between atoms: C_2  and  C_3
REMARK    3  A    between atoms: C_3  and  N_4
REMARK    4  A    between atoms: N_4  and  C_5
REMARK    5  A    between atoms: C_6  and  C_7
REMARK    6  A    between atoms: C_7  and  O_9
REMARK    7  A    between atoms: O_9  and  C_10
REMARK    8  A    between atoms: C_10  and  C_11
REMARK    9  A    between atoms: N_13  and  C_14
REMARK                            x       y       z     vdW  Elec       q    Type
REMARK                         _______ _______ _______ _____ _____    ______ ____
ROOT
ATOM      1  C   UNL     1       5.673   6.024  16.749  0.00  0.00    +0.000 C 
ATOM      2  C   UNL     1       5.765   4.913  16.026  0.00  0.00    +0.000 C 
ATOM      3  C   UNL     1       4.820   3.842  16.448  0.00  0.00    +0.000 C 
ATOM      4  N   UNL     1       4.119   4.453  17.561  0.00  0.00    +0.000 N 
ATOM      5  C   UNL     1       4.585   5.758  17.768  0.00  0.00    +0.000 C 
ATOM      6  O   UNL     1       4.256   6.599  18.583  0.00  0.00    +0.000 OA
ENDROOT
BRANCH   4   7
ATOM      7  C   UNL     1       3.212   3.742  18.406  0.00  0.00    +0.000 A 
ATOM      8  C   UNL     1       1.912   3.419  17.980  0.00  0.00    +0.000 A 
ATOM      9  C   UNL     1       0.967   2.871  18.856  0.00  0.00    +0.000 A 
ATOM     10  C   UNL     1       1.322   2.566  20.166  0.00  0.00    +0.000 A 
ATOM     11  C   UNL     1       2.624   2.811  20.592  0.00  0.00    +0.000 A 
ATOM     12  C   UNL     1       3.559   3.387  19.719  0.00  0.00    +0.000 A 
ENDBRANCH   4   7
BRANCH   1  13
ATOM     13  N   UNL     1       6.348   7.220  16.731  0.00  0.00    +0.000 N 
ATOM     14  H   UNL     1       6.404   7.621  15.795  0.00  0.00    +0.000 HD
BRANCH  13  15
ATOM     15  C   UNL     1       7.528   7.458  17.552  0.00  0.00    +0.000 C 
BRANCH  15  17
ATOM     16  C   UNL     1       8.824   9.170  18.836  0.00  0.00    +0.000 C 
ATOM     17  C   UNL     1       7.876   8.943  17.664  0.00  0.00    +0.000 C 
ENDBRANCH  15  17
ENDBRANCH  13  15
ENDBRANCH   1  13
BRANCH   2  18
ATOM     18  C   UNL     1       6.725   4.667  14.931  0.00  0.00    +0.000 C 
ATOM     19  O   UNL     1       7.694   5.387  14.752  0.00  0.00    +0.000 OA
BRANCH  18  20
ATOM     20  O   UNL     1       6.396   3.582  14.184  0.00  0.00    +0.000 OA
BRANCH  20  21
ATOM     21  C   UNL     1       6.437   3.708  12.757  0.00  0.00    +0.000 C 
ATOM     22  C   UNL     1       5.109   3.308  12.133  0.00  0.00    +0.000 C 
ENDBRANCH  20  21
ENDBRANCH  18  20
ENDBRANCH   2  18
TORSDOF 7
ENDMDL
MODEL 3
REMARK VINA RESULT:      -7.4      1.793      4.050
REMARK  Name = 
REMARK  9 active torsions:
REMARK  status: ('A' for Active; 'I' for Inactive)
REMARK    1  A    between atoms: C_1  and  C_2
REMARK    2  A    between atoms: C_2  and  C_3
REMARK    3  A    between atoms: C_3  and  N_4
REMARK    4  A    between atoms: N_4  and  C_5
REMARK    5  A    between atoms: C_6  and  C_7
REMARK    6  A    between atoms: C_7  and  O_9
REMARK    7  A    between atoms: O_9  and  C_10
REMARK    8  A    between atoms: C_10  and  C_11
REMARK    9  A    between atoms: N_13  and  C_14
REMARK                            x       y       z     vdW  Elec       q    Type
REMARK                         _______ _______ _______ _____ _____    ______ ____
ROOT
ATOM      1  C   UNL     1       5.078   4.234  16.328  0.00  0.00    +0.000 C 
ATOM      2  C   UNL     1       5.965   4.409  17.302  0.00  0.00    +0.000 C 
ATOM      3  C   UNL     1       5.436   4.094  18.658  0.00  0.00    +0.000 C 
ATOM      4  N   UNL     1       4.067   3.698  18.385  0.00  0.00    +0.000 N 
ATOM      5  C   UNL     1       3.813   3.754  17.009  0.00  0.00    +0.000 C 
ATOM      6  O   UNL     1       2.808   3.495  16.375  0.00  0.00    +0.000 OA
ENDROOT
BRANCH   4   7
ATOM      7  C   UNL     1       3.098   3.456  19.408  0.00  0.00    +0.000 A 
ATOM      8  C   UNL     1       1.860   4.122  19.418  0.00  0.00    +0.000 A 
ATOM      9  C   UNL     1       0.978   4.014  20.501  0.00  0.00    +0.000 A 
ATOM     10  C   UNL     1       1.282   3.178  21.570  0.00  0.00    +0.000 A 
ATOM     11  C   UNL     1       2.469   2.453  21.549  0.00  0.00    +0.000 A 
ATOM     12  C   UNL     1       3.364   2.587  20.477  0.00  0.00    +0.000 A 
ENDBRANCH   4   7
BRANCH   1  13
ATOM     13  N   UNL     1       5.120   4.423  14.968  0.00  0.00    +0.000 N 
ATOM     14  H   UNL     1       4.192   4.418  14.546  0.00  0.00    +0.000 HD
BRANCH  13  15
ATOM     15  C   UNL     1       6.157   3.831  14.134  0.00  0.00    +0.000 C 
BRANCH  15  17
ATOM     16  C   UNL     1       6.828   3.473  11.750  0.00  0.00    +0.000 C 
ATOM     17  C   UNL     1       5.659   3.492  12.728  0.00  0.00    +0.000 C 
ENDBRANCH  15  17
ENDBRANCH  13  15
ENDBRANCH   1  13
BRANCH   2  18
ATOM     18  C   UNL     1       7.342   4.917  17.142  0.00  0.00    +0.000 C 
ATOM     19  O   UNL     1       8.312   4.262  17.490  0.00  0.00    +0.000 OA
BRANCH  18  20
ATOM     20  O   UNL     1       7.379   6.153  16.585  0.00  0.00    +0.000 OA
BRANCH  20  21
ATOM     21  C   UNL     1       6.853   7.251  17.341  0.00  0.00    +0.000 C 
ATOM     22  C   UNL     1       7.948   8.243  17.702  0.00  0.00    +0.000 C 
ENDBRANCH  20  21
ENDBRANCH  18  20
ENDBRANCH   2  18
TORSDOF 7
ENDMDL
MODEL 4
REMARK VINA RESULT:      -7.2      1.029      1.581
REMARK  Name = 
REMARK  9 active torsions:
REMARK  status: ('A' for Active; 'I' for Inactive)
REMARK    1  A    between atoms: C_1  and  C_2
REMARK    2  A    between atoms: C_2  and  C_3
REMARK    3  A    between atoms: C_3  and  N_4
REMARK    4  A    between atoms: N_4  and  C_5
REMARK    5  A    between atoms: C_6  and  C_7
REMARK    6  A    between atoms: C_7  and  O_9
REMARK    7  A    between atoms: O_9  and  C_10
REMARK    8  A    between atoms: C_10  and  C_11
REMARK    9  A    between atoms: N_13  and  C_14
REMARK                            x       y       z     vdW  Elec       q    Type
REMARK                         _______ _______ _______ _____ _____    ______ ____
ROOT
ATOM      1  C   UNL     1       6.353   5.462  17.881  0.00  0.00    +0.000 C 
ATOM      2  C   UNL     1       5.535   5.568  16.838  0.00  0.00    +0.000 C 
ATOM      3  C   UNL     1       4.145   5.113  17.118  0.00  0.00    +0.000 C 
ATOM      4  N   UNL     1       4.218   4.693  18.505  0.00  0.00    +0.000 N 
ATOM      5  C   UNL     1       5.510   4.895  19.004  0.00  0.00    +0.000 C 
ATOM      6  O   UNL     1       5.977   4.686  20.107  0.00  0.00    +0.000 OA
ENDROOT
BRANCH   4   7
ATOM      7  C   UNL     1       3.153   4.021  19.181  0.00  0.00    +0.000 A 
ATOM      8  C   UNL     1       2.784   2.706  18.844  0.00  0.00    +0.000 A 
ATOM      9  C   UNL     1       1.641   2.103  19.385  0.00  0.00    +0.000 A 
ATOM     10  C   UNL     1       0.877   2.776  20.332  0.00  0.00    +0.000 A 
ATOM     11  C   UNL     1       1.262   4.051  20.735  0.00  0.00    +0.000 A 
ATOM     12  C   UNL     1       2.391   4.663  20.168  0.00  0.00    +0.000 A 
ENDBRANCH   4   7
BRANCH   1  13
ATOM     13  N   UNL     1       7.687   5.730  18.064  0.00  0.00    +0.000 N 
ATOM     14  H   UNL     1       8.205   4.916  18.395  0.00  0.00    +0.000 HD
BRANCH  13  15
ATOM     15  C   UNL     1       8.157   6.997  18.608  0.00  0.00    +0.000 C 
BRANCH  15  17
ATOM     16  C   UNL     1       8.499   9.449  18.243  0.00  0.00    +0.000 C 
ATOM     17  C   UNL     1       7.875   8.178  17.677  0.00  0.00    +0.000 C 
ENDBRANCH  15  17
ENDBRANCH  13  15
ENDBRANCH   1  13
BRANCH   2  18
ATOM     18  C   UNL     1       5.906   6.031  15.486  0.00  0.00    +0.000 C 
ATOM     19  O   UNL     1       5.212   6.819  14.864  0.00  0.00    +0.000 OA
BRANCH  18  20
ATOM     20  O   UNL     1       7.070   5.485  15.051  0.00  0.00    +0.000 OA
BRANCH  20  21
ATOM     21  C   UNL     1       7.090   4.895  13.745  0.00  0.00    +0.000 C 
ATOM     22  C   UNL     1       6.118   3.729  13.655  0.00  0.00    +0.000 C 
ENDBRANCH  20  21
ENDBRANCH  18  20
ENDBRANCH   2  18
TORSDOF 7
ENDMDL
MODEL 5
REMARK VINA RESULT:      -7.2      1.752      4.150
REMARK  Name = 
REMARK  9 active torsions:
REMARK  status: ('A' for Active; 'I' for Inactive)
REMARK    1  A    between atoms: C_1  and  C_2
REMARK    2  A    between atoms: C_2  and  C_3
REMARK    3  A    between atoms: C_3  and  N_4
REMARK    4  A    between atoms: N_4  and  C_5
REMARK    5  A    between atoms: C_6  and  C_7
REMARK    6  A    between atoms: C_7  and  O_9
REMARK    7  A    between atoms: O_9  and  C_10
REMARK    8  A    between atoms: C_10  and  C_11
REMARK    9  A    between atoms: N_13  and  C_14
REMARK                            x       y       z     vdW  Elec       q    Type
REMARK                         _______ _______ _______ _____ _____    ______ ____
ROOT
ATOM      1  C   UNL     1       5.753   5.429  16.938  0.00  0.00    +0.000 C 
ATOM      2  C   UNL     1       6.356   5.713  18.088  0.00  0.00    +0.000 C 
ATOM      3  C   UNL     1       5.629   5.207  19.286  0.00  0.00    +0.000 C 
ATOM      4  N   UNL     1       4.465   4.564  18.708  0.00  0.00    +0.000 N 
ATOM      5  C   UNL     1       4.503   4.660  17.311  0.00  0.00    +0.000 C 
ATOM      6  O   UNL     1       3.733   4.248  16.465  0.00  0.00    +0.000 OA
ENDROOT
BRANCH   4   7
ATOM      7  C   UNL     1       3.375   4.064  19.485  0.00  0.00    +0.000 A 
ATOM      8  C   UNL     1       2.148   4.747  19.553  0.00  0.00    +0.000 A 
ATOM      9  C   UNL     1       1.136   4.353  20.438  0.00  0.00    +0.000 A 
ATOM     10  C   UNL     1       1.300   3.220  21.228  0.00  0.00    +0.000 A 
ATOM     11  C   UNL     1       2.478   2.485  21.126  0.00  0.00    +0.000 A 
ATOM     12  C   UNL     1       3.501   2.901  20.260  0.00  0.00    +0.000 A 
ENDBRANCH   4   7
BRANCH   1  13
ATOM     13  N   UNL     1       6.042   5.714  15.626  0.00  0.00    +0.000 N 
ATOM     14  H   UNL     1       5.234   6.078  15.120  0.00  0.00    +0.000 HD
BRANCH  13  15
ATOM     15  C   UNL     1       6.917   4.870  14.823  0.00  0.00    +0.000 C 
BRANCH  15  17
ATOM     16  C   UNL     1       6.547   3.776  12.603  0.00  0.00    +0.000 C 
ATOM     17  C   UNL     1       6.154   3.775  14.076  0.00  0.00    +0.000 C 
ENDBRANCH  15  17
ENDBRANCH  13  15
ENDBRANCH   1  13
BRANCH   2  18
ATOM     18  C   UNL     1       7.596   6.497  18.248  0.00  0.00    +0.000 C 
ATOM     19  O   UNL     1       8.377   6.284  19.162  0.00  0.00    +0.000 OA
BRANCH  18  20
ATOM     20  O   UNL     1       7.742   7.444  17.287  0.00  0.00    +0.000 OA
BRANCH  20  21
ATOM     21  C   UNL     1       7.380   8.792  17.608  0.00  0.00    +0.000 C 
ATOM     22  C   UNL     1       8.561   9.554  18.188  0.00  0.00    +0.000 C 
ENDBRANCH  20  21
ENDBRANCH  18  20
ENDBRANCH   2  18
TORSDOF 7
ENDMDL
MODEL 6
REMARK VINA RESULT:      -7.2      1.383      1.449
REMARK  Name = 
REMARK  9 active torsions:
REMARK  status: ('A' for Active; 'I' for Inactive)
REMARK    1  A    between atoms: C_1  and  C_2
REMARK    2  A    between atoms: C_2  and  C_3
REMARK    3  A    between atoms: C_3  and  N_4
REMARK    4  A    between atoms: N_4  and  C_5
REMARK    5  A    between atoms: C_6  and  C_7
REMARK    6  A    between atoms: C_7  and  O_9
REMARK    7  A    between atoms: O_9  and  C_10
REMARK    8  A    between atoms: C_10  and  C_11
REMARK    9  A    between atoms: N_13  and  C_14
REMARK                            x       y       z     vdW  Elec       q    Type
REMARK                         _______ _______ _______ _____ _____    ______ ____
ROOT
ATOM      1  C   UNL     1       5.462   6.046  17.055  0.00  0.00    +0.000 C 
ATOM      2  C   UNL     1       5.695   4.772  16.752  0.00  0.00    +0.000 C 
ATOM      3  C   UNL     1       4.637   3.839  17.229  0.00  0.00    +0.000 C 
ATOM      4  N   UNL     1       3.700   4.727  17.891  0.00  0.00    +0.000 N 
ATOM      5  C   UNL     1       4.144   6.053  17.801  0.00  0.00    +0.000 C 
ATOM      6  O   UNL     1       3.650   7.085  18.211  0.00  0.00    +0.000 OA
ENDROOT
BRANCH   4   7
ATOM      7  C   UNL     1       2.585   4.266  18.658  0.00  0.00    +0.000 A 
ATOM      8  C   UNL     1       2.355   4.724  19.966  0.00  0.00    +0.000 A 
ATOM      9  C   UNL     1       1.365   4.157  20.779  0.00  0.00    +0.000 A 
ATOM     10  C   UNL     1       0.532   3.163  20.276  0.00  0.00    +0.000 A 
ATOM     11  C   UNL     1       0.694   2.743  18.959  0.00  0.00    +0.000 A 
ATOM     12  C   UNL     1       1.706   3.293  18.159  0.00  0.00    +0.000 A 
ENDBRANCH   4   7
BRANCH   1  13
ATOM     13  N   UNL     1       6.161   7.209  16.844  0.00  0.00    +0.000 N 
ATOM     14  H   UNL     1       6.207   7.460  15.856  0.00  0.00    +0.000 HD
BRANCH  13  15
ATOM     15  C   UNL     1       7.361   7.542  17.600  0.00  0.00    +0.000 C 
BRANCH  15  17
ATOM     16  C   UNL     1       8.730   9.374  18.616  0.00  0.00    +0.000 C 
ATOM     17  C   UNL     1       7.689   9.035  17.555  0.00  0.00    +0.000 C 
ENDBRANCH  15  17
ENDBRANCH  13  15
ENDBRANCH   1  13
BRANCH   2  18
ATOM     18  C   UNL     1       6.890   4.249  16.061  0.00  0.00    +0.000 C 
ATOM     19  O   UNL     1       8.016   4.431  16.498  0.00  0.00    +0.000 OA
BRANCH  18  20
ATOM     20  O   UNL     1       6.580   3.572  14.927  0.00  0.00    +0.000 OA
BRANCH  20  21
ATOM     21  C   UNL     1       5.805   4.247  13.928  0.00  0.00    +0.000 C 
ATOM     22  C   UNL     1       5.826   3.488  12.611  0.00  0.00    +0.000 C 
ENDBRANCH  20  21
ENDBRANCH  18  20
ENDBRANCH   2  18
TORSDOF 7
ENDMDL
MODEL 7
REMARK VINA RESULT:      -7.2      1.725      4.312
REMARK  Name = 
REMARK  9 active torsions:
REMARK  status: ('A' for Active; 'I' for Inactive)
REMARK    1  A    between atoms: C_1  and  C_2
REMARK    2  A    between atoms: C_2  and  C_3
REMARK    3  A    between atoms: C_3  and  N_4
REMARK    4  A    between atoms: N_4  and  C_5
REMARK    5  A    between atoms: C_6  and  C_7
REMARK    6  A    between atoms: C_7  and  O_9
REMARK    7  A    between atoms: O_9  and  C_10
REMARK    8  A    between atoms: C_10  and  C_11
REMARK    9  A    between atoms: N_13  and  C_14
REMARK                            x       y       z     vdW  Elec       q    Type
REMARK                         _______ _______ _______ _____ _____    ______ ____
ROOT
ATOM      1  C   UNL     1       5.645   4.174  16.608  0.00  0.00    +0.000 C 
ATOM      2  C   UNL     1       5.989   5.243  17.319  0.00  0.00    +0.000 C 
ATOM      3  C   UNL     1       5.266   5.357  18.616  0.00  0.00    +0.000 C 
ATOM      4  N   UNL     1       4.403   4.192  18.606  0.00  0.00    +0.000 N 
ATOM      5  C   UNL     1       4.604   3.450  17.436  0.00  0.00    +0.000 C 
ATOM      6  O   UNL     1       4.093   2.416  17.053  0.00  0.00    +0.000 OA
ENDROOT
BRANCH   4   7
ATOM      7  C   UNL     1       3.388   3.955  19.585  0.00  0.00    +0.000 A 
ATOM      8  C   UNL     1       3.507   2.922  20.530  0.00  0.00    +0.000 A 
ATOM      9  C   UNL     1       2.449   2.580  21.382  0.00  0.00    +0.000 A 
ATOM     10  C   UNL     1       1.267   3.313  21.357  0.00  0.00    +0.000 A 
ATOM     11  C   UNL     1       1.152   4.387  20.480  0.00  0.00    +0.000 A 
ATOM     12  C   UNL     1       2.203   4.707  19.607  0.00  0.00    +0.000 A 
ENDBRANCH   4   7
BRANCH   1  13
ATOM     13  N   UNL     1       6.025   3.698  15.377  0.00  0.00    +0.000 N 
ATOM     14  H   UNL     1       7.029   3.523  15.320  0.00  0.00    +0.000 HD
BRANCH  13  15
ATOM     15  C   UNL     1       5.437   4.191  14.138  0.00  0.00    +0.000 C 
BRANCH  15  17
ATOM     16  C   UNL     1       5.061   3.233  11.858  0.00  0.00    +0.000 C 
ATOM     17  C   UNL     1       6.112   3.611  12.894  0.00  0.00    +0.000 C 
ENDBRANCH  15  17
ENDBRANCH  13  15
ENDBRANCH   1  13
BRANCH   2  18
ATOM     18  C   UNL     1       6.945   6.290  16.907  0.00  0.00    +0.000 C 
ATOM     19  O   UNL     1       7.649   6.163  15.917  0.00  0.00    +0.000 OA
BRANCH  18  20
ATOM     20  O   UNL     1       6.935   7.361  17.740  0.00  0.00    +0.000 OA
BRANCH  20  21
ATOM     21  C   UNL     1       8.186   7.812  18.274  0.00  0.00    +0.000 C 
ATOM     22  C   UNL     1       8.360   9.309  18.074  0.00  0.00    +0.000 C 
ENDBRANCH  20  21
ENDBRANCH  18  20
ENDBRANCH   2  18
TORSDOF 7
ENDMDL
MODEL 8
REMARK VINA RESULT:      -7.1      1.242      1.502
REMARK  Name = 
REMARK  9 active torsions:
REMARK  status: ('A' for Active; 'I' for Inactive)
REMARK    1  A    between atoms: C_1  and  C_2
REMARK    2  A    between atoms: C_2  and  C_3
REMARK    3  A    between atoms: C_3  and  N_4
REMARK    4  A    between atoms: N_4  and  C_5
REMARK    5  A    between atoms: C_6  and  C_7
REMARK    6  A    between atoms: C_7  and  O_9
REMARK    7  A    between atoms: O_9  and  C_10
REMARK    8  A    between atoms: C_10  and  C_11
REMARK    9  A    between atoms: N_13  and  C_14
REMARK                            x       y       z     vdW  Elec       q    Type
REMARK                         _______ _______ _______ _____ _____    ______ ____
ROOT
ATOM      1  C   UNL     1       5.414   6.149  16.651  0.00  0.00    +0.000 C 
ATOM      2  C   UNL     1       5.315   5.099  15.843  0.00  0.00    +0.000 C 
ATOM      3  C   UNL     1       4.201   4.176  16.194  0.00  0.00    +0.000 C 
ATOM      4  N   UNL     1       3.616   4.807  17.362  0.00  0.00    +0.000 N 
ATOM      5  C   UNL     1       4.298   5.993  17.662  0.00  0.00    +0.000 C 
ATOM      6  O   UNL     1       4.119   6.811  18.544  0.00  0.00    +0.000 OA
ENDROOT
BRANCH   4   7
ATOM      7  C   UNL     1       2.601   4.197  18.162  0.00  0.00    +0.000 A 
ATOM      8  C   UNL     1       2.061   4.848  19.284  0.00  0.00    +0.000 A 
ATOM      9  C   UNL     1       1.190   4.194  20.165  0.00  0.00    +0.000 A 
ATOM     10  C   UNL     1       0.782   2.890  19.904  0.00  0.00    +0.000 A 
ATOM     11  C   UNL     1       1.247   2.248  18.760  0.00  0.00    +0.000 A 
ATOM     12  C   UNL     1       2.143   2.897  17.897  0.00  0.00    +0.000 A 
ENDBRANCH   4   7
BRANCH   1  13
ATOM     13  N   UNL     1       6.284   7.210  16.717  0.00  0.00    +0.000 N 
ATOM     14  H   UNL     1       6.462   7.624  15.801  0.00  0.00    +0.000 HD
BRANCH  13  15
ATOM     15  C   UNL     1       7.438   7.215  17.606  0.00  0.00    +0.000 C 
BRANCH  15  17
ATOM     16  C   UNL     1       7.635   5.768  19.638  0.00  0.00    +0.000 C 
ATOM     17  C   UNL     1       7.788   5.818  18.122  0.00  0.00    +0.000 C 
ENDBRANCH  15  17
ENDBRANCH  13  15
ENDBRANCH   1  13
BRANCH   2  18
ATOM     18  C   UNL     1       6.217   4.780  14.718  0.00  0.00    +0.000 C 
ATOM     19  O   UNL     1       7.377   5.162  14.697  0.00  0.00    +0.000 OA
BRANCH  18  20
ATOM     20  O   UNL     1       5.610   4.040  13.757  0.00  0.00    +0.000 OA
BRANCH  20  21
ATOM     21  C   UNL     1       6.402   3.588  12.652  0.00  0.00    +0.000 C 
ATOM     22  C   UNL     1       5.612   2.644  11.760  0.00  0.00    +0.000 C 
ENDBRANCH  20  21
ENDBRANCH  18  20
ENDBRANCH   2  18
TORSDOF 7
ENDMDL
MODEL 9
REMARK VINA RESULT:      -7.0      1.398      1.669
REMARK  Name = 
REMARK  9 active torsions:
REMARK  status: ('A' for Active; 'I' for Inactive)
REMARK    1  A    between atoms: C_1  and  C_2
REMARK    2  A    between atoms: C_2  and  C_3
REMARK    3  A    between atoms: C_3  and  N_4
REMARK    4  A    between atoms: N_4  and  C_5
REMARK    5  A    between atoms: C_6  and  C_7
REMARK    6  A    between atoms: C_7  and  O_9
REMARK    7  A    between atoms: O_9  and  C_10
REMARK    8  A    between atoms: C_10  and  C_11
REMARK    9  A    between atoms: N_13  and  C_14
REMARK                            x       y       z     vdW  Elec       q    Type
REMARK                         _______ _______ _______ _____ _____    ______ ____
ROOT
ATOM      1  C   UNL     1       5.212   5.776  16.804  0.00  0.00    +0.000 C 
ATOM      2  C   UNL     1       5.141   4.608  16.174  0.00  0.00    +0.000 C 
ATOM      3  C   UNL     1       4.209   3.638  16.814  0.00  0.00    +0.000 C 
ATOM      4  N   UNL     1       3.708   4.380  17.956  0.00  0.00    +0.000 N 
ATOM      5  C   UNL     1       4.268   5.663  17.983  0.00  0.00    +0.000 C 
ATOM      6  O   UNL     1       4.105   6.585  18.758  0.00  0.00    +0.000 OA
ENDROOT
BRANCH   4   7
ATOM      7  C   UNL     1       2.894   3.798  18.977  0.00  0.00    +0.000 A 
ATOM      8  C   UNL     1       1.495   3.938  18.968  0.00  0.00    +0.000 A 
ATOM      9  C   UNL     1       0.707   3.515  20.046  0.00  0.00    +0.000 A 
ATOM     10  C   UNL     1       1.295   2.875  21.133  0.00  0.00    +0.000 A 
ATOM     11  C   UNL     1       2.670   2.661  21.132  0.00  0.00    +0.000 A 
ATOM     12  C   UNL     1       3.459   3.114  20.063  0.00  0.00    +0.000 A 
ENDBRANCH   4   7
BRANCH   1  13
ATOM     13  N   UNL     1       5.941   6.920  16.590  0.00  0.00    +0.000 N 
ATOM     14  H   UNL     1       5.609   7.446  15.781  0.00  0.00    +0.000 HD
BRANCH  13  15
ATOM     15  C   UNL     1       7.385   6.968  16.780  0.00  0.00    +0.000 C 
BRANCH  15  17
ATOM     16  C   UNL     1       7.938   6.010  19.024  0.00  0.00    +0.000 C 
ATOM     17  C   UNL     1       7.778   7.295  18.221  0.00  0.00    +0.000 C 
ENDBRANCH  15  17
ENDBRANCH  13  15
ENDBRANCH   1  13
BRANCH   2  18
ATOM     18  C   UNL     1       5.919   4.213  14.984  0.00  0.00    +0.000 C 
ATOM     19  O   UNL     1       7.120   3.996  15.044  0.00  0.00    +0.000 OA
BRANCH  18  20
ATOM     20  O   UNL     1       5.155   4.131  13.866  0.00  0.00    +0.000 OA
BRANCH  20  21
ATOM     21  C   UNL     1       5.736   3.549  12.693  0.00  0.00    +0.000 C 
ATOM     22  C   UNL     1       4.669   3.197  11.668  0.00  0.00    +0.000 C 
ENDBRANCH  20  21
ENDBRANCH  18  20
ENDBRANCH   2  18
TORSDOF 7
ENDMDL
