MODEL 1
REMARK VINA RESULT:      -7.7      0.000      0.000
REMARK  Name = 
REMARK  13 active torsions:
REMARK  status: ('A' for Active; 'I' for Inactive)
REMARK    1  A    between atoms: C_2  and  C_3
REMARK    2  A    between atoms: C_3  and  N_4
REMARK    3  A    between atoms: N_4  and  C_5
REMARK    4  A    between atoms: N_4  and  C_15
REMARK    5  A    between atoms: C_5  and  C_6
REMARK    6  A    between atoms: C_6  and  C_7
REMARK    7  A    between atoms: C_7  and  O_8
REMARK    8  A    between atoms: O_8  and  C_9
REMARK    9  A    between atoms: C_15  and  C_16
REMARK   10  A    between atoms: C_16  and  O_17
REMARK   11  A    between atoms: C_16  and  C_18
REMARK   12  A    between atoms: C_16  and  C_24
REMARK   13  A    between atoms: C_18  and  N_19
REMARK                            x       y       z     vdW  Elec       q    Type
REMARK                         _______ _______ _______ _____ _____    ______ ____
ROOT
ATOM      1  C   UNL     1       3.331   6.295  18.206  0.00  0.00    +0.000 C 
ENDROOT
BRANCH   1   2
ATOM      2  C   UNL     1       2.472   7.516  18.551  0.00  0.00    +0.000 A 
ATOM      3  C   UNL     1       2.343   8.628  17.703  0.00  0.00    +0.000 A 
ATOM      4  C   UNL     1       1.692   9.790  18.128  0.00  0.00    +0.000 A 
ATOM      5  C   UNL     1       1.163   9.855  19.408  0.00  0.00    +0.000 A 
ATOM      6  F   UNL     1       0.603  10.993  19.837  0.00  0.00    +0.000 F 
ATOM      7  C   UNL     1       1.225   8.763  20.255  0.00  0.00    +0.000 A 
ATOM      8  C   UNL     1       1.851   7.602  19.812  0.00  0.00    +0.000 A 
ATOM      9  F   UNL     1       1.935   6.578  20.675  0.00  0.00    +0.000 F 
ENDBRANCH   1   2
BRANCH   1  10
ATOM     10  O   UNL     1       2.416   5.270  17.767  0.00  0.00    +0.000 OA
ATOM     11  H   UNL     1       2.817   4.401  17.931  0.00  0.00    +0.000 HD
ENDBRANCH   1  10
BRANCH   1  12
ATOM     12  C   UNL     1       4.442   6.519  17.089  0.00  0.00    +0.000 C 
BRANCH  12  13
ATOM     13  N   UNL     1       5.553   5.558  16.941  0.00  0.00    +0.000 NA
BRANCH  13  14
ATOM     14  C   UNL     1       5.228   4.447  16.021  0.00  0.00    +0.000 C 
BRANCH  14  16
ATOM     15  C   UNL     1       6.922   4.643  13.771  0.00  0.00    +0.000 C 
ATOM     16  C   UNL     1       6.139   4.553  14.809  0.00  0.00    +0.000 C 
ENDBRANCH  14  16
ENDBRANCH  13  14
BRANCH  13  17
ATOM     17  C   UNL     1       6.919   6.089  16.820  0.00  0.00    +0.000 C 
BRANCH  17  18
ATOM     18  C   UNL     1       7.561   6.811  18.011  0.00  0.00    +0.000 C 
BRANCH  18  19
ATOM     19  C   UNL     1       7.911   8.266  17.766  0.00  0.00    +0.000 C 
BRANCH  19  20
ATOM     20  O   UNL     1       8.795   8.714  18.795  0.00  0.00    +0.000 OA
BRANCH  20  21
ATOM     21  C   UNL     1       8.984  10.067  18.842  0.00  0.00    +0.000 A 
ATOM     22  C   UNL     1       9.517  10.548  20.039  0.00  0.00    +0.000 A 
ATOM     23  C   UNL     1       9.795  11.903  20.194  0.00  0.00    +0.000 A 
ATOM     24  C   UNL     1       9.544  12.790  19.145  0.00  0.00    +0.000 A 
ATOM     25  C   UNL     1       9.019  12.319  17.947  0.00  0.00    +0.000 A 
ATOM     26  C   UNL     1       8.742  10.957  17.793  0.00  0.00    +0.000 A 
ENDBRANCH  20  21
ENDBRANCH  19  20
ENDBRANCH  18  19
ENDBRANCH  17  18
ENDBRANCH  13  17
ENDBRANCH  12  13
ENDBRANCH   1  12
BRANCH   1  27
ATOM     27  C   UNL     1       4.027   5.734  19.487  0.00  0.00    +0.000 C 
BRANCH  27  28
ATOM     28  N   UNL     1       3.855   4.319  19.683  0.00  0.00    +0.000 N 
ATOM     29  C   UNL     1       4.734   3.319  19.410  0.00  0.00    +0.000 A 
ATOM     30  N   UNL     1       4.156   2.162  19.626  0.00  0.00    +0.000 NA
ATOM     31  C   UNL     1       2.913   2.516  20.067  0.00  0.00    +0.000 A 
ATOM     32  N   UNL     1       2.693   3.831  20.149  0.00  0.00    +0.000 NA
ENDBRANCH  27  28
ENDBRANCH   1  27
TORSDOF 13
ENDMDL
MODEL 2
REMARK VINA RESULT:      -7.5      1.213      1.758
REMARK  Name = 
REMARK  13 active torsions:
REMARK  status: ('A' for Active; 'I' for Inactive)
REMARK    1  A    between atoms: C_2  and  C_3
REMARK    2  A    between atoms: C_3  and  N_4
REMARK    3  A    between atoms: N_4  and  C_5
REMARK    4  A    between atoms: N_4  and  C_15
REMARK    5  A    between atoms: C_5  and  C_6
REMARK    6  A    between atoms: C_6  and  C_7
REMARK    7  A    between atoms: C_7  and  O_8
REMARK    8  A    between atoms: O_8  and  C_9
REMARK    9  A    between atoms: C_15  and  C_16
REMARK   10  A    between atoms: C_16  and  O_17
REMARK   11  A    between atoms: C_16  and  C_18
REMARK   12  A    between atoms: C_16  and  C_24
REMARK   13  A    between atoms: C_18  and  N_19
REMARK                            x       y       z     vdW  Elec       q    Type
REMARK                         _______ _______ _______ _____ _____    ______ ____
ROOT
ATOM      1  C   UNL     1       2.962   6.632  18.529  0.00  0.00    +0.000 C 
ENDROOT
BRANCH   1   2
ATOM      2  C   UNL     1       2.150   7.662  19.319  0.00  0.00    +0.000 A 
ATOM      3  C   UNL     1       1.764   7.473  20.657  0.00  0.00    +0.000 A 
ATOM      4  C   UNL     1       0.880   8.355  21.287  0.00  0.00    +0.000 A 
ATOM      5  C   UNL     1       0.369   9.436  20.586  0.00  0.00    +0.000 A 
ATOM      6  F   UNL     1      -0.531  10.238  21.168  0.00  0.00    +0.000 F 
ATOM      7  C   UNL     1       0.765   9.685  19.284  0.00  0.00    +0.000 A 
ATOM      8  C   UNL     1       1.666   8.817  18.675  0.00  0.00    +0.000 A 
ATOM      9  F   UNL     1       1.992   9.061  17.397  0.00  0.00    +0.000 F 
ENDBRANCH   1   2
BRANCH   1  10
ATOM     10  O   UNL     1       2.007   5.860  17.772  0.00  0.00    +0.000 OA
ATOM     11  H   UNL     1       2.275   4.927  17.789  0.00  0.00    +0.000 HD
ENDBRANCH   1  10
BRANCH   1  12
ATOM     12  C   UNL     1       4.062   7.220  17.541  0.00  0.00    +0.000 C 
BRANCH  12  13
ATOM     13  N   UNL     1       5.199   6.384  17.109  0.00  0.00    +0.000 NA
BRANCH  13  14
ATOM     14  C   UNL     1       5.303   6.279  15.637  0.00  0.00    +0.000 C 
BRANCH  14  16
ATOM     15  C   UNL     1       6.041   3.631  14.993  0.00  0.00    +0.000 C 
ATOM     16  C   UNL     1       5.700   4.853  15.291  0.00  0.00    +0.000 C 
ENDBRANCH  14  16
ENDBRANCH  13  14
BRANCH  13  17
ATOM     17  C   UNL     1       6.479   6.534  17.816  0.00  0.00    +0.000 C 
BRANCH  17  18
ATOM     18  C   UNL     1       7.576   7.423  17.217  0.00  0.00    +0.000 C 
BRANCH  18  19
ATOM     19  C   UNL     1       8.270   8.339  18.209  0.00  0.00    +0.000 C 
BRANCH  19  20
ATOM     20  O   UNL     1       8.440   9.627  17.615  0.00  0.00    +0.000 OA
BRANCH  20  21
ATOM     21  C   UNL     1       8.964  10.578  18.445  0.00  0.00    +0.000 A 
ATOM     22  C   UNL     1       8.935  11.881  17.944  0.00  0.00    +0.000 A 
ATOM     23  C   UNL     1       9.400  12.943  18.713  0.00  0.00    +0.000 A 
ATOM     24  C   UNL     1       9.898  12.709  19.997  0.00  0.00    +0.000 A 
ATOM     25  C   UNL     1       9.925  11.416  20.506  0.00  0.00    +0.000 A 
ATOM     26  C   UNL     1       9.455  10.350  19.732  0.00  0.00    +0.000 A 
ENDBRANCH  20  21
ENDBRANCH  19  20
ENDBRANCH  18  19
ENDBRANCH  17  18
ENDBRANCH  13  17
ENDBRANCH  12  13
ENDBRANCH   1  12
BRANCH   1  27
ATOM     27  C   UNL     1       3.661   5.625  19.498  0.00  0.00    +0.000 C 
BRANCH  27  28
ATOM     28  N   UNL     1       3.367   4.242  19.229  0.00  0.00    +0.000 N 
ATOM     29  C   UNL     1       4.131   3.333  18.569  0.00  0.00    +0.000 A 
ATOM     30  N   UNL     1       3.458   2.214  18.437  0.00  0.00    +0.000 NA
ATOM     31  C   UNL     1       2.281   2.487  19.073  0.00  0.00    +0.000 A 
ATOM     32  N   UNL     1       2.191   3.710  19.603  0.00  0.00    +0.000 NA
ENDBRANCH  27  28
ENDBRANCH   1  27
TORSDOF 13
ENDMDL
MODEL 3
REMARK VINA RESULT:      -7.4      0.719      1.093
REMARK  Name = 
REMARK  13 active torsions:
REMARK  status: ('A' for Active; 'I' for Inactive)
REMARK    1  A    between atoms: C_2  and  C_3
REMARK    2  A    between atoms: C_3  and  N_4
REMARK    3  A    between atoms: N_4  and  C_5
REMARK    4  A    between atoms: N_4  and  C_15
REMARK    5  A    between atoms: C_5  and  C_6
REMARK    6  A    between atoms: C_6  and  C_7
REMARK    7  A    between atoms: C_7  and  O_8
REMARK    8  A    between atoms: O_8  and  C_9
REMARK    9  A    between atoms: C_15  and  C_16
REMARK   10  A    between atoms: C_16  and  O_17
REMARK   11  A    between atoms: C_16  and  C_18
REMARK   12  A    between atoms: C_16  and  C_24
REMARK   13  A    between atoms: C_18  and  N_19
REMARK                            x       y       z     vdW  Elec       q    Type
REMARK                         _______ _______ _______ _____ _____    ______ ____
ROOT
ATOM      1  C   UNL     1       3.510   6.010  18.166  0.00  0.00    +0.000 C 
ENDROOT
BRANCH   1   2
ATOM      2  C   UNL     1       2.640   7.228  18.489  0.00  0.00    +0.000 A 
ATOM      3  C   UNL     1       2.510   8.329  17.626  0.00  0.00    +0.000 A 
ATOM      4  C   UNL     1       1.847   9.492  18.032  0.00  0.00    +0.000 A 
ATOM      5  C   UNL     1       1.308   9.569  19.307  0.00  0.00    +0.000 A 
ATOM      6  F   UNL     1       0.737  10.708  19.717  0.00  0.00    +0.000 F 
ATOM      7  C   UNL     1       1.371   8.488  20.167  0.00  0.00    +0.000 A 
ATOM      8  C   UNL     1       2.009   7.326  19.744  0.00  0.00    +0.000 A 
ATOM      9  F   UNL     1       2.093   6.313  20.620  0.00  0.00    +0.000 F 
ENDBRANCH   1   2
BRANCH   1  10
ATOM     10  O   UNL     1       2.603   4.957  17.781  0.00  0.00    +0.000 OA
ATOM     11  H   UNL     1       2.966   4.106  18.075  0.00  0.00    +0.000 HD
ENDBRANCH   1  10
BRANCH   1  12
ATOM     12  C   UNL     1       4.594   6.213  17.019  0.00  0.00    +0.000 C 
BRANCH  12  13
ATOM     13  N   UNL     1       6.006   5.853  17.256  0.00  0.00    +0.000 NA
BRANCH  13  14
ATOM     14  C   UNL     1       6.323   4.472  16.829  0.00  0.00    +0.000 C 
BRANCH  14  16
ATOM     15  C   UNL     1       5.663   4.224  14.095  0.00  0.00    +0.000 C 
ATOM     16  C   UNL     1       5.968   4.339  15.358  0.00  0.00    +0.000 C 
ENDBRANCH  14  16
ENDBRANCH  13  14
BRANCH  13  17
ATOM     17  C   UNL     1       7.038   6.853  16.950  0.00  0.00    +0.000 C 
BRANCH  17  18
ATOM     18  C   UNL     1       7.792   7.542  18.095  0.00  0.00    +0.000 C 
BRANCH  18  19
ATOM     19  C   UNL     1       8.040   9.025  17.896  0.00  0.00    +0.000 C 
BRANCH  19  20
ATOM     20  O   UNL     1       8.896   9.498  18.938  0.00  0.00    +0.000 OA
BRANCH  20  21
ATOM     21  C   UNL     1       9.468  10.718  18.703  0.00  0.00    +0.000 A 
ATOM     22  C   UNL     1       8.722  11.574  17.891  0.00  0.00    +0.000 A 
ATOM     23  C   UNL     1       9.178  12.859  17.613  0.00  0.00    +0.000 A 
ATOM     24  C   UNL     1      10.389  13.300  18.153  0.00  0.00    +0.000 A 
ATOM     25  C   UNL     1      11.135  12.457  18.967  0.00  0.00    +0.000 A 
ATOM     26  C   UNL     1      10.674  11.167  19.246  0.00  0.00    +0.000 A 
ENDBRANCH  20  21
ENDBRANCH  19  20
ENDBRANCH  18  19
ENDBRANCH  17  18
ENDBRANCH  13  17
ENDBRANCH  12  13
ENDBRANCH   1  12
BRANCH   1  27
ATOM     27  C   UNL     1       4.242   5.502  19.450  0.00  0.00    +0.000 C 
BRANCH  27  28
ATOM     28  N   UNL     1       4.021   4.112  19.747  0.00  0.00    +0.000 N 
ATOM     29  C   UNL     1       4.845   3.059  19.503  0.00  0.00    +0.000 A 
ATOM     30  N   UNL     1       4.230   1.944  19.820  0.00  0.00    +0.000 NA
ATOM     31  C   UNL     1       3.025   2.381  20.290  0.00  0.00    +0.000 A 
ATOM     32  N   UNL     1       2.862   3.706  20.293  0.00  0.00    +0.000 NA
ENDBRANCH  27  28
ENDBRANCH   1  27
TORSDOF 13
ENDMDL
MODEL 4
REMARK VINA RESULT:      -7.3      1.046      1.695
REMARK  Name = 
REMARK  13 active torsions:
REMARK  status: ('A' for Active; 'I' for Inactive)
REMARK    1  A    between atoms: C_2  and  C_3
REMARK    2  A    between atoms: C_3  and  N_4
REMARK    3  A    between atoms: N_4  and  C_5
REMARK    4  A    between atoms: N_4  and  C_15
REMARK    5  A    between atoms: C_5  and  C_6
REMARK    6  A    between atoms: C_6  and  C_7
REMARK    7  A    between atoms: C_7  and  O_8
REMARK    8  A    between atoms: O_8  and  C_9
REMARK    9  A    between atoms: C_15  and  C_16
REMARK   10  A    between atoms: C_16  and  O_17
REMARK   11  A    between atoms: C_16  and  C_18
REMARK   12  A    between atoms: C_16  and  C_24
REMARK   13  A    between atoms: C_18  and  N_19
REMARK                            x       y       z     vdW  Elec       q    Type
REMARK                         _______ _______ _______ _____ _____    ______ ____
ROOT
ATOM      1  C   UNL     1       3.226   6.343  18.516  0.00  0.00    +0.000 C 
ENDROOT
BRANCH   1   2
ATOM      2  C   UNL     1       2.443   7.485  19.169  0.00  0.00    +0.000 A 
ATOM      3  C   UNL     1       2.000   7.449  20.503  0.00  0.00    +0.000 A 
ATOM      4  C   UNL     1       1.144   8.432  21.007  0.00  0.00    +0.000 A 
ATOM      5  C   UNL     1       0.716   9.463  20.184  0.00  0.00    +0.000 A 
ATOM      6  F   UNL     1      -0.159  10.362  20.649  0.00  0.00    +0.000 F 
ATOM      7  C   UNL     1       1.170   9.562  18.882  0.00  0.00    +0.000 A 
ATOM      8  C   UNL     1       2.044   8.593  18.397  0.00  0.00    +0.000 A 
ATOM      9  F   UNL     1       2.427   8.693  17.115  0.00  0.00    +0.000 F 
ENDBRANCH   1   2
BRANCH   1  10
ATOM     10  O   UNL     1       2.254   5.527  17.830  0.00  0.00    +0.000 OA
ATOM     11  H   UNL     1       2.630   5.234  16.985  0.00  0.00    +0.000 HD
ENDBRANCH   1  10
BRANCH   1  12
ATOM     12  C   UNL     1       4.365   6.774  17.492  0.00  0.00    +0.000 C 
BRANCH  12  13
ATOM     13  N   UNL     1       5.443   5.831  17.136  0.00  0.00    +0.000 NA
BRANCH  13  14
ATOM     14  C   UNL     1       5.040   4.875  16.082  0.00  0.00    +0.000 C 
BRANCH  14  16
ATOM     15  C   UNL     1       7.083   4.805  14.134  0.00  0.00    +0.000 C 
ATOM     16  C   UNL     1       6.139   4.837  15.033  0.00  0.00    +0.000 C 
ENDBRANCH  14  16
ENDBRANCH  13  14
BRANCH  13  17
ATOM     17  C   UNL     1       6.811   6.355  17.014  0.00  0.00    +0.000 C 
BRANCH  17  18
ATOM     18  C   UNL     1       7.413   7.179  18.160  0.00  0.00    +0.000 C 
BRANCH  18  19
ATOM     19  C   UNL     1       7.766   8.611  17.802  0.00  0.00    +0.000 C 
BRANCH  19  20
ATOM     20  O   UNL     1       8.990   8.965  18.448  0.00  0.00    +0.000 OA
BRANCH  20  21
ATOM     21  C   UNL     1       9.067  10.266  18.861  0.00  0.00    +0.000 A 
ATOM     22  C   UNL     1       8.794  11.216  17.875  0.00  0.00    +0.000 A 
ATOM     23  C   UNL     1       8.798  12.573  18.183  0.00  0.00    +0.000 A 
ATOM     24  C   UNL     1       9.075  12.991  19.487  0.00  0.00    +0.000 A 
ATOM     25  C   UNL     1       9.342  12.052  20.476  0.00  0.00    +0.000 A 
ATOM     26  C   UNL     1       9.335  10.689  20.165  0.00  0.00    +0.000 A 
ENDBRANCH  20  21
ENDBRANCH  19  20
ENDBRANCH  18  19
ENDBRANCH  17  18
ENDBRANCH  13  17
ENDBRANCH  12  13
ENDBRANCH   1  12
BRANCH   1  27
ATOM     27  C   UNL     1       3.868   5.425  19.606  0.00  0.00    +0.000 C 
BRANCH  27  28
ATOM     28  N   UNL     1       3.182   4.175  19.807  0.00  0.00    +0.000 N 
ATOM     29  C   UNL     1       2.314   3.842  20.798  0.00  0.00    +0.000 A 
ATOM     30  N   UNL     1       1.998   2.573  20.689  0.00  0.00    +0.000 NA
ATOM     31  C   UNL     1       2.686   2.179  19.578  0.00  0.00    +0.000 A 
ATOM     32  N   UNL     1       3.403   3.136  18.983  0.00  0.00    +0.000 NA
ENDBRANCH  27  28
ENDBRANCH   1  27
TORSDOF 13
ENDMDL
MODEL 5
REMARK VINA RESULT:      -7.3      3.403      7.138
REMARK  Name = 
REMARK  13 active torsions:
REMARK  status: ('A' for Active; 'I' for Inactive)
REMARK    1  A    between atoms: C_2  and  C_3
REMARK    2  A    between atoms: C_3  and  N_4
REMARK    3  A    between atoms: N_4  and  C_5
REMARK    4  A    between atoms: N_4  and  C_15
REMARK    5  A    between atoms: C_5  and  C_6
REMARK    6  A    between atoms: C_6  and  C_7
REMARK    7  A    between atoms: C_7  and  O_8
REMARK    8  A    between atoms: O_8  and  C_9
REMARK    9  A    between atoms: C_15  and  C_16
REMARK   10  A    between atoms: C_16  and  O_17
REMARK   11  A    between atoms: C_16  and  C_18
REMARK   12  A    between atoms: C_16  and  C_24
REMARK   13  A    between atoms: C_18  and  N_19
REMARK                            x       y       z     vdW  Elec       q    Type
REMARK                         _______ _______ _______ _____ _____    ______ ____
ROOT
ATOM      1  C   UNL     1       5.309   4.195  16.493  0.00  0.00    +0.000 C 
ENDROOT
BRANCH   1   2
ATOM      2  C   UNL     1       6.353   5.137  17.098  0.00  0.00    +0.000 A 
ATOM      3  C   UNL     1       7.276   4.732  18.078  0.00  0.00    +0.000 A 
ATOM      4  C   UNL     1       8.095   5.661  18.727  0.00  0.00    +0.000 A 
ATOM      5  C   UNL     1       8.002   7.006  18.405  0.00  0.00    +0.000 A 
ATOM      6  F   UNL     1       8.737   7.901  19.077  0.00  0.00    +0.000 F 
ATOM      7  C   UNL     1       7.144   7.437  17.410  0.00  0.00    +0.000 A 
ATOM      8  C   UNL     1       6.352   6.501  16.751  0.00  0.00    +0.000 A 
ATOM      9  F   UNL     1       5.497   6.959  15.824  0.00  0.00    +0.000 F 
ENDBRANCH   1   2
BRANCH   1  10
ATOM     10  O   UNL     1       5.996   2.959  16.208  0.00  0.00    +0.000 OA
ATOM     11  H   UNL     1       6.921   3.157  15.988  0.00  0.00    +0.000 HD
ENDBRANCH   1  10
BRANCH   1  12
ATOM     12  C   UNL     1       4.037   3.890  17.399  0.00  0.00    +0.000 C 
BRANCH  12  13
ATOM     13  N   UNL     1       2.973   4.901  17.553  0.00  0.00    +0.000 NA
BRANCH  13  14
ATOM     14  C   UNL     1       1.624   4.300  17.645  0.00  0.00    +0.000 C 
BRANCH  14  16
ATOM     15  C   UNL     1       1.098   3.731  20.360  0.00  0.00    +0.000 C 
ATOM     16  C   UNL     1       1.341   3.993  19.106  0.00  0.00    +0.000 C 
ENDBRANCH  14  16
ENDBRANCH  13  14
BRANCH  13  17
ATOM     17  C   UNL     1       3.216   6.031  18.461  0.00  0.00    +0.000 C 
BRANCH  17  18
ATOM     18  C   UNL     1       3.012   7.466  17.958  0.00  0.00    +0.000 C 
BRANCH  18  19
ATOM     19  C   UNL     1       1.977   8.271  18.722  0.00  0.00    +0.000 C 
BRANCH  19  20
ATOM     20  O   UNL     1       1.501   9.329  17.888  0.00  0.00    +0.000 OA
BRANCH  20  21
ATOM     21  C   UNL     1       0.501  10.086  18.434  0.00  0.00    +0.000 A 
ATOM     22  C   UNL     1      -0.740   9.966  17.808  0.00  0.00    +0.000 A 
ATOM     23  C   UNL     1      -1.847  10.654  18.298  0.00  0.00    +0.000 A 
ATOM     24  C   UNL     1      -1.718  11.469  19.426  0.00  0.00    +0.000 A 
ATOM     25  C   UNL     1      -0.486  11.589  20.058  0.00  0.00    +0.000 A 
ATOM     26  C   UNL     1       0.624  10.896  19.566  0.00  0.00    +0.000 A 
ENDBRANCH  20  21
ENDBRANCH  19  20
ENDBRANCH  18  19
ENDBRANCH  17  18
ENDBRANCH  13  17
ENDBRANCH  12  13
ENDBRANCH   1  12
BRANCH   1  27
ATOM     27  C   UNL     1       4.811   4.739  15.115  0.00  0.00    +0.000 C 
BRANCH  27  28
ATOM     28  N   UNL     1       5.584   4.292  13.987  0.00  0.00    +0.000 N 
ATOM     29  C   UNL     1       6.823   4.698  13.603  0.00  0.00    +0.000 A 
ATOM     30  N   UNL     1       7.130   4.133  12.459  0.00  0.00    +0.000 NA
ATOM     31  C   UNL     1       6.040   3.354  12.199  0.00  0.00    +0.000 A 
ATOM     32  N   UNL     1       5.077   3.395  13.124  0.00  0.00    +0.000 NA
ENDBRANCH  27  28
ENDBRANCH   1  27
TORSDOF 13
ENDMDL
MODEL 6
REMARK VINA RESULT:      -7.2      3.259      6.945
REMARK  Name = 
REMARK  13 active torsions:
REMARK  status: ('A' for Active; 'I' for Inactive)
REMARK    1  A    between atoms: C_2  and  C_3
REMARK    2  A    between atoms: C_3  and  N_4
REMARK    3  A    between atoms: N_4  and  C_5
REMARK    4  A    between atoms: N_4  and  C_15
REMARK    5  A    between atoms: C_5  and  C_6
REMARK    6  A    between atoms: C_6  and  C_7
REMARK    7  A    between atoms: C_7  and  O_8
REMARK    8  A    between atoms: O_8  and  C_9
REMARK    9  A    between atoms: C_15  and  C_16
REMARK   10  A    between atoms: C_16  and  O_17
REMARK   11  A    between atoms: C_16  and  C_18
REMARK   12  A    between atoms: C_16  and  C_24
REMARK   13  A    between atoms: C_18  and  N_19
REMARK                            x       y       z     vdW  Elec       q    Type
REMARK                         _______ _______ _______ _____ _____    ______ ____
ROOT
ATOM      1  C   UNL     1       5.330   4.430  16.740  0.00  0.00    +0.000 C 
ENDROOT
BRANCH   1   2
ATOM      2  C   UNL     1       6.391   5.403  17.265  0.00  0.00    +0.000 A 
ATOM      3  C   UNL     1       7.368   5.038  18.206  0.00  0.00    +0.000 A 
ATOM      4  C   UNL     1       8.206   5.995  18.787  0.00  0.00    +0.000 A 
ATOM      5  C   UNL     1       8.077   7.330  18.435  0.00  0.00    +0.000 A 
ATOM      6  F   UNL     1       8.831   8.252  19.044  0.00  0.00    +0.000 F 
ATOM      7  C   UNL     1       7.162   7.721  17.474  0.00  0.00    +0.000 A 
ATOM      8  C   UNL     1       6.351   6.757  16.883  0.00  0.00    +0.000 A 
ATOM      9  F   UNL     1       5.442   7.178  15.989  0.00  0.00    +0.000 F 
ENDBRANCH   1   2
BRANCH   1  10
ATOM     10  O   UNL     1       6.009   3.178  16.512  0.00  0.00    +0.000 OA
ATOM     11  H   UNL     1       6.453   3.214  15.650  0.00  0.00    +0.000 HD
ENDBRANCH   1  10
BRANCH   1  12
ATOM     12  C   UNL     1       4.080   4.183  17.692  0.00  0.00    +0.000 C 
BRANCH  12  13
ATOM     13  N   UNL     1       2.903   5.071  17.623  0.00  0.00    +0.000 NA
BRANCH  13  14
ATOM     14  C   UNL     1       1.625   4.337  17.749  0.00  0.00    +0.000 C 
BRANCH  14  16
ATOM     15  C   UNL     1       1.092   3.966  20.496  0.00  0.00    +0.000 C 
ATOM     16  C   UNL     1       1.338   4.137  19.227  0.00  0.00    +0.000 C 
ENDBRANCH  14  16
ENDBRANCH  13  14
BRANCH  13  17
ATOM     17  C   UNL     1       2.959   6.354  18.339  0.00  0.00    +0.000 C 
BRANCH  17  18
ATOM     18  C   UNL     1       2.578   7.648  17.609  0.00  0.00    +0.000 C 
BRANCH  18  19
ATOM     19  C   UNL     1       2.074   8.764  18.504  0.00  0.00    +0.000 C 
BRANCH  19  20
ATOM     20  O   UNL     1       1.769   8.226  19.792  0.00  0.00    +0.000 OA
BRANCH  20  21
ATOM     21  C   UNL     1       0.985   9.026  20.578  0.00  0.00    +0.000 A 
ATOM     22  C   UNL     1       0.360   8.376  21.644  0.00  0.00    +0.000 A 
ATOM     23  C   UNL     1      -0.430   9.090  22.540  0.00  0.00    +0.000 A 
ATOM     24  C   UNL     1      -0.598  10.467  22.376  0.00  0.00    +0.000 A 
ATOM     25  C   UNL     1       0.025  11.123  21.321  0.00  0.00    +0.000 A 
ATOM     26  C   UNL     1       0.820  10.404  20.423  0.00  0.00    +0.000 A 
ENDBRANCH  20  21
ENDBRANCH  19  20
ENDBRANCH  18  19
ENDBRANCH  17  18
ENDBRANCH  13  17
ENDBRANCH  12  13
ENDBRANCH   1  12
BRANCH   1  27
ATOM     27  C   UNL     1       4.801   4.896  15.345  0.00  0.00    +0.000 C 
BRANCH  27  28
ATOM     28  N   UNL     1       5.574   4.419  14.229  0.00  0.00    +0.000 N 
ATOM     29  C   UNL     1       6.822   4.798  13.847  0.00  0.00    +0.000 A 
ATOM     30  N   UNL     1       7.126   4.210  12.714  0.00  0.00    +0.000 NA
ATOM     31  C   UNL     1       6.025   3.445  12.459  0.00  0.00    +0.000 A 
ATOM     32  N   UNL     1       5.058   3.516  13.378  0.00  0.00    +0.000 NA
ENDBRANCH  27  28
ENDBRANCH   1  27
TORSDOF 13
ENDMDL
MODEL 7
REMARK VINA RESULT:      -7.2      3.976      7.422
REMARK  Name = 
REMARK  13 active torsions:
REMARK  status: ('A' for Active; 'I' for Inactive)
REMARK    1  A    between atoms: C_2  and  C_3
REMARK    2  A    between atoms: C_3  and  N_4
REMARK    3  A    between atoms: N_4  and  C_5
REMARK    4  A    between atoms: N_4  and  C_15
REMARK    5  A    between atoms: C_5  and  C_6
REMARK    6  A    between atoms: C_6  and  C_7
REMARK    7  A    between atoms: C_7  and  O_8
REMARK    8  A    between atoms: O_8  and  C_9
REMARK    9  A    between atoms: C_15  and  C_16
REMARK   10  A    between atoms: C_16  and  O_17
REMARK   11  A    between atoms: C_16  and  C_18
REMARK   12  A    between atoms: C_16  and  C_24
REMARK   13  A    between atoms: C_18  and  N_19
REMARK                            x       y       z     vdW  Elec       q    Type
REMARK                         _______ _______ _______ _____ _____    ______ ____
ROOT
ATOM      1  C   UNL     1       3.710   4.564  17.944  0.00  0.00    +0.000 C 
ENDROOT
BRANCH   1   2
ATOM      2  C   UNL     1       2.907   4.100  19.162  0.00  0.00    +0.000 A 
ATOM      3  C   UNL     1       3.501   3.764  20.391  0.00  0.00    +0.000 A 
ATOM      4  C   UNL     1       2.754   3.182  21.420  0.00  0.00    +0.000 A 
ATOM      5  C   UNL     1       1.404   2.927  21.233  0.00  0.00    +0.000 A 
ATOM      6  F   UNL     1       0.708   2.306  22.193  0.00  0.00    +0.000 F 
ATOM      7  C   UNL     1       0.772   3.291  20.057  0.00  0.00    +0.000 A 
ATOM      8  C   UNL     1       1.519   3.894  19.050  0.00  0.00    +0.000 A 
ATOM      9  F   UNL     1       0.885   4.191  17.905  0.00  0.00    +0.000 F 
ENDBRANCH   1   2
BRANCH   1  10
ATOM     10  O   UNL     1       3.241   3.780  16.828  0.00  0.00    +0.000 OA
ATOM     11  H   UNL     1       2.320   4.022  16.640  0.00  0.00    +0.000 HD
ENDBRANCH   1  10
BRANCH   1  12
ATOM     12  C   UNL     1       3.598   6.110  17.582  0.00  0.00    +0.000 C 
BRANCH  12  13
ATOM     13  N   UNL     1       2.595   6.960  18.251  0.00  0.00    +0.000 NA
BRANCH  13  14
ATOM     14  C   UNL     1       2.984   7.326  19.630  0.00  0.00    +0.000 C 
BRANCH  14  16
ATOM     15  C   UNL     1       0.635   7.518  21.185  0.00  0.00    +0.000 C 
ATOM     16  C   UNL     1       1.720   7.429  20.468  0.00  0.00    +0.000 C 
ENDBRANCH  14  16
ENDBRANCH  13  14
BRANCH  13  17
ATOM     17  C   UNL     1       1.970   8.039  17.472  0.00  0.00    +0.000 C 
BRANCH  17  18
ATOM     18  C   UNL     1       2.172   9.499  17.899  0.00  0.00    +0.000 C 
BRANCH  18  19
ATOM     19  C   UNL     1       0.901  10.241  18.264  0.00  0.00    +0.000 C 
BRANCH  19  20
ATOM     20  O   UNL     1      -0.224   9.407  17.981  0.00  0.00    +0.000 OA
BRANCH  20  21
ATOM     21  C   UNL     1      -1.400  10.077  17.780  0.00  0.00    +0.000 A 
ATOM     22  C   UNL     1      -1.757  10.962  18.799  0.00  0.00    +0.000 A 
ATOM     23  C   UNL     1      -2.910  11.733  18.691  0.00  0.00    +0.000 A 
ATOM     24  C   UNL     1      -3.718  11.625  17.555  0.00  0.00    +0.000 A 
ATOM     25  C   UNL     1      -3.366  10.750  16.534  0.00  0.00    +0.000 A 
ATOM     26  C   UNL     1      -2.206   9.978  16.644  0.00  0.00    +0.000 A 
ENDBRANCH  20  21
ENDBRANCH  19  20
ENDBRANCH  18  19
ENDBRANCH  17  18
ENDBRANCH  13  17
ENDBRANCH  12  13
ENDBRANCH   1  12
BRANCH   1  27
ATOM     27  C   UNL     1       5.222   4.209  18.116  0.00  0.00    +0.000 C 
BRANCH  27  28
ATOM     28  N   UNL     1       6.032   4.488  16.960  0.00  0.00    +0.000 N 
ATOM     29  C   UNL     1       6.970   5.460  16.804  0.00  0.00    +0.000 A 
ATOM     30  N   UNL     1       7.401   5.452  15.566  0.00  0.00    +0.000 NA
ATOM     31  C   UNL     1       6.707   4.419  15.005  0.00  0.00    +0.000 A 
ATOM     32  N   UNL     1       5.877   3.777  15.830  0.00  0.00    +0.000 NA
ENDBRANCH  27  28
ENDBRANCH   1  27
TORSDOF 13
ENDMDL
MODEL 8
REMARK VINA RESULT:      -7.1      0.867      1.339
REMARK  Name = 
REMARK  13 active torsions:
REMARK  status: ('A' for Active; 'I' for Inactive)
REMARK    1  A    between atoms: C_2  and  C_3
REMARK    2  A    between atoms: C_3  and  N_4
REMARK    3  A    between atoms: N_4  and  C_5
REMARK    4  A    between atoms: N_4  and  C_15
REMARK    5  A    between atoms: C_5  and  C_6
REMARK    6  A    between atoms: C_6  and  C_7
REMARK    7  A    between atoms: C_7  and  O_8
REMARK    8  A    between atoms: O_8  and  C_9
REMARK    9  A    between atoms: C_15  and  C_16
REMARK   10  A    between atoms: C_16  and  O_17
REMARK   11  A    between atoms: C_16  and  C_18
REMARK   12  A    between atoms: C_16  and  C_24
REMARK   13  A    between atoms: C_18  and  N_19
REMARK                            x       y       z     vdW  Elec       q    Type
REMARK                         _______ _______ _______ _____ _____    ______ ____
ROOT
ATOM      1  C   UNL     1       3.037   6.075  18.365  0.00  0.00    +0.000 C 
ENDROOT
BRANCH   1   2
ATOM      2  C   UNL     1       2.360   7.439  18.531  0.00  0.00    +0.000 A 
ATOM      3  C   UNL     1       2.479   8.475  17.589  0.00  0.00    +0.000 A 
ATOM      4  C   UNL     1       1.991   9.757  17.859  0.00  0.00    +0.000 A 
ATOM      5  C   UNL     1       1.380  10.020  19.075  0.00  0.00    +0.000 A 
ATOM      6  F   UNL     1       0.977  11.265  19.359  0.00  0.00    +0.000 F 
ATOM      7  C   UNL     1       1.198   9.015  20.007  0.00  0.00    +0.000 A 
ATOM      8  C   UNL     1       1.664   7.736  19.718  0.00  0.00    +0.000 A 
ATOM      9  F   UNL     1       1.513   6.795  20.663  0.00  0.00    +0.000 F 
ENDBRANCH   1   2
BRANCH   1  10
ATOM     10  O   UNL     1       1.976   5.122  18.145  0.00  0.00    +0.000 OA
ATOM     11  H   UNL     1       2.096   4.716  17.272  0.00  0.00    +0.000 HD
ENDBRANCH   1  10
BRANCH   1  12
ATOM     12  C   UNL     1       4.096   5.962  17.182  0.00  0.00    +0.000 C 
BRANCH  12  13
ATOM     13  N   UNL     1       5.542   5.936  17.477  0.00  0.00    +0.000 NA
BRANCH  13  14
ATOM     14  C   UNL     1       6.196   4.692  17.017  0.00  0.00    +0.000 C 
BRANCH  14  16
ATOM     15  C   UNL     1       5.571   4.326  14.289  0.00  0.00    +0.000 C 
ATOM     16  C   UNL     1       5.860   4.494  15.549  0.00  0.00    +0.000 C 
ENDBRANCH  14  16
ENDBRANCH  13  14
BRANCH  13  17
ATOM     17  C   UNL     1       6.317   7.166  17.258  0.00  0.00    +0.000 C 
BRANCH  17  18
ATOM     18  C   UNL     1       7.636   7.377  18.012  0.00  0.00    +0.000 C 
BRANCH  18  19
ATOM     19  C   UNL     1       8.440   8.585  17.570  0.00  0.00    +0.000 C 
BRANCH  19  20
ATOM     20  O   UNL     1       7.958   9.742  18.255  0.00  0.00    +0.000 OA
BRANCH  20  21
ATOM     21  C   UNL     1       8.931  10.594  18.701  0.00  0.00    +0.000 A 
ATOM     22  C   UNL     1       9.251  11.634  17.826  0.00  0.00    +0.000 A 
ATOM     23  C   UNL     1      10.196  12.591  18.185  0.00  0.00    +0.000 A 
ATOM     24  C   UNL     1      10.828  12.515  19.428  0.00  0.00    +0.000 A 
ATOM     25  C   UNL     1      10.510  11.486  20.307  0.00  0.00    +0.000 A 
ATOM     26  C   UNL     1       9.559  10.526  19.946  0.00  0.00    +0.000 A 
ENDBRANCH  20  21
ENDBRANCH  19  20
ENDBRANCH  18  19
ENDBRANCH  17  18
ENDBRANCH  13  17
ENDBRANCH  12  13
ENDBRANCH   1  12
BRANCH   1  27
ATOM     27  C   UNL     1       3.737   5.644  19.693  0.00  0.00    +0.000 C 
BRANCH  27  28
ATOM     28  N   UNL     1       3.417   4.309  20.126  0.00  0.00    +0.000 N 
ATOM     29  C   UNL     1       2.563   3.926  21.111  0.00  0.00    +0.000 A 
ATOM     30  N   UNL     1       2.638   2.626  21.269  0.00  0.00    +0.000 NA
ATOM     31  C   UNL     1       3.544   2.252  20.319  0.00  0.00    +0.000 A 
ATOM     32  N   UNL     1       4.027   3.247  19.571  0.00  0.00    +0.000 NA
ENDBRANCH  27  28
ENDBRANCH   1  27
TORSDOF 13
ENDMDL
MODEL 9
REMARK VINA RESULT:      -7.1      2.934      5.948
REMARK  Name = 
REMARK  13 active torsions:
REMARK  status: ('A' for Active; 'I' for Inactive)
REMARK    1  A    between atoms: C_2  and  C_3
REMARK    2  A    between atoms: C_3  and  N_4
REMARK    3  A    between atoms: N_4  and  C_5
REMARK    4  A    between atoms: N_4  and  C_15
REMARK    5  A    between atoms: C_5  and  C_6
REMARK    6  A    between atoms: C_6  and  C_7
REMARK    7  A    between atoms: C_7  and  O_8
REMARK    8  A    between atoms: O_8  and  C_9
REMARK    9  A    between atoms: C_15  and  C_16
REMARK   10  A    between atoms: C_16  and  O_17
REMARK   11  A    between atoms: C_16  and  C_18
REMARK   12  A    between atoms: C_16  and  C_24
REMARK   13  A    between atoms: C_18  and  N_19
REMARK                            x       y       z     vdW  Elec       q    Type
REMARK                         _______ _______ _______ _____ _____    ______ ____
ROOT
ATOM      1  C   UNL     1       3.238   5.855  18.720  0.00  0.00    +0.000 C 
ENDROOT
BRANCH   1   2
ATOM      2  C   UNL     1       2.559   7.175  19.097  0.00  0.00    +0.000 A 
ATOM      3  C   UNL     1       1.989   7.412  20.359  0.00  0.00    +0.000 A 
ATOM      4  C   UNL     1       1.230   8.560  20.606  0.00  0.00    +0.000 A 
ATOM      5  C   UNL     1       1.030   9.486  19.592  0.00  0.00    +0.000 A 
ATOM      6  F   UNL     1       0.246  10.548  19.810  0.00  0.00    +0.000 F 
ATOM      7  C   UNL     1       1.618   9.313  18.352  0.00  0.00    +0.000 A 
ATOM      8  C   UNL     1       2.394   8.181  18.125  0.00  0.00    +0.000 A 
ATOM      9  F   UNL     1       2.910   8.021  16.897  0.00  0.00    +0.000 F 
ENDBRANCH   1   2
BRANCH   1  10
ATOM     10  O   UNL     1       2.548   5.365  17.552  0.00  0.00    +0.000 OA
ATOM     11  H   UNL     1       2.165   4.497  17.755  0.00  0.00    +0.000 HD
ENDBRANCH   1  10
BRANCH   1  12
ATOM     12  C   UNL     1       4.797   5.935  18.413  0.00  0.00    +0.000 C 
BRANCH  12  13
ATOM     13  N   UNL     1       5.282   6.613  17.195  0.00  0.00    +0.000 NA
BRANCH  13  14
ATOM     14  C   UNL     1       6.575   7.301  17.400  0.00  0.00    +0.000 C 
BRANCH  14  16
ATOM     15  C   UNL     1       8.145   5.725  19.139  0.00  0.00    +0.000 C 
ATOM     16  C   UNL     1       7.420   6.453  18.337  0.00  0.00    +0.000 C 
ENDBRANCH  14  16
ENDBRANCH  13  14
BRANCH  13  17
ATOM     17  C   UNL     1       5.147   5.911  15.910  0.00  0.00    +0.000 C 
BRANCH  17  18
ATOM     18  C   UNL     1       5.556   4.437  15.803  0.00  0.00    +0.000 C 
BRANCH  18  19
ATOM     19  C   UNL     1       6.847   4.184  15.047  0.00  0.00    +0.000 C 
BRANCH  19  20
ATOM     20  O   UNL     1       6.705   4.663  13.708  0.00  0.00    +0.000 OA
BRANCH  20  21
ATOM     21  C   UNL     1       6.236   3.740  12.814  0.00  0.00    +0.000 A 
ATOM     22  C   UNL     1       4.888   3.875  12.478  0.00  0.00    +0.000 A 
ATOM     23  C   UNL     1       4.305   3.023  11.545  0.00  0.00    +0.000 A 
ATOM     24  C   UNL     1       5.072   2.026  10.937  0.00  0.00    +0.000 A 
ATOM     25  C   UNL     1       6.416   1.888  11.262  0.00  0.00    +0.000 A 
ATOM     26  C   UNL     1       7.001   2.747  12.198  0.00  0.00    +0.000 A 
ENDBRANCH  20  21
ENDBRANCH  19  20
ENDBRANCH  18  19
ENDBRANCH  17  18
ENDBRANCH  13  17
ENDBRANCH  12  13
ENDBRANCH   1  12
BRANCH   1  27
ATOM     27  C   UNL     1       3.013   4.784  19.836  0.00  0.00    +0.000 C 
BRANCH  27  28
ATOM     28  N   UNL     1       2.117   3.721  19.464  0.00  0.00    +0.000 N 
ATOM     29  C   UNL     1       0.828   3.533  19.853  0.00  0.00    +0.000 A 
ATOM     30  N   UNL     1       0.396   2.387  19.385  0.00  0.00    +0.000 NA
ATOM     31  C   UNL     1       1.468   1.920  18.678  0.00  0.00    +0.000 A 
ATOM     32  N   UNL     1       2.537   2.720  18.673  0.00  0.00    +0.000 NA
ENDBRANCH  27  28
ENDBRANCH   1  27
TORSDOF 13
ENDMDL
