MODEL 1
REMARK VINA RESULT:      -6.2      0.000      0.000
REMARK  Name = 
REMARK  11 active torsions:
REMARK  status: ('A' for Active; 'I' for Inactive)
REMARK    1  A    between atoms: C_1  and  C_2
REMARK    2  A    between atoms: C_2  and  C_3
REMARK    3  A    between atoms: C_3  and  C_4
REMARK    4  A    between atoms: C_4  and  C_5
REMARK    5  A    between atoms: C_5  and  N_6
REMARK    6  A    between atoms: C_7  and  C_8
REMARK    7  A    between atoms: C_11  and  O_12
REMARK    8  A    between atoms: O_12  and  C_13
REMARK    9  A    between atoms: C_16  and  C_17
REMARK   10  A    between atoms: C_22  and  O_23
REMARK   11  A    between atoms: O_23  and  C_24
REMARK                            x       y       z     vdW  Elec       q    Type
REMARK                         _______ _______ _______ _____ _____    ______ ____
ROOT
ATOM      1  N   UNL     1       2.644   7.494  18.807  0.00  0.00    +0.000 N 
ATOM      2  C   UNL     1       2.060   6.992  19.972  0.00  0.00    +0.000 A 
ATOM      3  C   UNL     1       2.457   5.654  20.063  0.00  0.00    +0.000 A 
ATOM      4  C   UNL     1       3.276   5.351  18.943  0.00  0.00    +0.000 A 
ATOM      5  C   UNL     1       3.942   4.181  18.516  0.00  0.00    +0.000 A 
ATOM      6  C   UNL     1       4.657   4.174  17.320  0.00  0.00    +0.000 A 
ATOM      7  C   UNL     1       4.734   5.315  16.526  0.00  0.00    +0.000 A 
ATOM      8  C   UNL     1       4.081   6.491  16.942  0.00  0.00    +0.000 A 
ATOM      9  C   UNL     1       3.357   6.494  18.152  0.00  0.00    +0.000 A 
ENDROOT
BRANCH   2  10
ATOM     10  C   UNL     1       1.299   7.790  20.962  0.00  0.00    +0.000 A 
ATOM     11  C   UNL     1      -0.099   7.777  21.016  0.00  0.00    +0.000 A 
ATOM     12  C   UNL     1      -0.794   8.670  21.835  0.00  0.00    +0.000 A 
ATOM     13  C   UNL     1      -0.110   9.507  22.712  0.00  0.00    +0.000 A 
ATOM     14  C   UNL     1       1.281   9.467  22.744  0.00  0.00    +0.000 A 
ATOM     15  C   UNL     1       1.976   8.641  21.853  0.00  0.00    +0.000 A 
BRANCH  13  16
ATOM     16  O   UNL     1      -0.888  10.369  23.428  0.00  0.00    +0.000 OA
ATOM     17  C   UNL     1      -1.082  11.655  22.856  0.00  0.00    +0.000 C 
ENDBRANCH  13  16
ENDBRANCH   2  10
BRANCH   3  18
ATOM     18  C   UNL     1       2.097   4.729  21.133  0.00  0.00    +0.000 C 
ATOM     19  O   UNL     1       1.317   3.788  20.996  0.00  0.00    +0.000 OA
ENDBRANCH   3  18
BRANCH   7  20
ATOM     20  O   UNL     1       5.394   5.420  15.335  0.00  0.00    +0.000 OA
ATOM     21  C   UNL     1       6.075   4.250  14.890  0.00  0.00    +0.000 C 
ENDBRANCH   7  20
BRANCH   1  22
ATOM     22  C   UNL     1       2.565   8.863  18.307  0.00  0.00    +0.000 C 
BRANCH  22  23
ATOM     23  C   UNL     1       1.210   9.287  17.736  0.00  0.00    +0.000 C 
BRANCH  23  24
ATOM     24  C   UNL     1       0.549  10.404  18.539  0.00  0.00    +0.000 C 
BRANCH  24  26
ATOM     25  C   UNL     1      -1.649  11.413  19.213  0.00  0.00    +0.000 C 
ATOM     26  C   UNL     1      -0.972  10.304  18.432  0.00  0.00    +0.000 C 
ENDBRANCH  24  26
ENDBRANCH  23  24
ENDBRANCH  22  23
ENDBRANCH   1  22
TORSDOF 8
ENDMDL
MODEL 2
REMARK VINA RESULT:      -6.1      2.621      5.022
REMARK  Name = 
REMARK  11 active torsions:
REMARK  status: ('A' for Active; 'I' for Inactive)
REMARK    1  A    between atoms: C_1  and  C_2
REMARK    2  A    between atoms: C_2  and  C_3
REMARK    3  A    between atoms: C_3  and  C_4
REMARK    4  A    between atoms: C_4  and  C_5
REMARK    5  A    between atoms: C_5  and  N_6
REMARK    6  A    between atoms: C_7  and  C_8
REMARK    7  A    between atoms: C_11  and  O_12
REMARK    8  A    between atoms: O_12  and  C_13
REMARK    9  A    between atoms: C_16  and  C_17
REMARK   10  A    between atoms: C_22  and  O_23
REMARK   11  A    between atoms: O_23  and  C_24
REMARK                            x       y       z     vdW  Elec       q    Type
REMARK                         _______ _______ _______ _____ _____    ______ ____
ROOT
ATOM      1  N   UNL     1      -0.162  11.286  19.985  0.00  0.00    +0.000 N 
ATOM      2  C   UNL     1      -0.638  11.198  21.295  0.00  0.00    +0.000 A 
ATOM      3  C   UNL     1      -0.123  10.008  21.820  0.00  0.00    +0.000 A 
ATOM      4  C   UNL     1       0.660   9.376  20.817  0.00  0.00    +0.000 A 
ATOM      5  C   UNL     1       1.401   8.175  20.777  0.00  0.00    +0.000 A 
ATOM      6  C   UNL     1       2.049   7.785  19.607  0.00  0.00    +0.000 A 
ATOM      7  C   UNL     1       1.985   8.569  18.459  0.00  0.00    +0.000 A 
ATOM      8  C   UNL     1       1.256   9.773  18.485  0.00  0.00    +0.000 A 
ATOM      9  C   UNL     1       0.599  10.164  19.669  0.00  0.00    +0.000 A 
ENDROOT
BRANCH   2  10
ATOM     10  C   UNL     1      -1.411  12.248  21.998  0.00  0.00    +0.000 A 
ATOM     11  C   UNL     1      -0.792  13.267  22.732  0.00  0.00    +0.000 A 
ATOM     12  C   UNL     1      -1.542  14.135  23.529  0.00  0.00    +0.000 A 
ATOM     13  C   UNL     1      -2.933  14.088  23.513  0.00  0.00    +0.000 A 
ATOM     14  C   UNL     1      -3.573  13.144  22.716  0.00  0.00    +0.000 A 
ATOM     15  C   UNL     1      -2.816  12.213  21.994  0.00  0.00    +0.000 A 
BRANCH  13  16
ATOM     16  O   UNL     1      -3.559  14.950  24.366  0.00  0.00    +0.000 OA
ATOM     17  C   UNL     1      -2.822  15.328  25.521  0.00  0.00    +0.000 C 
ENDBRANCH  13  16
ENDBRANCH   2  10
BRANCH   3  18
ATOM     18  C   UNL     1      -0.344   9.507  23.172  0.00  0.00    +0.000 C 
ATOM     19  O   UNL     1       0.449   9.656  24.100  0.00  0.00    +0.000 OA
ENDBRANCH   3  18
BRANCH   7  20
ATOM     20  O   UNL     1       2.569   8.282  17.258  0.00  0.00    +0.000 OA
ATOM     21  C   UNL     1       3.697   7.413  17.302  0.00  0.00    +0.000 C 
ENDBRANCH   7  20
BRANCH   1  22
ATOM     22  C   UNL     1      -0.386  12.378  19.042  0.00  0.00    +0.000 C 
BRANCH  22  23
ATOM     23  C   UNL     1      -1.412  12.107  17.940  0.00  0.00    +0.000 C 
BRANCH  23  24
ATOM     24  C   UNL     1      -2.707  11.496  18.469  0.00  0.00    +0.000 C 
BRANCH  24  26
ATOM     25  C   UNL     1      -2.153   9.924  16.591  0.00  0.00    +0.000 C 
ATOM     26  C   UNL     1      -2.902  10.093  17.898  0.00  0.00    +0.000 C 
ENDBRANCH  24  26
ENDBRANCH  23  24
ENDBRANCH  22  23
ENDBRANCH   1  22
TORSDOF 8
ENDMDL
MODEL 3
REMARK VINA RESULT:      -6.0      0.778      1.281
REMARK  Name = 
REMARK  11 active torsions:
REMARK  status: ('A' for Active; 'I' for Inactive)
REMARK    1  A    between atoms: C_1  and  C_2
REMARK    2  A    between atoms: C_2  and  C_3
REMARK    3  A    between atoms: C_3  and  C_4
REMARK    4  A    between atoms: C_4  and  C_5
REMARK    5  A    between atoms: C_5  and  N_6
REMARK    6  A    between atoms: C_7  and  C_8
REMARK    7  A    between atoms: C_11  and  O_12
REMARK    8  A    between atoms: O_12  and  C_13
REMARK    9  A    between atoms: C_16  and  C_17
REMARK   10  A    between atoms: C_22  and  O_23
REMARK   11  A    between atoms: O_23  and  C_24
REMARK                            x       y       z     vdW  Elec       q    Type
REMARK                         _______ _______ _______ _____ _____    ______ ____
ROOT
ATOM      1  N   UNL     1       2.760   6.902  18.758  0.00  0.00    +0.000 N 
ATOM      2  C   UNL     1       2.051   6.609  19.925  0.00  0.00    +0.000 A 
ATOM      3  C   UNL     1       2.245   5.245  20.169  0.00  0.00    +0.000 A 
ATOM      4  C   UNL     1       3.068   4.717  19.138  0.00  0.00    +0.000 A 
ATOM      5  C   UNL     1       3.579   3.429  18.868  0.00  0.00    +0.000 A 
ATOM      6  C   UNL     1       4.345   3.199  17.727  0.00  0.00    +0.000 A 
ATOM      7  C   UNL     1       4.627   4.231  16.836  0.00  0.00    +0.000 A 
ATOM      8  C   UNL     1       4.131   5.522  17.095  0.00  0.00    +0.000 A 
ATOM      9  C   UNL     1       3.354   5.751  18.249  0.00  0.00    +0.000 A 
ENDROOT
BRANCH   2  10
ATOM     10  C   UNL     1       1.365   7.602  20.784  0.00  0.00    +0.000 A 
ATOM     11  C   UNL     1       2.067   8.517  21.576  0.00  0.00    +0.000 A 
ATOM     12  C   UNL     1       1.403   9.319  22.507  0.00  0.00    +0.000 A 
ATOM     13  C   UNL     1       0.013   9.317  22.580  0.00  0.00    +0.000 A 
ATOM     14  C   UNL     1      -0.712   8.483  21.734  0.00  0.00    +0.000 A 
ATOM     15  C   UNL     1      -0.038   7.611  20.870  0.00  0.00    +0.000 A 
BRANCH  13  16
ATOM     16  O   UNL     1      -0.525  10.103  23.558  0.00  0.00    +0.000 OA
ATOM     17  C   UNL     1      -1.319  11.195  23.113  0.00  0.00    +0.000 C 
ENDBRANCH  13  16
ENDBRANCH   2  10
BRANCH   3  18
ATOM     18  C   UNL     1       1.701   4.495  21.296  0.00  0.00    +0.000 C 
ATOM     19  O   UNL     1       2.350   3.695  21.967  0.00  0.00    +0.000 OA
ENDBRANCH   3  18
BRANCH   7  20
ATOM     20  O   UNL     1       5.355   4.120  15.685  0.00  0.00    +0.000 OA
ATOM     21  C   UNL     1       5.641   5.338  15.004  0.00  0.00    +0.000 C 
ENDBRANCH   7  20
BRANCH   1  22
ATOM     22  C   UNL     1       2.906   8.210  18.127  0.00  0.00    +0.000 C 
BRANCH  22  23
ATOM     23  C   UNL     1       1.602   8.924  17.765  0.00  0.00    +0.000 C 
BRANCH  23  24
ATOM     24  C   UNL     1       1.562  10.371  18.247  0.00  0.00    +0.000 C 
BRANCH  24  26
ATOM     25  C   UNL     1      -0.933  10.202  18.018  0.00  0.00    +0.000 C 
ATOM     26  C   UNL     1       0.211  10.678  18.892  0.00  0.00    +0.000 C 
ENDBRANCH  24  26
ENDBRANCH  23  24
ENDBRANCH  22  23
ENDBRANCH   1  22
TORSDOF 8
ENDMDL
MODEL 4
REMARK VINA RESULT:      -6.0      1.859      7.694
REMARK  Name = 
REMARK  11 active torsions:
REMARK  status: ('A' for Active; 'I' for Inactive)
REMARK    1  A    between atoms: C_1  and  C_2
REMARK    2  A    between atoms: C_2  and  C_3
REMARK    3  A    between atoms: C_3  and  C_4
REMARK    4  A    between atoms: C_4  and  C_5
REMARK    5  A    between atoms: C_5  and  N_6
REMARK    6  A    between atoms: C_7  and  C_8
REMARK    7  A    between atoms: C_11  and  O_12
REMARK    8  A    between atoms: O_12  and  C_13
REMARK    9  A    between atoms: C_16  and  C_17
REMARK   10  A    between atoms: C_22  and  O_23
REMARK   11  A    between atoms: O_23  and  C_24
REMARK                            x       y       z     vdW  Elec       q    Type
REMARK                         _______ _______ _______ _____ _____    ______ ____
ROOT
ATOM      1  N   UNL     1       1.907   7.085  20.155  0.00  0.00    +0.000 N 
ATOM      2  C   UNL     1       2.383   7.332  18.866  0.00  0.00    +0.000 A 
ATOM      3  C   UNL     1       2.037   8.655  18.568  0.00  0.00    +0.000 A 
ATOM      4  C   UNL     1       1.344   9.199  19.682  0.00  0.00    +0.000 A 
ATOM      5  C   UNL     1       0.766  10.461  19.943  0.00  0.00    +0.000 A 
ATOM      6  C   UNL     1       0.098  10.695  21.143  0.00  0.00    +0.000 A 
ATOM      7  C   UNL     1      -0.010   9.698  22.108  0.00  0.00    +0.000 A 
ATOM      8  C   UNL     1       0.567   8.437  21.865  0.00  0.00    +0.000 A 
ATOM      9  C   UNL     1       1.240   8.203  20.649  0.00  0.00    +0.000 A 
ENDROOT
BRANCH   2  10
ATOM     10  C   UNL     1       3.211   6.401  18.064  0.00  0.00    +0.000 A 
ATOM     11  C   UNL     1       2.754   5.135  17.683  0.00  0.00    +0.000 A 
ATOM     12  C   UNL     1       3.615   4.211  17.085  0.00  0.00    +0.000 A 
ATOM     13  C   UNL     1       4.914   4.574  16.739  0.00  0.00    +0.000 A 
ATOM     14  C   UNL     1       5.359   5.861  17.023  0.00  0.00    +0.000 A 
ATOM     15  C   UNL     1       4.525   6.752  17.709  0.00  0.00    +0.000 A 
BRANCH  13  16
ATOM     16  O   UNL     1       5.678   3.578  16.204  0.00  0.00    +0.000 OA
ATOM     17  C   UNL     1       6.241   3.842  14.926  0.00  0.00    +0.000 C 
ENDBRANCH  13  16
ENDBRANCH   2  10
BRANCH   3  18
ATOM     18  C   UNL     1       2.344   9.357  17.327  0.00  0.00    +0.000 C 
ATOM     19  O   UNL     1       2.567  10.564  17.256  0.00  0.00    +0.000 OA
ENDBRANCH   3  18
BRANCH   7  20
ATOM     20  O   UNL     1      -0.649   9.811  23.310  0.00  0.00    +0.000 OA
ATOM     21  C   UNL     1      -1.560  10.899  23.436  0.00  0.00    +0.000 C 
ENDBRANCH   7  20
BRANCH   1  22
ATOM     22  C   UNL     1       2.070   5.857  20.929  0.00  0.00    +0.000 C 
BRANCH  22  23
ATOM     23  C   UNL     1       1.130   4.708  20.559  0.00  0.00    +0.000 C 
BRANCH  23  24
ATOM     24  C   UNL     1       1.583   3.364  21.123  0.00  0.00    +0.000 C 
BRANCH  24  26
ATOM     25  C   UNL     1       0.703   2.527  18.925  0.00  0.00    +0.000 C 
ATOM     26  C   UNL     1       1.763   2.350  19.995  0.00  0.00    +0.000 C 
ENDBRANCH  24  26
ENDBRANCH  23  24
ENDBRANCH  22  23
ENDBRANCH   1  22
TORSDOF 8
ENDMDL
MODEL 5
REMARK VINA RESULT:      -5.9      1.879      7.790
REMARK  Name = 
REMARK  11 active torsions:
REMARK  status: ('A' for Active; 'I' for Inactive)
REMARK    1  A    between atoms: C_1  and  C_2
REMARK    2  A    between atoms: C_2  and  C_3
REMARK    3  A    between atoms: C_3  and  C_4
REMARK    4  A    between atoms: C_4  and  C_5
REMARK    5  A    between atoms: C_5  and  N_6
REMARK    6  A    between atoms: C_7  and  C_8
REMARK    7  A    between atoms: C_11  and  O_12
REMARK    8  A    between atoms: O_12  and  C_13
REMARK    9  A    between atoms: C_16  and  C_17
REMARK   10  A    between atoms: C_22  and  O_23
REMARK   11  A    between atoms: O_23  and  C_24
REMARK                            x       y       z     vdW  Elec       q    Type
REMARK                         _______ _______ _______ _____ _____    ______ ____
ROOT
ATOM      1  N   UNL     1       1.939   6.615  20.304  0.00  0.00    +0.000 N 
ATOM      2  C   UNL     1       2.511   6.771  19.039  0.00  0.00    +0.000 A 
ATOM      3  C   UNL     1       2.240   8.085  18.645  0.00  0.00    +0.000 A 
ATOM      4  C   UNL     1       1.496   8.718  19.676  0.00  0.00    +0.000 A 
ATOM      5  C   UNL     1       0.953  10.013  19.826  0.00  0.00    +0.000 A 
ATOM      6  C   UNL     1       0.214  10.341  20.961  0.00  0.00    +0.000 A 
ATOM      7  C   UNL     1       0.000   9.405  21.969  0.00  0.00    +0.000 A 
ATOM      8  C   UNL     1       0.540   8.112  21.838  0.00  0.00    +0.000 A 
ATOM      9  C   UNL     1       1.285   7.784  20.687  0.00  0.00    +0.000 A 
ENDROOT
BRANCH   2  10
ATOM     10  C   UNL     1       3.354   5.765  18.350  0.00  0.00    +0.000 A 
ATOM     11  C   UNL     1       4.750   5.771  18.443  0.00  0.00    +0.000 A 
ATOM     12  C   UNL     1       5.527   4.928  17.645  0.00  0.00    +0.000 A 
ATOM     13  C   UNL     1       4.926   3.972  16.830  0.00  0.00    +0.000 A 
ATOM     14  C   UNL     1       3.537   3.884  16.795  0.00  0.00    +0.000 A 
ATOM     15  C   UNL     1       2.763   4.796  17.523  0.00  0.00    +0.000 A 
BRANCH  13  16
ATOM     16  O   UNL     1       5.780   3.236  16.061  0.00  0.00    +0.000 OA
ATOM     17  C   UNL     1       6.323   3.899  14.927  0.00  0.00    +0.000 C 
ENDBRANCH  13  16
ENDBRANCH   2  10
BRANCH   3  18
ATOM     18  C   UNL     1       2.660   8.703  17.392  0.00  0.00    +0.000 C 
ATOM     19  O   UNL     1       3.431   8.178  16.591  0.00  0.00    +0.000 OA
ENDBRANCH   3  18
BRANCH   7  20
ATOM     20  O   UNL     1      -0.714   9.611  23.115  0.00  0.00    +0.000 OA
ATOM     21  C   UNL     1      -1.356  10.878  23.236  0.00  0.00    +0.000 C 
ENDBRANCH   7  20
BRANCH   1  22
ATOM     22  C   UNL     1       1.998   5.430  21.153  0.00  0.00    +0.000 C 
BRANCH  22  23
ATOM     23  C   UNL     1       1.151   4.240  20.696  0.00  0.00    +0.000 C 
BRANCH  23  24
ATOM     24  C   UNL     1       1.729   2.896  21.130  0.00  0.00    +0.000 C 
BRANCH  24  26
ATOM     25  C   UNL     1       4.011   2.409  20.199  0.00  0.00    +0.000 C 
ATOM     26  C   UNL     1       2.517   2.264  19.983  0.00  0.00    +0.000 C 
ENDBRANCH  24  26
ENDBRANCH  23  24
ENDBRANCH  22  23
ENDBRANCH   1  22
TORSDOF 8
ENDMDL
MODEL 6
REMARK VINA RESULT:      -5.8      2.423      7.670
REMARK  Name = 
REMARK  11 active torsions:
REMARK  status: ('A' for Active; 'I' for Inactive)
REMARK    1  A    between atoms: C_1  and  C_2
REMARK    2  A    between atoms: C_2  and  C_3
REMARK    3  A    between atoms: C_3  and  C_4
REMARK    4  A    between atoms: C_4  and  C_5
REMARK    5  A    between atoms: C_5  and  N_6
REMARK    6  A    between atoms: C_7  and  C_8
REMARK    7  A    between atoms: C_11  and  O_12
REMARK    8  A    between atoms: O_12  and  C_13
REMARK    9  A    between atoms: C_16  and  C_17
REMARK   10  A    between atoms: C_22  and  O_23
REMARK   11  A    between atoms: O_23  and  C_24
REMARK                            x       y       z     vdW  Elec       q    Type
REMARK                         _______ _______ _______ _____ _____    ______ ____
ROOT
ATOM      1  N   UNL     1      -0.616  10.799  19.583  0.00  0.00    +0.000 N 
ATOM      2  C   UNL     1       0.334  10.028  20.256  0.00  0.00    +0.000 A 
ATOM      3  C   UNL     1       0.125  10.254  21.621  0.00  0.00    +0.000 A 
ATOM      4  C   UNL     1      -0.951  11.169  21.766  0.00  0.00    +0.000 A 
ATOM      5  C   UNL     1      -1.585  11.752  22.885  0.00  0.00    +0.000 A 
ATOM      6  C   UNL     1      -2.615  12.674  22.710  0.00  0.00    +0.000 A 
ATOM      7  C   UNL     1      -3.042  13.036  21.435  0.00  0.00    +0.000 A 
ATOM      8  C   UNL     1      -2.424  12.459  20.310  0.00  0.00    +0.000 A 
ATOM      9  C   UNL     1      -1.381  11.528  20.490  0.00  0.00    +0.000 A 
ENDROOT
BRANCH   2  10
ATOM     10  C   UNL     1       1.263   9.066  19.620  0.00  0.00    +0.000 A 
ATOM     11  C   UNL     1       1.817   9.288  18.354  0.00  0.00    +0.000 A 
ATOM     12  C   UNL     1       2.544   8.288  17.703  0.00  0.00    +0.000 A 
ATOM     13  C   UNL     1       2.842   7.093  18.351  0.00  0.00    +0.000 A 
ATOM     14  C   UNL     1       2.381   6.889  19.648  0.00  0.00    +0.000 A 
ATOM     15  C   UNL     1       1.572   7.854  20.260  0.00  0.00    +0.000 A 
BRANCH  13  16
ATOM     16  O   UNL     1       3.516   6.172  17.602  0.00  0.00    +0.000 OA
ATOM     17  C   UNL     1       3.100   4.822  17.753  0.00  0.00    +0.000 C 
ENDBRANCH  13  16
ENDBRANCH   2  10
BRANCH   3  18
ATOM     18  C   UNL     1       0.880   9.643  22.710  0.00  0.00    +0.000 C 
ATOM     19  O   UNL     1       0.471   9.558  23.867  0.00  0.00    +0.000 OA
ENDBRANCH   3  18
BRANCH   7  20
ATOM     20  O   UNL     1      -4.030  13.934  21.145  0.00  0.00    +0.000 OA
ATOM     21  C   UNL     1      -5.366  13.486  21.359  0.00  0.00    +0.000 C 
ENDBRANCH   7  20
BRANCH   1  22
ATOM     22  C   UNL     1      -0.833  10.861  18.141  0.00  0.00    +0.000 C 
BRANCH  22  23
ATOM     23  C   UNL     1      -1.744   9.779  17.557  0.00  0.00    +0.000 C 
BRANCH  23  24
ATOM     24  C   UNL     1      -3.159  10.279  17.278  0.00  0.00    +0.000 C 
BRANCH  24  26
ATOM     25  C   UNL     1      -3.007  10.082  14.779  0.00  0.00    +0.000 C 
ATOM     26  C   UNL     1      -3.203  11.028  15.948  0.00  0.00    +0.000 C 
ENDBRANCH  24  26
ENDBRANCH  23  24
ENDBRANCH  22  23
ENDBRANCH   1  22
TORSDOF 8
ENDMDL
MODEL 7
REMARK VINA RESULT:      -5.8      2.613      4.887
REMARK  Name = 
REMARK  11 active torsions:
REMARK  status: ('A' for Active; 'I' for Inactive)
REMARK    1  A    between atoms: C_1  and  C_2
REMARK    2  A    between atoms: C_2  and  C_3
REMARK    3  A    between atoms: C_3  and  C_4
REMARK    4  A    between atoms: C_4  and  C_5
REMARK    5  A    between atoms: C_5  and  N_6
REMARK    6  A    between atoms: C_7  and  C_8
REMARK    7  A    between atoms: C_11  and  O_12
REMARK    8  A    between atoms: O_12  and  C_13
REMARK    9  A    between atoms: C_16  and  C_17
REMARK   10  A    between atoms: C_22  and  O_23
REMARK   11  A    between atoms: O_23  and  C_24
REMARK                            x       y       z     vdW  Elec       q    Type
REMARK                         _______ _______ _______ _____ _____    ______ ____
ROOT
ATOM      1  N   UNL     1      -0.073  11.014  19.772  0.00  0.00    +0.000 N 
ATOM      2  C   UNL     1      -0.613  11.077  21.059  0.00  0.00    +0.000 A 
ATOM      3  C   UNL     1      -0.127   9.957  21.742  0.00  0.00    +0.000 A 
ATOM      4  C   UNL     1       0.702   9.216  20.858  0.00  0.00    +0.000 A 
ATOM      5  C   UNL     1       1.441   8.020  20.994  0.00  0.00    +0.000 A 
ATOM      6  C   UNL     1       2.144   7.500  19.910  0.00  0.00    +0.000 A 
ATOM      7  C   UNL     1       2.139   8.146  18.677  0.00  0.00    +0.000 A 
ATOM      8  C   UNL     1       1.412   9.343  18.527  0.00  0.00    +0.000 A 
ATOM      9  C   UNL     1       0.700   9.865  19.626  0.00  0.00    +0.000 A 
ENDROOT
BRANCH   2  10
ATOM     10  C   UNL     1      -1.417  12.199  21.597  0.00  0.00    +0.000 A 
ATOM     11  C   UNL     1      -2.790  12.317  21.356  0.00  0.00    +0.000 A 
ATOM     12  C   UNL     1      -3.487  13.471  21.721  0.00  0.00    +0.000 A 
ATOM     13  C   UNL     1      -2.858  14.479  22.448  0.00  0.00    +0.000 A 
ATOM     14  C   UNL     1      -1.514  14.338  22.782  0.00  0.00    +0.000 A 
ATOM     15  C   UNL     1      -0.796  13.224  22.330  0.00  0.00    +0.000 A 
BRANCH  13  16
ATOM     16  O   UNL     1      -3.621  15.579  22.708  0.00  0.00    +0.000 OA
ATOM     17  C   UNL     1      -4.994  15.483  22.351  0.00  0.00    +0.000 C 
ENDBRANCH  13  16
ENDBRANCH   2  10
BRANCH   3  18
ATOM     18  C   UNL     1      -0.415   9.615  23.131  0.00  0.00    +0.000 C 
ATOM     19  O   UNL     1       0.419   9.641  24.034  0.00  0.00    +0.000 OA
ENDBRANCH   3  18
BRANCH   7  20
ATOM     20  O   UNL     1       2.780   7.723  17.547  0.00  0.00    +0.000 OA
ATOM     21  C   UNL     1       3.707   6.654  17.715  0.00  0.00    +0.000 C 
ENDBRANCH   7  20
BRANCH   1  22
ATOM     22  C   UNL     1      -0.248  11.989  18.700  0.00  0.00    +0.000 C 
BRANCH  22  23
ATOM     23  C   UNL     1      -1.570  11.907  17.933  0.00  0.00    +0.000 C 
BRANCH  23  24
ATOM     24  C   UNL     1      -1.943  10.480  17.543  0.00  0.00    +0.000 C 
BRANCH  24  26
ATOM     25  C   UNL     1      -4.158  11.567  18.015  0.00  0.00    +0.000 C 
ATOM     26  C   UNL     1      -3.462  10.328  17.485  0.00  0.00    +0.000 C 
ENDBRANCH  24  26
ENDBRANCH  23  24
ENDBRANCH  22  23
ENDBRANCH   1  22
TORSDOF 8
ENDMDL
MODEL 8
REMARK VINA RESULT:      -5.7      0.936      1.039
REMARK  Name = 
REMARK  11 active torsions:
REMARK  status: ('A' for Active; 'I' for Inactive)
REMARK    1  A    between atoms: C_1  and  C_2
REMARK    2  A    between atoms: C_2  and  C_3
REMARK    3  A    between atoms: C_3  and  C_4
REMARK    4  A    between atoms: C_4  and  C_5
REMARK    5  A    between atoms: C_5  and  N_6
REMARK    6  A    between atoms: C_7  and  C_8
REMARK    7  A    between atoms: C_11  and  O_12
REMARK    8  A    between atoms: O_12  and  C_13
REMARK    9  A    between atoms: C_16  and  C_17
REMARK   10  A    between atoms: C_22  and  O_23
REMARK   11  A    between atoms: O_23  and  C_24
REMARK                            x       y       z     vdW  Elec       q    Type
REMARK                         _______ _______ _______ _____ _____    ______ ____
ROOT
ATOM      1  N   UNL     1       2.690   6.885  18.843  0.00  0.00    +0.000 N 
ATOM      2  C   UNL     1       1.993   6.541  20.004  0.00  0.00    +0.000 A 
ATOM      3  C   UNL     1       2.133   5.157  20.149  0.00  0.00    +0.000 A 
ATOM      4  C   UNL     1       2.913   4.668  19.066  0.00  0.00    +0.000 A 
ATOM      5  C   UNL     1       3.363   3.382  18.697  0.00  0.00    +0.000 A 
ATOM      6  C   UNL     1       4.095   3.200  17.526  0.00  0.00    +0.000 A 
ATOM      7  C   UNL     1       4.403   4.279  16.701  0.00  0.00    +0.000 A 
ATOM      8  C   UNL     1       3.967   5.568  17.058  0.00  0.00    +0.000 A 
ATOM      9  C   UNL     1       3.224   5.748  18.243  0.00  0.00    +0.000 A 
ENDROOT
BRANCH   2  10
ATOM     10  C   UNL     1       1.366   7.500  20.943  0.00  0.00    +0.000 A 
ATOM     11  C   UNL     1      -0.021   7.671  21.021  0.00  0.00    +0.000 A 
ATOM     12  C   UNL     1      -0.575   8.704  21.782  0.00  0.00    +0.000 A 
ATOM     13  C   UNL     1       0.233   9.507  22.582  0.00  0.00    +0.000 A 
ATOM     14  C   UNL     1       1.608   9.291  22.593  0.00  0.00    +0.000 A 
ATOM     15  C   UNL     1       2.168   8.319  21.756  0.00  0.00    +0.000 A 
BRANCH  13  16
ATOM     16  O   UNL     1      -0.410  10.512  23.244  0.00  0.00    +0.000 OA
ATOM     17  C   UNL     1      -1.308  11.294  22.467  0.00  0.00    +0.000 C 
ENDBRANCH  13  16
ENDBRANCH   2  10
BRANCH   3  18
ATOM     18  C   UNL     1       1.581   4.353  21.234  0.00  0.00    +0.000 C 
ATOM     19  O   UNL     1       2.258   3.655  21.987  0.00  0.00    +0.000 OA
ENDBRANCH   3  18
BRANCH   7  20
ATOM     20  O   UNL     1       5.102   4.217  15.529  0.00  0.00    +0.000 OA
ATOM     21  C   UNL     1       6.522   4.238  15.644  0.00  0.00    +0.000 C 
ENDBRANCH   7  20
BRANCH   1  22
ATOM     22  C   UNL     1       2.878   8.226  18.299  0.00  0.00    +0.000 C 
BRANCH  22  23
ATOM     23  C   UNL     1       1.599   8.978  17.922  0.00  0.00    +0.000 C 
BRANCH  23  24
ATOM     24  C   UNL     1       1.701  10.482  18.158  0.00  0.00    +0.000 C 
BRANCH  24  26
ATOM     25  C   UNL     1       1.238  12.148  19.979  0.00  0.00    +0.000 C 
ATOM     26  C   UNL     1       0.733  10.912  19.259  0.00  0.00    +0.000 C 
ENDBRANCH  24  26
ENDBRANCH  23  24
ENDBRANCH  22  23
ENDBRANCH   1  22
TORSDOF 8
ENDMDL
MODEL 9
REMARK VINA RESULT:      -5.7      1.788      3.977
REMARK  Name = 
REMARK  11 active torsions:
REMARK  status: ('A' for Active; 'I' for Inactive)
REMARK    1  A    between atoms: C_1  and  C_2
REMARK    2  A    between atoms: C_2  and  C_3
REMARK    3  A    between atoms: C_3  and  C_4
REMARK    4  A    between atoms: C_4  and  C_5
REMARK    5  A    between atoms: C_5  and  N_6
REMARK    6  A    between atoms: C_7  and  C_8
REMARK    7  A    between atoms: C_11  and  O_12
REMARK    8  A    between atoms: O_12  and  C_13
REMARK    9  A    between atoms: C_16  and  C_17
REMARK   10  A    between atoms: C_22  and  O_23
REMARK   11  A    between atoms: O_23  and  C_24
REMARK                            x       y       z     vdW  Elec       q    Type
REMARK                         _______ _______ _______ _____ _____    ______ ____
ROOT
ATOM      1  N   UNL     1       2.438   6.733  19.778  0.00  0.00    +0.000 N 
ATOM      2  C   UNL     1       1.960   8.038  19.636  0.00  0.00    +0.000 A 
ATOM      3  C   UNL     1       2.432   8.495  18.401  0.00  0.00    +0.000 A 
ATOM      4  C   UNL     1       3.202   7.463  17.804  0.00  0.00    +0.000 A 
ATOM      5  C   UNL     1       3.912   7.361  16.587  0.00  0.00    +0.000 A 
ATOM      6  C   UNL     1       4.628   6.205  16.284  0.00  0.00    +0.000 A 
ATOM      7  C   UNL     1       4.657   5.129  17.166  0.00  0.00    +0.000 A 
ATOM      8  C   UNL     1       3.949   5.213  18.381  0.00  0.00    +0.000 A 
ATOM      9  C   UNL     1       3.227   6.384  18.685  0.00  0.00    +0.000 A 
ENDROOT
BRANCH   2  10
ATOM     10  C   UNL     1       1.023   8.713  20.564  0.00  0.00    +0.000 A 
ATOM     11  C   UNL     1      -0.120   9.384  20.114  0.00  0.00    +0.000 A 
ATOM     12  C   UNL     1      -0.886  10.161  20.986  0.00  0.00    +0.000 A 
ATOM     13  C   UNL     1      -0.604  10.183  22.350  0.00  0.00    +0.000 A 
ATOM     14  C   UNL     1       0.472   9.445  22.833  0.00  0.00    +0.000 A 
ATOM     15  C   UNL     1       1.295   8.746  21.942  0.00  0.00    +0.000 A 
BRANCH  13  16
ATOM     16  O   UNL     1      -1.389  11.012  23.097  0.00  0.00    +0.000 OA
ATOM     17  C   UNL     1      -1.184  12.405  22.903  0.00  0.00    +0.000 C 
ENDBRANCH  13  16
ENDBRANCH   2  10
BRANCH   3  18
ATOM     18  C   UNL     1       2.168   9.808  17.822  0.00  0.00    +0.000 C 
ATOM     19  O   UNL     1       2.417  10.872  18.386  0.00  0.00    +0.000 OA
ENDBRANCH   3  18
BRANCH   7  20
ATOM     20  O   UNL     1       5.332   3.956  16.979  0.00  0.00    +0.000 OA
ATOM     21  C   UNL     1       5.950   3.785  15.707  0.00  0.00    +0.000 C 
ENDBRANCH   7  20
BRANCH   1  22
ATOM     22  C   UNL     1       2.170   5.817  20.882  0.00  0.00    +0.000 C 
BRANCH  22  23
ATOM     23  C   UNL     1       1.228   4.652  20.568  0.00  0.00    +0.000 C 
BRANCH  23  24
ATOM     24  C   UNL     1       1.789   3.300  20.998  0.00  0.00    +0.000 C 
BRANCH  24  26
ATOM     25  C   UNL     1       1.066   2.914  18.624  0.00  0.00    +0.000 C 
ATOM     26  C   UNL     1       1.577   2.264  19.896  0.00  0.00    +0.000 C 
ENDBRANCH  24  26
ENDBRANCH  23  24
ENDBRANCH  22  23
ENDBRANCH   1  22
TORSDOF 8
ENDMDL
