MODEL 1
REMARK VINA RESULT:      -7.7      0.000      0.000
REMARK  Name = 
REMARK  3 active torsions:
REMARK  status: ('A' for Active; 'I' for Inactive)
REMARK    1  A    between atoms: N_4  and  N_5
REMARK    2  A    between atoms: C_6  and  C_7
REMARK    3  A    between atoms: C_10  and  C_11
REMARK                            x       y       z     vdW  Elec       q    Type
REMARK                         _______ _______ _______ _____ _____    ______ ____
ROOT
ATOM      1  C   UNL     1       3.040   5.451  19.211  0.00  0.00    +0.000 A 
ATOM      2  C   UNL     1       2.265   4.713  20.081  0.00  0.00    +0.000 A 
ATOM      3  C   UNL     1       1.492   5.636  20.818  0.00  0.00    +0.000 A 
ATOM      4  C   UNL     1       1.821   6.896  20.356  0.00  0.00    +0.000 A 
ATOM      5  O   UNL     1       2.776   6.785  19.378  0.00  0.00    +0.000 OA
ENDROOT
BRANCH   4   6
ATOM      6  C   UNL     1       1.338   8.239  20.679  0.00  0.00    +0.000 A 
ATOM      7  C   UNL     1       0.999   8.555  22.006  0.00  0.00    +0.000 A 
ATOM      8  C   UNL     1       0.475   9.806  22.342  0.00  0.00    +0.000 A 
ATOM      9  C   UNL     1       0.281  10.769  21.353  0.00  0.00    +0.000 A 
ATOM     10 CL   UNL     1      -0.396  12.284  21.834  0.00  0.00    +0.000 Cl
ATOM     11  C   UNL     1       0.628  10.480  20.029  0.00  0.00    +0.000 A 
ATOM     12 CL   UNL     1       0.405  11.624  18.753  0.00  0.00    +0.000 Cl
ATOM     13  C   UNL     1       1.158   9.224  19.698  0.00  0.00    +0.000 A 
ENDBRANCH   4   6
BRANCH   1  15
ATOM     14  N   UNL     1       5.040   5.794  18.011  0.00  0.00    +0.000 NA
ATOM     15  C   UNL     1       4.006   5.042  18.224  0.00  0.00    +0.000 C 
BRANCH  14  19
ATOM     16  O   UNL     1       7.117   5.016  13.827  0.00  0.00    +0.000 OA
ATOM     17  C   UNL     1       6.900   5.079  15.029  0.00  0.00    +0.000 C 
ATOM     18  C   UNL     1       5.673   5.684  15.675  0.00  0.00    +0.000 C 
ATOM     19  N   UNL     1       5.970   5.451  17.072  0.00  0.00    +0.000 N 
ATOM     20  C   UNL     1       7.191   4.783  17.232  0.00  0.00    +0.000 C 
ATOM     21  O   UNL     1       7.722   4.391  18.260  0.00  0.00    +0.000 OA
ATOM     22  N   UNL     1       7.729   4.607  15.994  0.00  0.00    +0.000 N 
ATOM     23  H   UNL     1       8.601   4.136  15.823  0.00  0.00    +0.000 HD
ENDBRANCH  14  19
ENDBRANCH   1  15
TORSDOF 3
ENDMDL
MODEL 2
REMARK VINA RESULT:      -7.7      1.174      1.795
REMARK  Name = 
REMARK  3 active torsions:
REMARK  status: ('A' for Active; 'I' for Inactive)
REMARK    1  A    between atoms: N_4  and  N_5
REMARK    2  A    between atoms: C_6  and  C_7
REMARK    3  A    between atoms: C_10  and  C_11
REMARK                            x       y       z     vdW  Elec       q    Type
REMARK                         _______ _______ _______ _____ _____    ______ ____
ROOT
ATOM      1  C   UNL     1       3.512   5.387  19.016  0.00  0.00    +0.000 A 
ATOM      2  C   UNL     1       2.862   4.626  19.965  0.00  0.00    +0.000 A 
ATOM      3  C   UNL     1       1.978   5.493  20.643  0.00  0.00    +0.000 A 
ATOM      4  C   UNL     1       2.119   6.742  20.069  0.00  0.00    +0.000 A 
ATOM      5  O   UNL     1       3.065   6.681  19.080  0.00  0.00    +0.000 OA
ENDROOT
BRANCH   4   6
ATOM      6  C   UNL     1       1.456   8.027  20.293  0.00  0.00    +0.000 A 
ATOM      7  C   UNL     1       1.464   8.999  19.279  0.00  0.00    +0.000 A 
ATOM      8  C   UNL     1       0.897  10.261  19.479  0.00  0.00    +0.000 A 
ATOM      9  C   UNL     1       0.307  10.574  20.702  0.00  0.00    +0.000 A 
ATOM     10 CL   UNL     1      -0.350  12.161  20.890  0.00  0.00    +0.000 Cl
ATOM     11  C   UNL     1       0.274   9.615  21.719  0.00  0.00    +0.000 A 
ATOM     12 CL   UNL     1      -0.432   9.939  23.263  0.00  0.00    +0.000 Cl
ATOM     13  C   UNL     1       0.840   8.348  21.512  0.00  0.00    +0.000 A 
ENDBRANCH   4   6
BRANCH   1  15
ATOM     14  N   UNL     1       4.618   5.749  16.966  0.00  0.00    +0.000 NA
ATOM     15  C   UNL     1       4.512   5.034  18.041  0.00  0.00    +0.000 C 
BRANCH  14  19
ATOM     16  O   UNL     1       6.685   3.731  13.214  0.00  0.00    +0.000 OA
ATOM     17  C   UNL     1       6.482   4.413  14.208  0.00  0.00    +0.000 C 
ATOM     18  C   UNL     1       5.163   4.540  14.938  0.00  0.00    +0.000 C 
ATOM     19  N   UNL     1       5.541   5.437  16.009  0.00  0.00    +0.000 N 
ATOM     20  C   UNL     1       6.898   5.778  15.938  0.00  0.00    +0.000 C 
ATOM     21  O   UNL     1       7.556   6.470  16.699  0.00  0.00    +0.000 OA
ATOM     22  N   UNL     1       7.416   5.173  14.834  0.00  0.00    +0.000 N 
ATOM     23  H   UNL     1       8.381   5.239  14.559  0.00  0.00    +0.000 HD
ENDBRANCH  14  19
ENDBRANCH   1  15
TORSDOF 3
ENDMDL
MODEL 3
REMARK VINA RESULT:      -7.6      0.998      1.673
REMARK  Name = 
REMARK  3 active torsions:
REMARK  status: ('A' for Active; 'I' for Inactive)
REMARK    1  A    between atoms: N_4  and  N_5
REMARK    2  A    between atoms: C_6  and  C_7
REMARK    3  A    between atoms: C_10  and  C_11
REMARK                            x       y       z     vdW  Elec       q    Type
REMARK                         _______ _______ _______ _____ _____    ______ ____
ROOT
ATOM      1  C   UNL     1       3.024   6.478  18.891  0.00  0.00    +0.000 A 
ATOM      2  C   UNL     1       2.531   5.711  19.927  0.00  0.00    +0.000 A 
ATOM      3  C   UNL     1       1.662   6.542  20.668  0.00  0.00    +0.000 A 
ATOM      4  C   UNL     1       1.656   7.775  20.045  0.00  0.00    +0.000 A 
ATOM      5  O   UNL     1       2.497   7.741  18.963  0.00  0.00    +0.000 OA
ENDROOT
BRANCH   4   6
ATOM      6  C   UNL     1       0.932   9.021  20.298  0.00  0.00    +0.000 A 
ATOM      7  C   UNL     1       0.962  10.050  19.342  0.00  0.00    +0.000 A 
ATOM      8  C   UNL     1       0.335  11.277  19.577  0.00  0.00    +0.000 A 
ATOM      9  C   UNL     1      -0.338  11.498  20.776  0.00  0.00    +0.000 A 
ATOM     10 CL   UNL     1      -1.067  13.047  21.011  0.00  0.00    +0.000 Cl
ATOM     11  C   UNL     1      -0.395  10.481  21.735  0.00  0.00    +0.000 A 
ATOM     12 CL   UNL     1      -1.204  10.690  23.247  0.00  0.00    +0.000 Cl
ATOM     13  C   UNL     1       0.232   9.249  21.492  0.00  0.00    +0.000 A 
ENDBRANCH   4   6
BRANCH   1  15
ATOM     14  N   UNL     1       5.079   5.613  18.125  0.00  0.00    +0.000 NA
ATOM     15  C   UNL     1       3.940   6.156  17.827  0.00  0.00    +0.000 C 
BRANCH  14  19
ATOM     16  O   UNL     1       6.987   4.841  13.860  0.00  0.00    +0.000 OA
ATOM     17  C   UNL     1       6.830   4.933  15.069  0.00  0.00    +0.000 C 
ATOM     18  C   UNL     1       5.595   5.465  15.762  0.00  0.00    +0.000 C 
ATOM     19  N   UNL     1       5.982   5.308  17.147  0.00  0.00    +0.000 N 
ATOM     20  C   UNL     1       7.258   4.741  17.262  0.00  0.00    +0.000 C 
ATOM     21  O   UNL     1       7.871   4.428  18.270  0.00  0.00    +0.000 OA
ATOM     22  N   UNL     1       7.742   4.560  16.002  0.00  0.00    +0.000 N 
ATOM     23  H   UNL     1       8.638   4.151  15.798  0.00  0.00    +0.000 HD
ENDBRANCH  14  19
ENDBRANCH   1  15
TORSDOF 3
ENDMDL
MODEL 4
REMARK VINA RESULT:      -7.6      1.026      1.029
REMARK  Name = 
REMARK  3 active torsions:
REMARK  status: ('A' for Active; 'I' for Inactive)
REMARK    1  A    between atoms: N_4  and  N_5
REMARK    2  A    between atoms: C_6  and  C_7
REMARK    3  A    between atoms: C_10  and  C_11
REMARK                            x       y       z     vdW  Elec       q    Type
REMARK                         _______ _______ _______ _____ _____    ______ ____
ROOT
ATOM      1  C   UNL     1       2.982   6.331  18.832  0.00  0.00    +0.000 A 
ATOM      2  C   UNL     1       2.555   5.402  19.758  0.00  0.00    +0.000 A 
ATOM      3  C   UNL     1       1.770   6.101  20.701  0.00  0.00    +0.000 A 
ATOM      4  C   UNL     1       1.742   7.423  20.301  0.00  0.00    +0.000 A 
ATOM      5  O   UNL     1       2.492   7.568  19.162  0.00  0.00    +0.000 OA
ENDROOT
BRANCH   4   6
ATOM      6  C   UNL     1       1.070   8.613  20.823  0.00  0.00    +0.000 A 
ATOM      7  C   UNL     1       0.827   8.725  22.203  0.00  0.00    +0.000 A 
ATOM      8  C   UNL     1       0.133   9.817  22.730  0.00  0.00    +0.000 A 
ATOM      9  C   UNL     1      -0.331  10.824  21.885  0.00  0.00    +0.000 A 
ATOM     10 CL   UNL     1      -1.205  12.130  22.601  0.00  0.00    +0.000 Cl
ATOM     11  C   UNL     1      -0.084  10.740  20.510  0.00  0.00    +0.000 A 
ATOM     12 CL   UNL     1      -0.639  11.946  19.404  0.00  0.00    +0.000 Cl
ATOM     13  C   UNL     1       0.618   9.643  19.986  0.00  0.00    +0.000 A 
ENDBRANCH   4   6
BRANCH   1  15
ATOM     14  N   UNL     1       4.835   5.409  17.705  0.00  0.00    +0.000 NA
ATOM     15  C   UNL     1       3.801   6.188  17.656  0.00  0.00    +0.000 C 
BRANCH  14  19
ATOM     16  O   UNL     1       6.559   3.880  13.567  0.00  0.00    +0.000 OA
ATOM     17  C   UNL     1       6.429   4.465  14.633  0.00  0.00    +0.000 C 
ATOM     18  C   UNL     1       5.212   4.409  15.530  0.00  0.00    +0.000 C 
ATOM     19  N   UNL     1       5.647   5.260  16.617  0.00  0.00    +0.000 N 
ATOM     20  C   UNL     1       6.948   5.736  16.406  0.00  0.00    +0.000 C 
ATOM     21  O   UNL     1       7.637   6.433  17.135  0.00  0.00    +0.000 OA
ATOM     22  N   UNL     1       7.367   5.266  15.199  0.00  0.00    +0.000 N 
ATOM     23  H   UNL     1       8.278   5.447  14.812  0.00  0.00    +0.000 HD
ENDBRANCH  14  19
ENDBRANCH   1  15
TORSDOF 3
ENDMDL
MODEL 5
REMARK VINA RESULT:      -7.5      2.701      3.455
REMARK  Name = 
REMARK  3 active torsions:
REMARK  status: ('A' for Active; 'I' for Inactive)
REMARK    1  A    between atoms: N_4  and  N_5
REMARK    2  A    between atoms: C_6  and  C_7
REMARK    3  A    between atoms: C_10  and  C_11
REMARK                            x       y       z     vdW  Elec       q    Type
REMARK                         _______ _______ _______ _____ _____    ______ ____
ROOT
ATOM      1  C   UNL     1       2.188   7.727  19.164  0.00  0.00    +0.000 A 
ATOM      2  C   UNL     1       2.258   8.590  18.091  0.00  0.00    +0.000 A 
ATOM      3  C   UNL     1       1.468   9.713  18.422  0.00  0.00    +0.000 A 
ATOM      4  C   UNL     1       0.961   9.489  19.687  0.00  0.00    +0.000 A 
ATOM      5  O   UNL     1       1.393   8.269  20.139  0.00  0.00    +0.000 OA
ENDROOT
BRANCH   4   6
ATOM      6  C   UNL     1       0.126  10.286  20.587  0.00  0.00    +0.000 A 
ATOM      7  C   UNL     1       0.065   9.957  21.952  0.00  0.00    +0.000 A 
ATOM      8  C   UNL     1      -0.770  10.656  22.829  0.00  0.00    +0.000 A 
ATOM      9  C   UNL     1      -1.560  11.701  22.356  0.00  0.00    +0.000 A 
ATOM     10 CL   UNL     1      -2.588  12.503  23.489  0.00  0.00    +0.000 Cl
ATOM     11  C   UNL     1      -1.501  12.055  21.003  0.00  0.00    +0.000 A 
ATOM     12 CL   UNL     1      -2.460  13.334  20.348  0.00  0.00    +0.000 Cl
ATOM     13  C   UNL     1      -0.658  11.354  20.128  0.00  0.00    +0.000 A 
ENDBRANCH   4   6
BRANCH   1  15
ATOM     14  N   UNL     1       3.179   5.745  18.359  0.00  0.00    +0.000 NA
ATOM     15  C   UNL     1       2.795   6.438  19.384  0.00  0.00    +0.000 C 
BRANCH  14  19
ATOM     16  O   UNL     1       3.702   1.043  18.580  0.00  0.00    +0.000 OA
ATOM     17  C   UNL     1       3.919   2.246  18.633  0.00  0.00    +0.000 C 
ATOM     18  C   UNL     1       2.955   3.336  18.220  0.00  0.00    +0.000 C 
ATOM     19  N   UNL     1       3.742   4.512  18.523  0.00  0.00    +0.000 N 
ATOM     20  C   UNL     1       4.990   4.168  19.061  0.00  0.00    +0.000 C 
ATOM     21  O   UNL     1       5.877   4.901  19.469  0.00  0.00    +0.000 OA
ATOM     22  N   UNL     1       5.069   2.810  19.082  0.00  0.00    +0.000 N 
ATOM     23  H   UNL     1       5.858   2.299  19.438  0.00  0.00    +0.000 HD
ENDBRANCH  14  19
ENDBRANCH   1  15
TORSDOF 3
ENDMDL
MODEL 6
REMARK VINA RESULT:      -7.5      2.091      3.145
REMARK  Name = 
REMARK  3 active torsions:
REMARK  status: ('A' for Active; 'I' for Inactive)
REMARK    1  A    between atoms: N_4  and  N_5
REMARK    2  A    between atoms: C_6  and  C_7
REMARK    3  A    between atoms: C_10  and  C_11
REMARK                            x       y       z     vdW  Elec       q    Type
REMARK                         _______ _______ _______ _____ _____    ______ ____
ROOT
ATOM      1  C   UNL     1       4.592   4.843  17.503  0.00  0.00    +0.000 A 
ATOM      2  C   UNL     1       4.744   4.448  18.816  0.00  0.00    +0.000 A 
ATOM      3  C   UNL     1       4.001   5.357  19.601  0.00  0.00    +0.000 A 
ATOM      4  C   UNL     1       3.419   6.258  18.731  0.00  0.00    +0.000 A 
ATOM      5  O   UNL     1       3.788   5.952  17.447  0.00  0.00    +0.000 OA
ENDROOT
BRANCH   4   6
ATOM      6  C   UNL     1       2.512   7.390  18.922  0.00  0.00    +0.000 A 
ATOM      7  C   UNL     1       2.265   8.270  17.854  0.00  0.00    +0.000 A 
ATOM      8  C   UNL     1       1.453   9.397  18.017  0.00  0.00    +0.000 A 
ATOM      9  C   UNL     1       0.870   9.664  19.254  0.00  0.00    +0.000 A 
ATOM     10 CL   UNL     1      -0.098  11.088  19.390  0.00  0.00    +0.000 Cl
ATOM     11  C   UNL     1       1.090   8.791  20.324  0.00  0.00    +0.000 A 
ATOM     12 CL   UNL     1       0.406   9.067  21.887  0.00  0.00    +0.000 Cl
ATOM     13  C   UNL     1       1.901   7.658  20.155  0.00  0.00    +0.000 A 
ENDBRANCH   4   6
BRANCH   1  15
ATOM     14  N   UNL     1       5.490   5.095  15.339  0.00  0.00    +0.000 NA
ATOM     15  C   UNL     1       5.115   4.289  16.281  0.00  0.00    +0.000 C 
BRANCH  14  19
ATOM     16  O   UNL     1       5.981   2.469  11.428  0.00  0.00    +0.000 OA
ATOM     17  C   UNL     1       6.165   3.297  12.310  0.00  0.00    +0.000 C 
ATOM     18  C   UNL     1       5.230   3.582  13.465  0.00  0.00    +0.000 C 
ATOM     19  N   UNL     1       5.975   4.610  14.158  0.00  0.00    +0.000 N 
ATOM     20  C   UNL     1       7.192   4.883  13.518  0.00  0.00    +0.000 C 
ATOM     21  O   UNL     1       8.079   5.651  13.852  0.00  0.00    +0.000 OA
ATOM     22  N   UNL     1       7.254   4.102  12.404  0.00  0.00    +0.000 N 
ATOM     23  H   UNL     1       8.035   4.089  11.771  0.00  0.00    +0.000 HD
ENDBRANCH  14  19
ENDBRANCH   1  15
TORSDOF 3
ENDMDL
MODEL 7
REMARK VINA RESULT:      -7.4      3.181      3.964
REMARK  Name = 
REMARK  3 active torsions:
REMARK  status: ('A' for Active; 'I' for Inactive)
REMARK    1  A    between atoms: N_4  and  N_5
REMARK    2  A    between atoms: C_6  and  C_7
REMARK    3  A    between atoms: C_10  and  C_11
REMARK                            x       y       z     vdW  Elec       q    Type
REMARK                         _______ _______ _______ _____ _____    ______ ____
ROOT
ATOM      1  C   UNL     1       2.103   7.800  19.147  0.00  0.00    +0.000 A 
ATOM      2  C   UNL     1       2.165   8.686  18.091  0.00  0.00    +0.000 A 
ATOM      3  C   UNL     1       1.372   9.798  18.448  0.00  0.00    +0.000 A 
ATOM      4  C   UNL     1       0.872   9.547  19.711  0.00  0.00    +0.000 A 
ATOM      5  O   UNL     1       1.310   8.319  20.137  0.00  0.00    +0.000 OA
ENDROOT
BRANCH   4   6
ATOM      6  C   UNL     1       0.038  10.322  20.631  0.00  0.00    +0.000 A 
ATOM      7  C   UNL     1      -0.029   9.955  21.985  0.00  0.00    +0.000 A 
ATOM      8  C   UNL     1      -0.863  10.632  22.879  0.00  0.00    +0.000 A 
ATOM      9  C   UNL     1      -1.646  11.695  22.434  0.00  0.00    +0.000 A 
ATOM     10 CL   UNL     1      -2.674  12.470  23.586  0.00  0.00    +0.000 Cl
ATOM     11  C   UNL     1      -1.581  12.087  21.092  0.00  0.00    +0.000 A 
ATOM     12 CL   UNL     1      -2.532  13.389  20.470  0.00  0.00    +0.000 Cl
ATOM     13  C   UNL     1      -0.739  11.407  20.200  0.00  0.00    +0.000 A 
ENDBRANCH   4   6
BRANCH   1  15
ATOM     14  N   UNL     1       2.344   5.524  18.584  0.00  0.00    +0.000 NA
ATOM     15  C   UNL     1       2.716   6.510  19.338  0.00  0.00    +0.000 C 
BRANCH  14  19
ATOM     16  O   UNL     1       4.985   1.960  20.243  0.00  0.00    +0.000 OA
ATOM     17  C   UNL     1       4.200   2.619  19.575  0.00  0.00    +0.000 C 
ATOM     18  C   UNL     1       3.788   4.048  19.852  0.00  0.00    +0.000 C 
ATOM     19  N   UNL     1       2.887   4.281  18.744  0.00  0.00    +0.000 N 
ATOM     20  C   UNL     1       2.795   3.156  17.914  0.00  0.00    +0.000 C 
ATOM     21  O   UNL     1       2.169   3.020  16.874  0.00  0.00    +0.000 OA
ATOM     22  N   UNL     1       3.567   2.177  18.459  0.00  0.00    +0.000 N 
ATOM     23  H   UNL     1       3.692   1.267  18.051  0.00  0.00    +0.000 HD
ENDBRANCH  14  19
ENDBRANCH   1  15
TORSDOF 3
ENDMDL
MODEL 8
REMARK VINA RESULT:      -7.3      6.891      8.870
REMARK  Name = 
REMARK  3 active torsions:
REMARK  status: ('A' for Active; 'I' for Inactive)
REMARK    1  A    between atoms: N_4  and  N_5
REMARK    2  A    between atoms: C_6  and  C_7
REMARK    3  A    between atoms: C_10  and  C_11
REMARK                            x       y       z     vdW  Elec       q    Type
REMARK                         _______ _______ _______ _____ _____    ______ ____
ROOT
ATOM      1  C   UNL     1       7.867   7.683  17.873  0.00  0.00    +0.000 A 
ATOM      2  C   UNL     1       7.931   6.626  18.757  0.00  0.00    +0.000 A 
ATOM      3  C   UNL     1       7.492   5.483  18.055  0.00  0.00    +0.000 A 
ATOM      4  C   UNL     1       7.190   5.890  16.770  0.00  0.00    +0.000 A 
ATOM      5  O   UNL     1       7.409   7.239  16.659  0.00  0.00    +0.000 OA
ENDROOT
BRANCH   4   6
ATOM      6  C   UNL     1       6.739   5.179  15.574  0.00  0.00    +0.000 A 
ATOM      7  C   UNL     1       5.720   4.218  15.680  0.00  0.00    +0.000 A 
ATOM      8  C   UNL     1       5.307   3.474  14.571  0.00  0.00    +0.000 A 
ATOM      9  C   UNL     1       5.906   3.680  13.330  0.00  0.00    +0.000 A 
ATOM     10 CL   UNL     1       5.366   2.706  12.009  0.00  0.00    +0.000 Cl
ATOM     11  C   UNL     1       6.911   4.644  13.200  0.00  0.00    +0.000 A 
ATOM     12 CL   UNL     1       7.705   4.944  11.694  0.00  0.00    +0.000 Cl
ATOM     13  C   UNL     1       7.319   5.392  14.315  0.00  0.00    +0.000 A 
ENDBRANCH   4   6
BRANCH   1  15
ATOM     14  N   UNL     1       9.096   9.409  18.906  0.00  0.00    +0.000 NA
ATOM     15  C   UNL     1       8.195   9.076  18.036  0.00  0.00    +0.000 C 
BRANCH  14  19
ATOM     16  O   UNL     1      10.783  13.773  18.174  0.00  0.00    +0.000 OA
ATOM     17  C   UNL     1      10.275  12.789  18.694  0.00  0.00    +0.000 C 
ATOM     18  C   UNL     1       9.989  11.473  18.005  0.00  0.00    +0.000 C 
ATOM     19  N   UNL     1       9.424  10.719  19.104  0.00  0.00    +0.000 N 
ATOM     20  C   UNL     1       9.399  11.474  20.284  0.00  0.00    +0.000 C 
ATOM     21  O   UNL     1       9.036  11.139  21.401  0.00  0.00    +0.000 OA
ATOM     22  N   UNL     1       9.885  12.711  19.992  0.00  0.00    +0.000 N 
ATOM     23  H   UNL     1       9.992  13.447  20.669  0.00  0.00    +0.000 HD
ENDBRANCH  14  19
ENDBRANCH   1  15
TORSDOF 3
ENDMDL
MODEL 9
REMARK VINA RESULT:      -7.3      5.167      8.747
REMARK  Name = 
REMARK  3 active torsions:
REMARK  status: ('A' for Active; 'I' for Inactive)
REMARK    1  A    between atoms: N_4  and  N_5
REMARK    2  A    between atoms: C_6  and  C_7
REMARK    3  A    between atoms: C_10  and  C_11
REMARK                            x       y       z     vdW  Elec       q    Type
REMARK                         _______ _______ _______ _____ _____    ______ ____
ROOT
ATOM      1  C   UNL     1       1.481   9.236  18.954  0.00  0.00    +0.000 A 
ATOM      2  C   UNL     1       2.018   9.274  17.684  0.00  0.00    +0.000 A 
ATOM      3  C   UNL     1       2.738   8.072  17.512  0.00  0.00    +0.000 A 
ATOM      4  C   UNL     1       2.599   7.348  18.681  0.00  0.00    +0.000 A 
ATOM      5  O   UNL     1       1.838   8.064  19.569  0.00  0.00    +0.000 OA
ENDROOT
BRANCH   4   6
ATOM      6  C   UNL     1       3.061   6.025  19.101  0.00  0.00    +0.000 A 
ATOM      7  C   UNL     1       4.193   5.458  18.491  0.00  0.00    +0.000 A 
ATOM      8  C   UNL     1       4.626   4.171  18.821  0.00  0.00    +0.000 A 
ATOM      9  C   UNL     1       3.935   3.425  19.773  0.00  0.00    +0.000 A 
ATOM     10 CL   UNL     1       4.509   1.832  20.113  0.00  0.00    +0.000 Cl
ATOM     11  C   UNL     1       2.815   3.978  20.405  0.00  0.00    +0.000 A 
ATOM     12 CL   UNL     1       1.905   3.105  21.587  0.00  0.00    +0.000 Cl
ATOM     13  C   UNL     1       2.387   5.272  20.073  0.00  0.00    +0.000 A 
ENDBRANCH   4   6
BRANCH   1  15
ATOM     14  N   UNL     1       0.132   9.830  20.794  0.00  0.00    +0.000 NA
ATOM     15  C   UNL     1       0.658  10.182  19.663  0.00  0.00    +0.000 C 
BRANCH  14  19
ATOM     16  O   UNL     1      -2.787  13.420  21.803  0.00  0.00    +0.000 OA
ATOM     17  C   UNL     1      -2.053  12.447  21.907  0.00  0.00    +0.000 C 
ATOM     18  C   UNL     1      -1.417  11.692  20.760  0.00  0.00    +0.000 C 
ATOM     19  N   UNL     1      -0.669  10.690  21.489  0.00  0.00    +0.000 N 
ATOM     20  C   UNL     1      -0.820  10.843  22.873  0.00  0.00    +0.000 C 
ATOM     21  O   UNL     1      -0.298  10.208  23.776  0.00  0.00    +0.000 OA
ATOM     22  N   UNL     1      -1.676  11.880  23.082  0.00  0.00    +0.000 N 
ATOM     23  H   UNL     1      -1.944  12.213  23.992  0.00  0.00    +0.000 HD
ENDBRANCH  14  19
ENDBRANCH   1  15
TORSDOF 3
ENDMDL
