MODEL 1
REMARK VINA RESULT:      -8.1      0.000      0.000
REMARK  Name = 
REMARK  5 active torsions:
REMARK  status: ('A' for Active; 'I' for Inactive)
REMARK    1  A    between atoms: C_2  and  O_3
REMARK    2  A    between atoms: C_2  and  C_16
REMARK    3  A    between atoms: O_3  and  C_4
REMARK    4  A    between atoms: C_7  and  N_8
REMARK    5  A    between atoms: C_12  and  N_13
REMARK                            x       y       z     vdW  Elec       q    Type
REMARK                         _______ _______ _______ _____ _____    ______ ____
ROOT
ATOM      1  C   UNL     1       4.845   6.244  17.760  0.00  0.00    +0.000 A 
ATOM      2  C   UNL     1       4.547   6.746  16.484  0.00  0.00    +0.000 A 
ATOM      3  C   UNL     1       5.235   6.283  15.359  0.00  0.00    +0.000 A 
ATOM      4  C   UNL     1       6.214   5.296  15.503  0.00  0.00    +0.000 A 
ATOM      5  C   UNL     1       6.483   4.737  16.760  0.00  0.00    +0.000 A 
ATOM      6  C   UNL     1       5.782   5.204  17.891  0.00  0.00    +0.000 A 
ENDROOT
BRANCH   4   7
ATOM      7  N   UNL     1       6.963   4.839  14.322  0.00  0.00    +0.000 N 
ATOM      8  O   UNL     1       7.951   5.502  13.978  0.00  0.00    +0.000 OA
ATOM      9  O   UNL     1       6.560   3.822  13.747  0.00  0.00    +0.000 OA
ENDBRANCH   4   7
BRANCH   6  10
ATOM     10  N   UNL     1       6.048   4.547  19.182  0.00  0.00    +0.000 N 
ATOM     11  O   UNL     1       6.895   5.039  19.940  0.00  0.00    +0.000 OA
ATOM     12  O   UNL     1       5.387   3.535  19.452  0.00  0.00    +0.000 OA
ENDBRANCH   6  10
BRANCH   1  13
ATOM     13  O   UNL     1       4.140   6.740  18.882  0.00  0.00    +0.000 OA
BRANCH  13  15
ATOM     14  O   UNL     1       2.020   7.716  18.841  0.00  0.00    +0.000 OA
ATOM     15  C   UNL     1       2.749   6.738  18.913  0.00  0.00    +0.000 C 
BRANCH  15  16
ATOM     16  C   UNL     1       2.229   5.345  18.988  0.00  0.00    +0.000 A 
ATOM     17  C   UNL     1       1.819   4.633  17.852  0.00  0.00    +0.000 A 
ATOM     18  C   UNL     1       1.294   3.343  17.983  0.00  0.00    +0.000 A 
ATOM     19  C   UNL     1       1.182   2.758  19.243  0.00  0.00    +0.000 A 
ATOM     20  C   UNL     1       1.611   3.454  20.371  0.00  0.00    +0.000 A 
ATOM     21 CL   UNL     1       1.477   2.726  21.923  0.00  0.00    +0.000 Cl
ATOM     22  C   UNL     1       2.139   4.740  20.251  0.00  0.00    +0.000 A 
ENDBRANCH  15  16
ENDBRANCH  13  15
ENDBRANCH   1  13
TORSDOF 5
ENDMDL
MODEL 2
REMARK VINA RESULT:      -7.7      2.162      2.743
REMARK  Name = 
REMARK  5 active torsions:
REMARK  status: ('A' for Active; 'I' for Inactive)
REMARK    1  A    between atoms: C_2  and  O_3
REMARK    2  A    between atoms: C_2  and  C_16
REMARK    3  A    between atoms: O_3  and  C_4
REMARK    4  A    between atoms: C_7  and  N_8
REMARK    5  A    between atoms: C_12  and  N_13
REMARK                            x       y       z     vdW  Elec       q    Type
REMARK                         _______ _______ _______ _____ _____    ______ ____
ROOT
ATOM      1  C   UNL     1       5.874   4.408  18.009  0.00  0.00    +0.000 A 
ATOM      2  C   UNL     1       5.199   3.718  16.991  0.00  0.00    +0.000 A 
ATOM      3  C   UNL     1       5.600   3.844  15.659  0.00  0.00    +0.000 A 
ATOM      4  C   UNL     1       6.697   4.649  15.338  0.00  0.00    +0.000 A 
ATOM      5  C   UNL     1       7.424   5.298  16.347  0.00  0.00    +0.000 A 
ATOM      6  C   UNL     1       7.018   5.162  17.691  0.00  0.00    +0.000 A 
ENDROOT
BRANCH   4   7
ATOM      7  N   UNL     1       7.093   4.811  13.931  0.00  0.00    +0.000 N 
ATOM      8  O   UNL     1       7.955   5.661  13.672  0.00  0.00    +0.000 OA
ATOM      9  O   UNL     1       6.539   4.089  13.094  0.00  0.00    +0.000 OA
ENDBRANCH   4   7
BRANCH   6  10
ATOM     10  N   UNL     1       7.844   5.806  18.725  0.00  0.00    +0.000 N 
ATOM     11  O   UNL     1       8.278   5.119  19.658  0.00  0.00    +0.000 OA
ATOM     12  O   UNL     1       8.080   7.016  18.592  0.00  0.00    +0.000 OA
ENDBRANCH   6  10
BRANCH   1  13
ATOM     13  O   UNL     1       5.438   4.270  19.348  0.00  0.00    +0.000 OA
BRANCH  13  15
ATOM     14  O   UNL     1       5.093   2.038  19.938  0.00  0.00    +0.000 OA
ATOM     15  C   UNL     1       4.681   3.172  19.745  0.00  0.00    +0.000 C 
BRANCH  15  16
ATOM     16  C   UNL     1       3.264   3.568  19.975  0.00  0.00    +0.000 A 
ATOM     17  C   UNL     1       2.201   2.661  19.854  0.00  0.00    +0.000 A 
ATOM     18  C   UNL     1       0.884   3.095  20.036  0.00  0.00    +0.000 A 
ATOM     19  C   UNL     1       0.623   4.429  20.342  0.00  0.00    +0.000 A 
ATOM     20  C   UNL     1       1.678   5.327  20.487  0.00  0.00    +0.000 A 
ATOM     21 CL   UNL     1       1.353   6.971  20.871  0.00  0.00    +0.000 Cl
ATOM     22  C   UNL     1       2.996   4.904  20.311  0.00  0.00    +0.000 A 
ENDBRANCH  15  16
ENDBRANCH  13  15
ENDBRANCH   1  13
TORSDOF 5
ENDMDL
MODEL 3
REMARK VINA RESULT:      -7.6      1.188      1.467
REMARK  Name = 
REMARK  5 active torsions:
REMARK  status: ('A' for Active; 'I' for Inactive)
REMARK    1  A    between atoms: C_2  and  O_3
REMARK    2  A    between atoms: C_2  and  C_16
REMARK    3  A    between atoms: O_3  and  C_4
REMARK    4  A    between atoms: C_7  and  N_8
REMARK    5  A    between atoms: C_12  and  N_13
REMARK                            x       y       z     vdW  Elec       q    Type
REMARK                         _______ _______ _______ _____ _____    ______ ____
ROOT
ATOM      1  C   UNL     1       5.400   5.319  17.509  0.00  0.00    +0.000 A 
ATOM      2  C   UNL     1       4.687   4.807  16.416  0.00  0.00    +0.000 A 
ATOM      3  C   UNL     1       5.303   4.658  15.171  0.00  0.00    +0.000 A 
ATOM      4  C   UNL     1       6.649   5.002  15.018  0.00  0.00    +0.000 A 
ATOM      5  C   UNL     1       7.396   5.458  16.113  0.00  0.00    +0.000 A 
ATOM      6  C   UNL     1       6.771   5.601  17.368  0.00  0.00    +0.000 A 
ENDROOT
BRANCH   4   7
ATOM      7  N   UNL     1       7.284   4.881  13.696  0.00  0.00    +0.000 N 
ATOM      8  O   UNL     1       8.276   5.587  13.470  0.00  0.00    +0.000 OA
ATOM      9  O   UNL     1       6.788   4.082  12.894  0.00  0.00    +0.000 OA
ENDBRANCH   4   7
BRANCH   6  10
ATOM     10  N   UNL     1       7.605   6.021  18.506  0.00  0.00    +0.000 N 
ATOM     11  O   UNL     1       7.837   5.208  19.410  0.00  0.00    +0.000 OA
ATOM     12  O   UNL     1       8.053   7.176  18.487  0.00  0.00    +0.000 OA
ENDBRANCH   6  10
BRANCH   1  13
ATOM     13  O   UNL     1       4.746   5.470  18.755  0.00  0.00    +0.000 OA
BRANCH  13  15
ATOM     14  O   UNL     1       3.032   7.052  18.676  0.00  0.00    +0.000 OA
ATOM     15  C   UNL     1       3.426   5.905  18.823  0.00  0.00    +0.000 C 
BRANCH  15  16
ATOM     16  C   UNL     1       2.507   4.755  19.045  0.00  0.00    +0.000 A 
ATOM     17  C   UNL     1       1.677   4.249  18.034  0.00  0.00    +0.000 A 
ATOM     18  C   UNL     1       0.798   3.196  18.308  0.00  0.00    +0.000 A 
ATOM     19  C   UNL     1       0.746   2.643  19.587  0.00  0.00    +0.000 A 
ATOM     20  C   UNL     1       1.587   3.128  20.587  0.00  0.00    +0.000 A 
ATOM     21 CL   UNL     1       1.524   2.439  22.161  0.00  0.00    +0.000 Cl
ATOM     22  C   UNL     1       2.469   4.176  20.323  0.00  0.00    +0.000 A 
ENDBRANCH  15  16
ENDBRANCH  13  15
ENDBRANCH   1  13
TORSDOF 5
ENDMDL
MODEL 4
REMARK VINA RESULT:      -7.6      0.817      1.138
REMARK  Name = 
REMARK  5 active torsions:
REMARK  status: ('A' for Active; 'I' for Inactive)
REMARK    1  A    between atoms: C_2  and  O_3
REMARK    2  A    between atoms: C_2  and  C_16
REMARK    3  A    between atoms: O_3  and  C_4
REMARK    4  A    between atoms: C_7  and  N_8
REMARK    5  A    between atoms: C_12  and  N_13
REMARK                            x       y       z     vdW  Elec       q    Type
REMARK                         _______ _______ _______ _____ _____    ______ ____
ROOT
ATOM      1  C   UNL     1       4.909   5.757  17.978  0.00  0.00    +0.000 A 
ATOM      2  C   UNL     1       5.131   6.747  17.009  0.00  0.00    +0.000 A 
ATOM      3  C   UNL     1       5.754   6.431  15.799  0.00  0.00    +0.000 A 
ATOM      4  C   UNL     1       6.142   5.113  15.542  0.00  0.00    +0.000 A 
ATOM      5  C   UNL     1       5.874   4.098  16.471  0.00  0.00    +0.000 A 
ATOM      6  C   UNL     1       5.239   4.421  17.688  0.00  0.00    +0.000 A 
ENDROOT
BRANCH   4   7
ATOM      7  N   UNL     1       6.833   4.792  14.284  0.00  0.00    +0.000 N 
ATOM      8  O   UNL     1       6.397   3.845  13.616  0.00  0.00    +0.000 OA
ATOM      9  O   UNL     1       7.807   5.487  13.973  0.00  0.00    +0.000 OA
ENDBRANCH   4   7
BRANCH   6  10
ATOM     10  N   UNL     1       4.918   3.317  18.608  0.00  0.00    +0.000 N 
ATOM     11  O   UNL     1       5.409   3.324  19.745  0.00  0.00    +0.000 OA
ATOM     12  O   UNL     1       4.147   2.439  18.195  0.00  0.00    +0.000 OA
ENDBRANCH   6  10
BRANCH   1  13
ATOM     13  O   UNL     1       4.287   6.109  19.199  0.00  0.00    +0.000 OA
BRANCH  13  15
ATOM     14  O   UNL     1       2.364   7.432  19.234  0.00  0.00    +0.000 OA
ATOM     15  C   UNL     1       2.917   6.343  19.263  0.00  0.00    +0.000 C 
BRANCH  15  16
ATOM     16  C   UNL     1       2.167   5.057  19.315  0.00  0.00    +0.000 A 
ATOM     17  C   UNL     1       1.512   4.522  18.196  0.00  0.00    +0.000 A 
ATOM     18  C   UNL     1       0.784   3.334  18.310  0.00  0.00    +0.000 A 
ATOM     19  C   UNL     1       0.710   2.673  19.535  0.00  0.00    +0.000 A 
ATOM     20  C   UNL     1       1.380   3.189  20.642  0.00  0.00    +0.000 A 
ATOM     21 CL   UNL     1       1.293   2.367  22.151  0.00  0.00    +0.000 Cl
ATOM     22  C   UNL     1       2.112   4.372  20.539  0.00  0.00    +0.000 A 
ENDBRANCH  15  16
ENDBRANCH  13  15
ENDBRANCH   1  13
TORSDOF 5
ENDMDL
MODEL 5
REMARK VINA RESULT:      -7.6      1.438      2.009
REMARK  Name = 
REMARK  5 active torsions:
REMARK  status: ('A' for Active; 'I' for Inactive)
REMARK    1  A    between atoms: C_2  and  O_3
REMARK    2  A    between atoms: C_2  and  C_16
REMARK    3  A    between atoms: O_3  and  C_4
REMARK    4  A    between atoms: C_7  and  N_8
REMARK    5  A    between atoms: C_12  and  N_13
REMARK                            x       y       z     vdW  Elec       q    Type
REMARK                         _______ _______ _______ _____ _____    ______ ____
ROOT
ATOM      1  C   UNL     1       5.376   5.492  17.858  0.00  0.00    +0.000 A 
ATOM      2  C   UNL     1       4.584   5.012  16.805  0.00  0.00    +0.000 A 
ATOM      3  C   UNL     1       5.138   4.794  15.541  0.00  0.00    +0.000 A 
ATOM      4  C   UNL     1       6.498   5.037  15.328  0.00  0.00    +0.000 A 
ATOM      5  C   UNL     1       7.319   5.459  16.383  0.00  0.00    +0.000 A 
ATOM      6  C   UNL     1       6.756   5.671  17.659  0.00  0.00    +0.000 A 
ENDROOT
BRANCH   4   7
ATOM      7  N   UNL     1       7.069   4.844  13.986  0.00  0.00    +0.000 N 
ATOM      8  O   UNL     1       8.044   5.541  13.673  0.00  0.00    +0.000 OA
ATOM      9  O   UNL     1       6.541   3.999  13.256  0.00  0.00    +0.000 OA
ENDBRANCH   4   7
BRANCH   6  10
ATOM     10  N   UNL     1       7.664   6.051  18.754  0.00  0.00    +0.000 N 
ATOM     11  O   UNL     1       7.885   5.235  19.658  0.00  0.00    +0.000 OA
ATOM     12  O   UNL     1       8.179   7.177  18.700  0.00  0.00    +0.000 OA
ENDBRANCH   6  10
BRANCH   1  13
ATOM     13  O   UNL     1       4.785   5.715  19.125  0.00  0.00    +0.000 OA
BRANCH  13  15
ATOM     14  O   UNL     1       2.888   7.050  18.862  0.00  0.00    +0.000 OA
ATOM     15  C   UNL     1       3.433   6.023  19.239  0.00  0.00    +0.000 C 
BRANCH  15  16
ATOM     16  C   UNL     1       2.686   4.887  19.847  0.00  0.00    +0.000 A 
ATOM     17  C   UNL     1       2.715   4.618  21.223  0.00  0.00    +0.000 A 
ATOM     18  C   UNL     1       2.032   3.511  21.737  0.00  0.00    +0.000 A 
ATOM     19  C   UNL     1       1.316   2.673  20.884  0.00  0.00    +0.000 A 
ATOM     20  C   UNL     1       1.265   2.952  19.520  0.00  0.00    +0.000 A 
ATOM     21 CL   UNL     1       0.375   1.920  18.471  0.00  0.00    +0.000 Cl
ATOM     22  C   UNL     1       1.940   4.056  18.997  0.00  0.00    +0.000 A 
ENDBRANCH  15  16
ENDBRANCH  13  15
ENDBRANCH   1  13
TORSDOF 5
ENDMDL
MODEL 6
REMARK VINA RESULT:      -7.6      1.040      1.562
REMARK  Name = 
REMARK  5 active torsions:
REMARK  status: ('A' for Active; 'I' for Inactive)
REMARK    1  A    between atoms: C_2  and  O_3
REMARK    2  A    between atoms: C_2  and  C_16
REMARK    3  A    between atoms: O_3  and  C_4
REMARK    4  A    between atoms: C_7  and  N_8
REMARK    5  A    between atoms: C_12  and  N_13
REMARK                            x       y       z     vdW  Elec       q    Type
REMARK                         _______ _______ _______ _____ _____    ______ ____
ROOT
ATOM      1  C   UNL     1       4.890   6.322  17.705  0.00  0.00    +0.000 A 
ATOM      2  C   UNL     1       4.554   6.754  16.414  0.00  0.00    +0.000 A 
ATOM      3  C   UNL     1       5.249   6.276  15.301  0.00  0.00    +0.000 A 
ATOM      4  C   UNL     1       6.276   5.343  15.472  0.00  0.00    +0.000 A 
ATOM      5  C   UNL     1       6.586   4.852  16.749  0.00  0.00    +0.000 A 
ATOM      6  C   UNL     1       5.877   5.334  17.868  0.00  0.00    +0.000 A 
ENDROOT
BRANCH   4   7
ATOM      7  N   UNL     1       7.032   4.871  14.302  0.00  0.00    +0.000 N 
ATOM      8  O   UNL     1       6.611   3.865  13.714  0.00  0.00    +0.000 OA
ATOM      9  O   UNL     1       8.041   5.508  13.979  0.00  0.00    +0.000 OA
ENDBRANCH   4   7
BRANCH   6  10
ATOM     10  N   UNL     1       6.189   4.747  19.182  0.00  0.00    +0.000 N 
ATOM     11  O   UNL     1       7.008   5.319  19.914  0.00  0.00    +0.000 OA
ATOM     12  O   UNL     1       5.592   3.707  19.497  0.00  0.00    +0.000 OA
ENDBRANCH   6  10
BRANCH   1  13
ATOM     13  O   UNL     1       4.176   6.833  18.816  0.00  0.00    +0.000 OA
BRANCH  13  15
ATOM     14  O   UNL     1       2.038   7.725  18.531  0.00  0.00    +0.000 OA
ATOM     15  C   UNL     1       2.785   6.810  18.845  0.00  0.00    +0.000 C 
BRANCH  15  16
ATOM     16  C   UNL     1       2.292   5.469  19.263  0.00  0.00    +0.000 A 
ATOM     17  C   UNL     1       1.718   5.238  20.521  0.00  0.00    +0.000 A 
ATOM     18  C   UNL     1       1.313   3.949  20.882  0.00  0.00    +0.000 A 
ATOM     19  C   UNL     1       1.472   2.889  19.990  0.00  0.00    +0.000 A 
ATOM     20  C   UNL     1       2.019   3.121  18.730  0.00  0.00    +0.000 A 
ATOM     21 CL   UNL     1       2.209   1.813  17.629  0.00  0.00    +0.000 Cl
ATOM     22  C   UNL     1       2.425   4.404  18.359  0.00  0.00    +0.000 A 
ENDBRANCH  15  16
ENDBRANCH  13  15
ENDBRANCH   1  13
TORSDOF 5
ENDMDL
MODEL 7
REMARK VINA RESULT:      -7.5      2.204      3.052
REMARK  Name = 
REMARK  5 active torsions:
REMARK  status: ('A' for Active; 'I' for Inactive)
REMARK    1  A    between atoms: C_2  and  O_3
REMARK    2  A    between atoms: C_2  and  C_16
REMARK    3  A    between atoms: O_3  and  C_4
REMARK    4  A    between atoms: C_7  and  N_8
REMARK    5  A    between atoms: C_12  and  N_13
REMARK                            x       y       z     vdW  Elec       q    Type
REMARK                         _______ _______ _______ _____ _____    ______ ____
ROOT
ATOM      1  C   UNL     1       5.247   4.944  18.005  0.00  0.00    +0.000 A 
ATOM      2  C   UNL     1       4.576   4.341  16.932  0.00  0.00    +0.000 A 
ATOM      3  C   UNL     1       5.168   4.274  15.669  0.00  0.00    +0.000 A 
ATOM      4  C   UNL     1       6.451   4.794  15.476  0.00  0.00    +0.000 A 
ATOM      5  C   UNL     1       7.164   5.347  16.549  0.00  0.00    +0.000 A 
ATOM      6  C   UNL     1       6.563   5.406  17.824  0.00  0.00    +0.000 A 
ENDROOT
BRANCH   4   7
ATOM      7  N   UNL     1       7.056   4.758  14.136  0.00  0.00    +0.000 N 
ATOM      8  O   UNL     1       6.590   3.954  13.318  0.00  0.00    +0.000 OA
ATOM      9  O   UNL     1       7.992   5.533  13.910  0.00  0.00    +0.000 OA
ENDBRANCH   4   7
BRANCH   6  10
ATOM     10  N   UNL     1       7.369   5.935  18.938  0.00  0.00    +0.000 N 
ATOM     11  O   UNL     1       7.326   5.360  20.033  0.00  0.00    +0.000 OA
ATOM     12  O   UNL     1       8.071   6.930  18.709  0.00  0.00    +0.000 OA
ENDBRANCH   6  10
BRANCH   1  13
ATOM     13  O   UNL     1       4.617   5.009  19.271  0.00  0.00    +0.000 OA
BRANCH  13  15
ATOM     14  O   UNL     1       2.564   3.944  19.585  0.00  0.00    +0.000 OA
ATOM     15  C   UNL     1       3.232   4.947  19.385  0.00  0.00    +0.000 C 
BRANCH  15  16
ATOM     16  C   UNL     1       2.637   6.309  19.288  0.00  0.00    +0.000 A 
ATOM     17  C   UNL     1       2.639   7.048  18.096  0.00  0.00    +0.000 A 
ATOM     18  C   UNL     1       2.108   8.341  18.070  0.00  0.00    +0.000 A 
ATOM     19  C   UNL     1       1.569   8.899  19.229  0.00  0.00    +0.000 A 
ATOM     20  C   UNL     1       1.543   8.158  20.408  0.00  0.00    +0.000 A 
ATOM     21 CL   UNL     1       0.872   8.847  21.833  0.00  0.00    +0.000 Cl
ATOM     22  C   UNL     1       2.068   6.866  20.444  0.00  0.00    +0.000 A 
ENDBRANCH  15  16
ENDBRANCH  13  15
ENDBRANCH   1  13
TORSDOF 5
ENDMDL
MODEL 8
REMARK VINA RESULT:      -7.5      1.545      1.997
REMARK  Name = 
REMARK  5 active torsions:
REMARK  status: ('A' for Active; 'I' for Inactive)
REMARK    1  A    between atoms: C_2  and  O_3
REMARK    2  A    between atoms: C_2  and  C_16
REMARK    3  A    between atoms: O_3  and  C_4
REMARK    4  A    between atoms: C_7  and  N_8
REMARK    5  A    between atoms: C_12  and  N_13
REMARK                            x       y       z     vdW  Elec       q    Type
REMARK                         _______ _______ _______ _____ _____    ______ ____
ROOT
ATOM      1  C   UNL     1       5.683   4.455  16.832  0.00  0.00    +0.000 A 
ATOM      2  C   UNL     1       5.073   3.945  15.677  0.00  0.00    +0.000 A 
ATOM      3  C   UNL     1       5.669   4.112  14.425  0.00  0.00    +0.000 A 
ATOM      4  C   UNL     1       6.894   4.777  14.323  0.00  0.00    +0.000 A 
ATOM      5  C   UNL     1       7.550   5.242  15.472  0.00  0.00    +0.000 A 
ATOM      6  C   UNL     1       6.947   5.064  16.734  0.00  0.00    +0.000 A 
ENDROOT
BRANCH   4   7
ATOM      7  N   UNL     1       7.499   4.987  12.999  0.00  0.00    +0.000 N 
ATOM      8  O   UNL     1       7.174   4.210  12.090  0.00  0.00    +0.000 OA
ATOM      9  O   UNL     1       8.294   5.925  12.875  0.00  0.00    +0.000 OA
ENDBRANCH   4   7
BRANCH   6  10
ATOM     10  N   UNL     1       7.697   5.508  17.921  0.00  0.00    +0.000 N 
ATOM     11  O   UNL     1       7.772   6.720  18.162  0.00  0.00    +0.000 OA
ATOM     12  O   UNL     1       8.203   4.631  18.635  0.00  0.00    +0.000 OA
ENDBRANCH   6  10
BRANCH   1  13
ATOM     13  O   UNL     1       5.050   4.281  18.086  0.00  0.00    +0.000 OA
BRANCH  13  15
ATOM     14  O   UNL     1       3.904   6.284  18.436  0.00  0.00    +0.000 OA
ATOM     15  C   UNL     1       3.960   5.064  18.453  0.00  0.00    +0.000 C 
BRANCH  15  16
ATOM     16  C   UNL     1       2.801   4.206  18.827  0.00  0.00    +0.000 A 
ATOM     17  C   UNL     1       1.819   3.823  17.903  0.00  0.00    +0.000 A 
ATOM     18  C   UNL     1       0.727   3.054  18.318  0.00  0.00    +0.000 A 
ATOM     19  C   UNL     1       0.613   2.661  19.650  0.00  0.00    +0.000 A 
ATOM     20  C   UNL     1       1.600   3.019  20.565  0.00  0.00    +0.000 A 
ATOM     21 CL   UNL     1       1.460   2.527  22.207  0.00  0.00    +0.000 Cl
ATOM     22  C   UNL     1       2.695   3.784  20.162  0.00  0.00    +0.000 A 
ENDBRANCH  15  16
ENDBRANCH  13  15
ENDBRANCH   1  13
TORSDOF 5
ENDMDL
MODEL 9
REMARK VINA RESULT:      -7.4      3.309      6.424
REMARK  Name = 
REMARK  5 active torsions:
REMARK  status: ('A' for Active; 'I' for Inactive)
REMARK    1  A    between atoms: C_2  and  O_3
REMARK    2  A    between atoms: C_2  and  C_16
REMARK    3  A    between atoms: O_3  and  C_4
REMARK    4  A    between atoms: C_7  and  N_8
REMARK    5  A    between atoms: C_12  and  N_13
REMARK                            x       y       z     vdW  Elec       q    Type
REMARK                         _______ _______ _______ _____ _____    ______ ____
ROOT
ATOM      1  C   UNL     1       4.621   4.847  17.305  0.00  0.00    +0.000 A 
ATOM      2  C   UNL     1       4.479   6.208  16.997  0.00  0.00    +0.000 A 
ATOM      3  C   UNL     1       3.655   7.030  17.769  0.00  0.00    +0.000 A 
ATOM      4  C   UNL     1       2.982   6.498  18.872  0.00  0.00    +0.000 A 
ATOM      5  C   UNL     1       3.158   5.155  19.234  0.00  0.00    +0.000 A 
ATOM      6  C   UNL     1       3.996   4.331  18.454  0.00  0.00    +0.000 A 
ENDROOT
BRANCH   4   7
ATOM      7  N   UNL     1       2.084   7.358  19.659  0.00  0.00    +0.000 N 
ATOM      8  O   UNL     1       1.805   8.472  19.196  0.00  0.00    +0.000 OA
ATOM      9  O   UNL     1       1.665   6.914  20.734  0.00  0.00    +0.000 OA
ENDBRANCH   4   7
BRANCH   6  10
ATOM     10  N   UNL     1       4.205   2.945  18.905  0.00  0.00    +0.000 N 
ATOM     11  O   UNL     1       3.605   2.030  18.324  0.00  0.00    +0.000 OA
ATOM     12  O   UNL     1       4.996   2.764  19.841  0.00  0.00    +0.000 OA
ENDBRANCH   6  10
BRANCH   1  13
ATOM     13  O   UNL     1       5.453   4.035  16.498  0.00  0.00    +0.000 OA
BRANCH  13  15
ATOM     14  O   UNL     1       7.640   4.744  16.906  0.00  0.00    +0.000 OA
ATOM     15  C   UNL     1       6.732   4.452  16.141  0.00  0.00    +0.000 C 
BRANCH  15  16
ATOM     16  C   UNL     1       6.891   4.447  14.661  0.00  0.00    +0.000 A 
ATOM     17  C   UNL     1       7.801   5.283  13.999  0.00  0.00    +0.000 A 
ATOM     18  C   UNL     1       7.878   5.272  12.603  0.00  0.00    +0.000 A 
ATOM     19  C   UNL     1       7.055   4.424  11.863  0.00  0.00    +0.000 A 
ATOM     20  C   UNL     1       6.167   3.574  12.519  0.00  0.00    +0.000 A 
ATOM     21 CL   UNL     1       5.157   2.525  11.604  0.00  0.00    +0.000 Cl
ATOM     22  C   UNL     1       6.084   3.576  13.912  0.00  0.00    +0.000 A 
ENDBRANCH  15  16
ENDBRANCH  13  15
ENDBRANCH   1  13
TORSDOF 5
ENDMDL
