MODEL 1
REMARK VINA RESULT:      -7.9      0.000      0.000
REMARK  Name = 
REMARK  5 active torsions:
REMARK  status: ('A' for Active; 'I' for Inactive)
REMARK    1  A    between atoms: C_1  and  O_2
REMARK    2  A    between atoms: O_2  and  C_3
REMARK    3  A    between atoms: C_3  and  C_5
REMARK    4  A    between atoms: C_11  and  C_12
REMARK    5  A    between atoms: C_15  and  C_16
REMARK                            x       y       z     vdW  Elec       q    Type
REMARK                         _______ _______ _______ _____ _____    ______ ____
ROOT
ATOM      1  C   UNL     1       6.654   5.717  17.632  0.00  0.00    +0.000 C 
ATOM      2  C   UNL     1       7.150   4.896  16.421  0.00  0.00    +0.000 C 
ATOM      3  C   UNL     1       6.244   3.702  16.104  0.00  0.00    +0.000 C 
ATOM      4  C   UNL     1       5.261   4.237  15.060  0.00  0.00    +0.000 C 
ATOM      5  C   UNL     1       5.600   5.716  14.937  0.00  0.00    +0.000 C 
ATOM      6  C   UNL     1       4.937   6.637  15.981  0.00  0.00    +0.000 C 
ATOM      7  C   UNL     1       5.202   6.263  17.468  0.00  0.00    +0.000 C 
ATOM      8  N   UNL     1       7.046   5.668  15.175  0.00  0.00    +0.000 NA
ATOM      9  H   UNL     1       7.429   6.613  15.295  0.00  0.00    +0.000 HD
ENDROOT
BRANCH   7  10
ATOM     10  C   UNL     1       4.132   5.410  18.174  0.00  0.00    +0.000 A 
ATOM     11  C   UNL     1       2.789   5.505  17.760  0.00  0.00    +0.000 A 
ATOM     12  C   UNL     1       1.779   4.709  18.328  0.00  0.00    +0.000 A 
ATOM     13  C   UNL     1       2.086   3.776  19.319  0.00  0.00    +0.000 A 
ATOM     14  C   UNL     1       1.031   2.903  19.928  0.00  0.00    +0.000 C 
ATOM     15  C   UNL     1       3.411   3.666  19.724  0.00  0.00    +0.000 A 
ATOM     16  F   UNL     1       3.748   2.773  20.668  0.00  0.00    +0.000 F 
ATOM     17  C   UNL     1       4.419   4.455  19.161  0.00  0.00    +0.000 A 
ENDBRANCH   7  10
BRANCH   1  18
ATOM     18  C   UNL     1       7.607   6.886  17.850  0.00  0.00    +0.000 C 
ATOM     19  O   UNL     1       7.722   7.836  17.083  0.00  0.00    +0.000 OA
BRANCH  18  21
ATOM     20  C   UNL     1       7.924   5.601  19.781  0.00  0.00    +0.000 C 
ATOM     21  O   UNL     1       8.315   6.737  19.003  0.00  0.00    +0.000 OA
ENDBRANCH  18  21
ENDBRANCH   1  18
TORSDOF 3
ENDMDL
MODEL 2
REMARK VINA RESULT:      -7.9      1.091      1.456
REMARK  Name = 
REMARK  5 active torsions:
REMARK  status: ('A' for Active; 'I' for Inactive)
REMARK    1  A    between atoms: C_1  and  O_2
REMARK    2  A    between atoms: O_2  and  C_3
REMARK    3  A    between atoms: C_3  and  C_5
REMARK    4  A    between atoms: C_11  and  C_12
REMARK    5  A    between atoms: C_15  and  C_16
REMARK                            x       y       z     vdW  Elec       q    Type
REMARK                         _______ _______ _______ _____ _____    ______ ____
ROOT
ATOM      1  C   UNL     1       6.633   5.785  17.639  0.00  0.00    +0.000 C 
ATOM      2  C   UNL     1       7.134   4.887  16.485  0.00  0.00    +0.000 C 
ATOM      3  C   UNL     1       6.198   3.708  16.203  0.00  0.00    +0.000 C 
ATOM      4  C   UNL     1       5.260   4.219  15.107  0.00  0.00    +0.000 C 
ATOM      5  C   UNL     1       5.650   5.678  14.920  0.00  0.00    +0.000 C 
ATOM      6  C   UNL     1       4.990   6.671  15.897  0.00  0.00    +0.000 C 
ATOM      7  C   UNL     1       5.204   6.366  17.407  0.00  0.00    +0.000 C 
ATOM      8  N   UNL     1       7.086   5.598  15.199  0.00  0.00    +0.000 NA
ATOM      9  H   UNL     1       7.496   6.535  15.282  0.00  0.00    +0.000 HD
ENDROOT
BRANCH   7  10
ATOM     10  C   UNL     1       4.089   5.583  18.126  0.00  0.00    +0.000 A 
ATOM     11  C   UNL     1       4.183   5.364  19.514  0.00  0.00    +0.000 A 
ATOM     12  C   UNL     1       3.170   4.708  20.233  0.00  0.00    +0.000 A 
ATOM     13  C   UNL     1       2.015   4.266  19.585  0.00  0.00    +0.000 A 
ATOM     14  C   UNL     1       0.911   3.579  20.332  0.00  0.00    +0.000 C 
ATOM     15  C   UNL     1       1.906   4.491  18.218  0.00  0.00    +0.000 A 
ATOM     16  F   UNL     1       0.807   4.089  17.561  0.00  0.00    +0.000 F 
ATOM     17  C   UNL     1       2.913   5.144  17.499  0.00  0.00    +0.000 A 
ENDBRANCH   7  10
BRANCH   1  18
ATOM     18  C   UNL     1       7.617   6.934  17.823  0.00  0.00    +0.000 C 
ATOM     19  O   UNL     1       7.742   7.869  17.040  0.00  0.00    +0.000 OA
BRANCH  18  21
ATOM     20  C   UNL     1       7.941   5.664  19.764  0.00  0.00    +0.000 C 
ATOM     21  O   UNL     1       8.338   6.785  18.968  0.00  0.00    +0.000 OA
ENDBRANCH  18  21
ENDBRANCH   1  18
TORSDOF 3
ENDMDL
MODEL 3
REMARK VINA RESULT:      -7.9      0.515      1.151
REMARK  Name = 
REMARK  5 active torsions:
REMARK  status: ('A' for Active; 'I' for Inactive)
REMARK    1  A    between atoms: C_1  and  O_2
REMARK    2  A    between atoms: O_2  and  C_3
REMARK    3  A    between atoms: C_3  and  C_5
REMARK    4  A    between atoms: C_11  and  C_12
REMARK    5  A    between atoms: C_15  and  C_16
REMARK                            x       y       z     vdW  Elec       q    Type
REMARK                         _______ _______ _______ _____ _____    ______ ____
ROOT
ATOM      1  C   UNL     1       6.646   5.537  17.844  0.00  0.00    +0.000 C 
ATOM      2  C   UNL     1       7.142   4.765  16.601  0.00  0.00    +0.000 C 
ATOM      3  C   UNL     1       6.189   3.640  16.184  0.00  0.00    +0.000 C 
ATOM      4  C   UNL     1       5.270   4.286  15.144  0.00  0.00    +0.000 C 
ATOM      5  C   UNL     1       5.687   5.750  15.123  0.00  0.00    +0.000 C 
ATOM      6  C   UNL     1       5.034   6.640  16.200  0.00  0.00    +0.000 C 
ATOM      7  C   UNL     1       5.229   6.166  17.668  0.00  0.00    +0.000 C 
ATOM      8  N   UNL     1       7.119   5.614  15.403  0.00  0.00    +0.000 NA
ATOM      9  H   UNL     1       7.544   6.529  15.592  0.00  0.00    +0.000 HD
ENDROOT
BRANCH   7  10
ATOM     10  C   UNL     1       4.095   5.328  18.287  0.00  0.00    +0.000 A 
ATOM     11  C   UNL     1       2.805   5.388  17.724  0.00  0.00    +0.000 A 
ATOM     12  C   UNL     1       1.745   4.604  18.209  0.00  0.00    +0.000 A 
ATOM     13  C   UNL     1       1.948   3.715  19.266  0.00  0.00    +0.000 A 
ATOM     14  C   UNL     1       0.839   2.854  19.792  0.00  0.00    +0.000 C 
ATOM     15  C   UNL     1       3.221   3.639  19.820  0.00  0.00    +0.000 A 
ATOM     16  F   UNL     1       3.458   2.790  20.832  0.00  0.00    +0.000 F 
ATOM     17  C   UNL     1       4.279   4.418  19.339  0.00  0.00    +0.000 A 
ENDBRANCH   7  10
BRANCH   1  18
ATOM     18  C   UNL     1       7.648   6.640  18.163  0.00  0.00    +0.000 C 
ATOM     19  O   UNL     1       8.423   6.617  19.113  0.00  0.00    +0.000 OA
BRANCH  18  21
ATOM     20  C   UNL     1       7.988   8.924  17.769  0.00  0.00    +0.000 C 
ATOM     21  O   UNL     1       7.568   7.654  17.258  0.00  0.00    +0.000 OA
ENDBRANCH  18  21
ENDBRANCH   1  18
TORSDOF 3
ENDMDL
MODEL 4
REMARK VINA RESULT:      -7.7      1.216      1.879
REMARK  Name = 
REMARK  5 active torsions:
REMARK  status: ('A' for Active; 'I' for Inactive)
REMARK    1  A    between atoms: C_1  and  O_2
REMARK    2  A    between atoms: O_2  and  C_3
REMARK    3  A    between atoms: C_3  and  C_5
REMARK    4  A    between atoms: C_11  and  C_12
REMARK    5  A    between atoms: C_15  and  C_16
REMARK                            x       y       z     vdW  Elec       q    Type
REMARK                         _______ _______ _______ _____ _____    ______ ____
ROOT
ATOM      1  C   UNL     1       6.633   5.697  17.840  0.00  0.00    +0.000 C 
ATOM      2  C   UNL     1       7.160   4.842  16.665  0.00  0.00    +0.000 C 
ATOM      3  C   UNL     1       6.212   3.696  16.296  0.00  0.00    +0.000 C 
ATOM      4  C   UNL     1       5.326   4.275  15.191  0.00  0.00    +0.000 C 
ATOM      5  C   UNL     1       5.751   5.733  15.084  0.00  0.00    +0.000 C 
ATOM      6  C   UNL     1       5.073   6.694  16.082  0.00  0.00    +0.000 C 
ATOM      7  C   UNL     1       5.225   6.317  17.583  0.00  0.00    +0.000 C 
ATOM      8  N   UNL     1       7.174   5.611  15.413  0.00  0.00    +0.000 NA
ATOM      9  H   UNL     1       7.598   6.535  15.553  0.00  0.00    +0.000 HD
ENDROOT
BRANCH   7  10
ATOM     10  C   UNL     1       4.069   5.526  18.224  0.00  0.00    +0.000 A 
ATOM     11  C   UNL     1       4.119   5.221  19.598  0.00  0.00    +0.000 A 
ATOM     12  C   UNL     1       3.068   4.553  20.249  0.00  0.00    +0.000 A 
ATOM     13  C   UNL     1       1.920   4.186  19.546  0.00  0.00    +0.000 A 
ATOM     14  C   UNL     1       0.777   3.489  20.221  0.00  0.00    +0.000 C 
ATOM     15  C   UNL     1       1.855   4.496  18.193  0.00  0.00    +0.000 A 
ATOM     16  F   UNL     1       0.763   4.167  17.485  0.00  0.00    +0.000 F 
ATOM     17  C   UNL     1       2.899   5.160  17.541  0.00  0.00    +0.000 A 
ENDBRANCH   7  10
BRANCH   1  18
ATOM     18  C   UNL     1       7.631   6.815  18.113  0.00  0.00    +0.000 C 
ATOM     19  O   UNL     1       8.462   6.795  19.015  0.00  0.00    +0.000 OA
BRANCH  18  21
ATOM     20  C   UNL     1       7.994   9.090  17.693  0.00  0.00    +0.000 C 
ATOM     21  O   UNL     1       7.479   7.838  17.228  0.00  0.00    +0.000 OA
ENDBRANCH  18  21
ENDBRANCH   1  18
TORSDOF 3
ENDMDL
MODEL 5
REMARK VINA RESULT:      -7.6      2.241      3.667
REMARK  Name = 
REMARK  5 active torsions:
REMARK  status: ('A' for Active; 'I' for Inactive)
REMARK    1  A    between atoms: C_1  and  O_2
REMARK    2  A    between atoms: O_2  and  C_3
REMARK    3  A    between atoms: C_3  and  C_5
REMARK    4  A    between atoms: C_11  and  C_12
REMARK    5  A    between atoms: C_15  and  C_16
REMARK                            x       y       z     vdW  Elec       q    Type
REMARK                         _______ _______ _______ _____ _____    ______ ____
ROOT
ATOM      1  C   UNL     1       5.560   5.118  15.539  0.00  0.00    +0.000 C 
ATOM      2  C   UNL     1       6.054   6.531  15.920  0.00  0.00    +0.000 C 
ATOM      3  C   UNL     1       5.381   7.072  17.186  0.00  0.00    +0.000 C 
ATOM      4  C   UNL     1       6.328   6.673  18.321  0.00  0.00    +0.000 C 
ATOM      5  C   UNL     1       7.409   5.843  17.643  0.00  0.00    +0.000 C 
ATOM      6  C   UNL     1       7.073   4.351  17.447  0.00  0.00    +0.000 C 
ATOM      7  C   UNL     1       5.761   4.057  16.665  0.00  0.00    +0.000 C 
ATOM      8  N   UNL     1       7.462   6.508  16.338  0.00  0.00    +0.000 NA
ATOM      9  H   UNL     1       8.033   5.970  15.675  0.00  0.00    +0.000 HD
ENDROOT
BRANCH   7  10
ATOM     10  C   UNL     1       4.496   3.789  17.502  0.00  0.00    +0.000 A 
ATOM     11  C   UNL     1       4.627   3.288  18.812  0.00  0.00    +0.000 A 
ATOM     12  C   UNL     1       3.513   3.079  19.642  0.00  0.00    +0.000 A 
ATOM     13  C   UNL     1       2.227   3.383  19.192  0.00  0.00    +0.000 A 
ATOM     14  C   UNL     1       1.024   3.186  20.063  0.00  0.00    +0.000 C 
ATOM     15  C   UNL     1       2.089   3.891  17.905  0.00  0.00    +0.000 A 
ATOM     16  F   UNL     1       0.870   4.204  17.439  0.00  0.00    +0.000 F 
ATOM     17  C   UNL     1       3.196   4.101  17.076  0.00  0.00    +0.000 A 
ENDBRANCH   7  10
BRANCH   1  18
ATOM     18  C   UNL     1       6.301   4.665  14.287  0.00  0.00    +0.000 C 
ATOM     19  O   UNL     1       7.321   5.195  13.858  0.00  0.00    +0.000 OA
BRANCH  18  21
ATOM     20  C   UNL     1       6.089   3.359  12.355  0.00  0.00    +0.000 C 
ATOM     21  O   UNL     1       5.682   3.601  13.706  0.00  0.00    +0.000 OA
ENDBRANCH  18  21
ENDBRANCH   1  18
TORSDOF 3
ENDMDL
MODEL 6
REMARK VINA RESULT:      -7.5      2.028      3.357
REMARK  Name = 
REMARK  5 active torsions:
REMARK  status: ('A' for Active; 'I' for Inactive)
REMARK    1  A    between atoms: C_1  and  O_2
REMARK    2  A    between atoms: O_2  and  C_3
REMARK    3  A    between atoms: C_3  and  C_5
REMARK    4  A    between atoms: C_11  and  C_12
REMARK    5  A    between atoms: C_15  and  C_16
REMARK                            x       y       z     vdW  Elec       q    Type
REMARK                         _______ _______ _______ _____ _____    ______ ____
ROOT
ATOM      1  C   UNL     1       5.701   5.115  15.583  0.00  0.00    +0.000 C 
ATOM      2  C   UNL     1       6.112   6.557  15.956  0.00  0.00    +0.000 C 
ATOM      3  C   UNL     1       5.367   7.085  17.187  0.00  0.00    +0.000 C 
ATOM      4  C   UNL     1       6.289   6.752  18.362  0.00  0.00    +0.000 C 
ATOM      5  C   UNL     1       7.433   5.965  17.739  0.00  0.00    +0.000 C 
ATOM      6  C   UNL     1       7.177   4.455  17.559  0.00  0.00    +0.000 C 
ATOM      7  C   UNL     1       5.910   4.085  16.736  0.00  0.00    +0.000 C 
ATOM      8  N   UNL     1       7.503   6.609  16.425  0.00  0.00    +0.000 NA
ATOM      9  H   UNL     1       8.123   6.088  15.794  0.00  0.00    +0.000 HD
ENDROOT
BRANCH   7  10
ATOM     10  C   UNL     1       4.629   3.769  17.531  0.00  0.00    +0.000 A 
ATOM     11  C   UNL     1       3.380   3.832  16.882  0.00  0.00    +0.000 A 
ATOM     12  C   UNL     1       2.184   3.498  17.539  0.00  0.00    +0.000 A 
ATOM     13  C   UNL     1       2.202   3.071  18.868  0.00  0.00    +0.000 A 
ATOM     14  C   UNL     1       0.942   2.693  19.587  0.00  0.00    +0.000 C 
ATOM     15  C   UNL     1       3.431   2.993  19.512  0.00  0.00    +0.000 A 
ATOM     16  F   UNL     1       3.490   2.577  20.787  0.00  0.00    +0.000 F 
ATOM     17  C   UNL     1       4.624   3.323  18.861  0.00  0.00    +0.000 A 
ENDBRANCH   7  10
BRANCH   1  18
ATOM     18  C   UNL     1       6.509   4.678  14.368  0.00  0.00    +0.000 C 
ATOM     19  O   UNL     1       7.567   5.191  14.021  0.00  0.00    +0.000 OA
BRANCH  18  21
ATOM     20  C   UNL     1       6.365   3.454  12.376  0.00  0.00    +0.000 C 
ATOM     21  O   UNL     1       5.902   3.648  13.717  0.00  0.00    +0.000 OA
ENDBRANCH  18  21
ENDBRANCH   1  18
TORSDOF 3
ENDMDL
MODEL 7
REMARK VINA RESULT:      -7.4      1.450      2.035
REMARK  Name = 
REMARK  5 active torsions:
REMARK  status: ('A' for Active; 'I' for Inactive)
REMARK    1  A    between atoms: C_1  and  O_2
REMARK    2  A    between atoms: O_2  and  C_3
REMARK    3  A    between atoms: C_3  and  C_5
REMARK    4  A    between atoms: C_11  and  C_12
REMARK    5  A    between atoms: C_15  and  C_16
REMARK                            x       y       z     vdW  Elec       q    Type
REMARK                         _______ _______ _______ _____ _____    ______ ____
ROOT
ATOM      1  C   UNL     1       6.582   4.853  18.075  0.00  0.00    +0.000 C 
ATOM      2  C   UNL     1       7.158   4.581  16.667  0.00  0.00    +0.000 C 
ATOM      3  C   UNL     1       6.201   3.776  15.782  0.00  0.00    +0.000 C 
ATOM      4  C   UNL     1       5.409   4.836  15.014  0.00  0.00    +0.000 C 
ATOM      5  C   UNL     1       5.886   6.162  15.591  0.00  0.00    +0.000 C 
ATOM      6  C   UNL     1       5.175   6.618  16.881  0.00  0.00    +0.000 C 
ATOM      7  C   UNL     1       5.215   5.604  18.060  0.00  0.00    +0.000 C 
ATOM      8  N   UNL     1       7.280   5.824  15.893  0.00  0.00    +0.000 NA
ATOM      9  H   UNL     1       7.723   6.562  16.451  0.00  0.00    +0.000 HD
ENDROOT
BRANCH   7  10
ATOM     10  C   UNL     1       3.994   4.680  18.226  0.00  0.00    +0.000 A 
ATOM     11  C   UNL     1       4.066   3.594  19.121  0.00  0.00    +0.000 A 
ATOM     12  C   UNL     1       2.966   2.752  19.358  0.00  0.00    +0.000 A 
ATOM     13  C   UNL     1       1.748   2.983  18.718  0.00  0.00    +0.000 A 
ATOM     14  C   UNL     1       0.554   2.110  18.966  0.00  0.00    +0.000 C 
ATOM     15  C   UNL     1       1.663   4.060  17.844  0.00  0.00    +0.000 A 
ATOM     16  F   UNL     1       0.505   4.320  17.217  0.00  0.00    +0.000 F 
ATOM     17  C   UNL     1       2.755   4.901  17.606  0.00  0.00    +0.000 A 
ENDBRANCH   7  10
BRANCH   1  18
ATOM     18  C   UNL     1       7.595   5.673  18.864  0.00  0.00    +0.000 C 
ATOM     19  O   UNL     1       7.784   5.563  20.071  0.00  0.00    +0.000 OA
BRANCH  18  21
ATOM     20  C   UNL     1       8.260   7.894  18.534  0.00  0.00    +0.000 C 
ATOM     21  O   UNL     1       8.260   6.544  18.057  0.00  0.00    +0.000 OA
ENDBRANCH  18  21
ENDBRANCH   1  18
TORSDOF 3
ENDMDL
MODEL 8
REMARK VINA RESULT:      -7.3      1.071      1.130
REMARK  Name = 
REMARK  5 active torsions:
REMARK  status: ('A' for Active; 'I' for Inactive)
REMARK    1  A    between atoms: C_1  and  O_2
REMARK    2  A    between atoms: O_2  and  C_3
REMARK    3  A    between atoms: C_3  and  C_5
REMARK    4  A    between atoms: C_11  and  C_12
REMARK    5  A    between atoms: C_15  and  C_16
REMARK                            x       y       z     vdW  Elec       q    Type
REMARK                         _______ _______ _______ _____ _____    ______ ____
ROOT
ATOM      1  C   UNL     1       6.480   5.046  18.091  0.00  0.00    +0.000 C 
ATOM      2  C   UNL     1       7.078   4.701  16.709  0.00  0.00    +0.000 C 
ATOM      3  C   UNL     1       6.163   3.799  15.876  0.00  0.00    +0.000 C 
ATOM      4  C   UNL     1       5.335   4.770  15.032  0.00  0.00    +0.000 C 
ATOM      5  C   UNL     1       5.753   6.151  15.518  0.00  0.00    +0.000 C 
ATOM      6  C   UNL     1       5.013   6.665  16.769  0.00  0.00    +0.000 C 
ATOM      7  C   UNL     1       5.083   5.737  18.016  0.00  0.00    +0.000 C 
ATOM      8  N   UNL     1       7.157   5.892  15.852  0.00  0.00    +0.000 NA
ATOM      9  H   UNL     1       7.565   6.685  16.360  0.00  0.00    +0.000 HD
ENDROOT
BRANCH   7  10
ATOM     10  C   UNL     1       3.900   4.777  18.239  0.00  0.00    +0.000 A 
ATOM     11  C   UNL     1       2.600   5.188  17.883  0.00  0.00    +0.000 A 
ATOM     12  C   UNL     1       1.491   4.335  18.009  0.00  0.00    +0.000 A 
ATOM     13  C   UNL     1       1.651   3.030  18.479  0.00  0.00    +0.000 A 
ATOM     14  C   UNL     1       0.487   2.095  18.607  0.00  0.00    +0.000 C 
ATOM     15  C   UNL     1       2.932   2.612  18.820  0.00  0.00    +0.000 A 
ATOM     16  F   UNL     1       3.127   1.361  19.267  0.00  0.00    +0.000 F 
ATOM     17  C   UNL     1       4.039   3.458  18.695  0.00  0.00    +0.000 A 
ENDBRANCH   7  10
BRANCH   1  18
ATOM     18  C   UNL     1       7.452   5.959  18.828  0.00  0.00    +0.000 C 
ATOM     19  O   UNL     1       8.088   6.864  18.297  0.00  0.00    +0.000 OA
BRANCH  18  21
ATOM     20  C   UNL     1       8.779   5.073  20.542  0.00  0.00    +0.000 C 
ATOM     21  O   UNL     1       7.524   5.639  20.149  0.00  0.00    +0.000 OA
ENDBRANCH  18  21
ENDBRANCH   1  18
TORSDOF 3
ENDMDL
MODEL 9
REMARK VINA RESULT:      -7.3      2.564      3.855
REMARK  Name = 
REMARK  5 active torsions:
REMARK  status: ('A' for Active; 'I' for Inactive)
REMARK    1  A    between atoms: C_1  and  O_2
REMARK    2  A    between atoms: O_2  and  C_3
REMARK    3  A    between atoms: C_3  and  C_5
REMARK    4  A    between atoms: C_11  and  C_12
REMARK    5  A    between atoms: C_15  and  C_16
REMARK                            x       y       z     vdW  Elec       q    Type
REMARK                         _______ _______ _______ _____ _____    ______ ____
ROOT
ATOM      1  C   UNL     1       5.749   5.877  16.086  0.00  0.00    +0.000 C 
ATOM      2  C   UNL     1       7.178   6.059  16.644  0.00  0.00    +0.000 C 
ATOM      3  C   UNL     1       7.207   6.862  17.948  0.00  0.00    +0.000 C 
ATOM      4  C   UNL     1       7.147   5.802  19.050  0.00  0.00    +0.000 C 
ATOM      5  C   UNL     1       6.977   4.485  18.305  0.00  0.00    +0.000 C 
ATOM      6  C   UNL     1       5.527   4.121  17.926  0.00  0.00    +0.000 C 
ATOM      7  C   UNL     1       4.769   5.186  17.084  0.00  0.00    +0.000 C 
ATOM      8  N   UNL     1       7.742   4.777  17.089  0.00  0.00    +0.000 NA
ATOM      9  H   UNL     1       7.598   4.046  16.382  0.00  0.00    +0.000 HD
ENDROOT
BRANCH   7  10
ATOM     10  C   UNL     1       3.865   6.169  17.851  0.00  0.00    +0.000 A 
ATOM     11  C   UNL     1       3.575   7.427  17.287  0.00  0.00    +0.000 A 
ATOM     12  C   UNL     1       2.711   8.341  17.913  0.00  0.00    +0.000 A 
ATOM     13  C   UNL     1       2.091   8.016  19.121  0.00  0.00    +0.000 A 
ATOM     14  C   UNL     1       1.152   8.966  19.801  0.00  0.00    +0.000 C 
ATOM     15  C   UNL     1       2.360   6.771  19.678  0.00  0.00    +0.000 A 
ATOM     16  F   UNL     1       1.776   6.419  20.834  0.00  0.00    +0.000 F 
ATOM     17  C   UNL     1       3.219   5.859  19.058  0.00  0.00    +0.000 A 
ENDBRANCH   7  10
BRANCH   1  18
ATOM     18  C   UNL     1       5.827   5.052  14.807  0.00  0.00    +0.000 C 
ATOM     19  O   UNL     1       4.937   4.307  14.410  0.00  0.00    +0.000 OA
BRANCH  18  21
ATOM     20  C   UNL     1       7.142   4.507  12.948  0.00  0.00    +0.000 C 
ATOM     21  O   UNL     1       7.012   5.247  14.166  0.00  0.00    +0.000 OA
ENDBRANCH  18  21
ENDBRANCH   1  18
TORSDOF 3
ENDMDL
