MODEL 1
REMARK VINA RESULT:      -6.6      0.000      0.000
REMARK  Name = 
REMARK  19 active torsions:
REMARK  status: ('A' for Active; 'I' for Inactive)
REMARK    1  A    between atoms: C_1  and  C_2
REMARK    2  A    between atoms: C_2  and  C_3
REMARK    3  A    between atoms: C_3  and  C_4
REMARK    4  A    between atoms: C_4  and  C_5
REMARK    5  A    between atoms: C_5  and  C_6
REMARK    6  A    between atoms: C_6  and  C_7
REMARK    7  A    between atoms: C_7  and  C_8
REMARK    8  A    between atoms: C_8  and  C_9
REMARK    9  A    between atoms: C_9  and  C_10
REMARK   10  A    between atoms: C_10  and  C_11
REMARK   11  A    between atoms: C_11  and  C_12
REMARK   12  A    between atoms: C_12  and  C_13
REMARK   13  A    between atoms: C_13  and  C_14
REMARK   14  A    between atoms: C_14  and  C_15
REMARK   15  A    between atoms: C_15  and  C_16
REMARK   16  A    between atoms: C_16  and  O_18
REMARK   17  A    between atoms: O_18  and  C_19
REMARK   18  A    between atoms: C_27  and  C_28
REMARK   19  A    between atoms: C_27  and  C_29
REMARK                            x       y       z     vdW  Elec       q    Type
REMARK                         _______ _______ _______ _____ _____    ______ ____
ROOT
ATOM      1  C   UNL     1       7.828   6.610  18.410  0.00  0.00    +0.000 C 
ENDROOT
BRANCH   1   2
ATOM      2  C   UNL     1       7.504   5.196  17.982  0.00  0.00    +0.000 C 
ATOM      3  O   UNL     1       8.309   4.286  18.145  0.00  0.00    +0.000 OA
BRANCH   2   4
ATOM      4  O   UNL     1       6.266   5.064  17.434  0.00  0.00    +0.000 OA
BRANCH   4   5
ATOM      5  C   UNL     1       5.068   5.096  18.250  0.00  0.00    +0.000 C 
ATOM      6  C   UNL     1       5.128   4.080  19.408  0.00  0.00    +0.000 C 
ATOM      7  C   UNL     1       3.815   3.320  19.603  0.00  0.00    +0.000 C 
ATOM      8  O   UNL     1       3.671   2.764  20.902  0.00  0.00    +0.000 OA
ATOM      9  C   UNL     1       2.356   2.853  21.251  0.00  0.00    +0.000 C 
ATOM     10  O   UNL     1       1.825   2.305  22.200  0.00  0.00    +0.000 OA
ATOM     11  C   UNL     1       1.677   3.756  20.314  0.00  0.00    +0.000 C 
ATOM     12  C   UNL     1       2.583   4.118  19.404  0.00  0.00    +0.000 C 
ATOM     13  C   UNL     1       2.487   5.123  18.282  0.00  0.00    +0.000 C 
ATOM     14  C   UNL     1       2.334   6.546  18.857  0.00  0.00    +0.000 C 
ATOM     15  C   UNL     1       1.265   4.831  17.392  0.00  0.00    +0.000 C 
ATOM     16  C   UNL     1       3.771   5.037  17.417  0.00  0.00    +0.000 C 
ENDBRANCH   4   5
ENDBRANCH   2   4
ENDBRANCH   1   2
BRANCH   1  17
ATOM     17  C   UNL     1       7.394   7.727  17.472  0.00  0.00    +0.000 C 
BRANCH  17  18
ATOM     18  C   UNL     1       8.316   8.936  17.640  0.00  0.00    +0.000 C 
BRANCH  18  19
ATOM     19  C   UNL     1       8.689   9.157  19.098  0.00  0.00    +0.000 C 
BRANCH  19  20
ATOM     20  C   UNL     1       9.473  10.454  19.269  0.00  0.00    +0.000 C 
BRANCH  20  21
ATOM     21  C   UNL     1       9.623  11.141  17.920  0.00  0.00    +0.000 C 
BRANCH  21  22
ATOM     22  C   UNL     1       8.550  12.202  17.721  0.00  0.00    +0.000 C 
BRANCH  22  23
ATOM     23  C   UNL     1       9.198  13.576  17.636  0.00  0.00    +0.000 C 
BRANCH  23  24
ATOM     24  C   UNL     1      10.715  13.467  17.653  0.00  0.00    +0.000 C 
BRANCH  24  25
ATOM     25  C   UNL     1      11.305  14.485  18.622  0.00  0.00    +0.000 C 
BRANCH  25  26
ATOM     26  C   UNL     1      10.449  14.585  19.874  0.00  0.00    +0.000 C 
BRANCH  26  27
ATOM     27  C   UNL     1      10.731  13.420  20.815  0.00  0.00    +0.000 C 
BRANCH  27  28
ATOM     28  C   UNL     1       9.578  13.234  21.793  0.00  0.00    +0.000 C 
BRANCH  28  30
ATOM     29  C   UNL     1       7.532  14.635  22.160  0.00  0.00    +0.000 C 
ATOM     30  C   UNL     1       8.267  13.725  21.193  0.00  0.00    +0.000 C 
ENDBRANCH  28  30
ENDBRANCH  27  28
ENDBRANCH  26  27
ENDBRANCH  25  26
ENDBRANCH  24  25
ENDBRANCH  23  24
ENDBRANCH  22  23
ENDBRANCH  21  22
ENDBRANCH  20  21
ENDBRANCH  19  20
ENDBRANCH  18  19
ENDBRANCH  17  18
ENDBRANCH   1  17
TORSDOF 16
ENDMDL
MODEL 2
REMARK VINA RESULT:      -6.4      3.242     10.681
REMARK  Name = 
REMARK  19 active torsions:
REMARK  status: ('A' for Active; 'I' for Inactive)
REMARK    1  A    between atoms: C_1  and  C_2
REMARK    2  A    between atoms: C_2  and  C_3
REMARK    3  A    between atoms: C_3  and  C_4
REMARK    4  A    between atoms: C_4  and  C_5
REMARK    5  A    between atoms: C_5  and  C_6
REMARK    6  A    between atoms: C_6  and  C_7
REMARK    7  A    between atoms: C_7  and  C_8
REMARK    8  A    between atoms: C_8  and  C_9
REMARK    9  A    between atoms: C_9  and  C_10
REMARK   10  A    between atoms: C_10  and  C_11
REMARK   11  A    between atoms: C_11  and  C_12
REMARK   12  A    between atoms: C_12  and  C_13
REMARK   13  A    between atoms: C_13  and  C_14
REMARK   14  A    between atoms: C_14  and  C_15
REMARK   15  A    between atoms: C_15  and  C_16
REMARK   16  A    between atoms: C_16  and  O_18
REMARK   17  A    between atoms: O_18  and  C_19
REMARK   18  A    between atoms: C_27  and  C_28
REMARK   19  A    between atoms: C_27  and  C_29
REMARK                            x       y       z     vdW  Elec       q    Type
REMARK                         _______ _______ _______ _____ _____    ______ ____
ROOT
ATOM      1  C   UNL     1       6.896   7.694  17.222  0.00  0.00    +0.000 C 
ENDROOT
BRANCH   1   2
ATOM      2  C   UNL     1       8.129   8.145  17.973  0.00  0.00    +0.000 C 
ATOM      3  O   UNL     1       8.589   7.478  18.893  0.00  0.00    +0.000 OA
BRANCH   2   4
ATOM      4  O   UNL     1       8.645   9.318  17.516  0.00  0.00    +0.000 OA
BRANCH   4   5
ATOM      5  C   UNL     1       8.680  10.505  18.346  0.00  0.00    +0.000 C 
ATOM      6  C   UNL     1       8.143  11.747  17.608  0.00  0.00    +0.000 C 
ATOM      7  C   UNL     1       8.995  12.996  17.843  0.00  0.00    +0.000 C 
ATOM      8  O   UNL     1       8.298  14.209  17.600  0.00  0.00    +0.000 OA
ATOM      9  C   UNL     1       8.729  15.127  18.513  0.00  0.00    +0.000 C 
ATOM     10  O   UNL     1       8.507  16.324  18.488  0.00  0.00    +0.000 OA
ATOM     11  C   UNL     1       9.481  14.433  19.564  0.00  0.00    +0.000 C 
ATOM     12  C   UNL     1       9.536  13.147  19.214  0.00  0.00    +0.000 C 
ATOM     13  C   UNL     1      10.069  11.955  19.970  0.00  0.00    +0.000 C 
ATOM     14  C   UNL     1       9.206  11.691  21.221  0.00  0.00    +0.000 C 
ATOM     15  C   UNL     1      11.517  12.204  20.429  0.00  0.00    +0.000 C 
ATOM     16  C   UNL     1      10.042  10.715  19.039  0.00  0.00    +0.000 C 
ENDBRANCH   4   5
ENDBRANCH   2   4
ENDBRANCH   1   2
BRANCH   1  17
ATOM     17  C   UNL     1       6.776   6.206  16.931  0.00  0.00    +0.000 C 
BRANCH  17  18
ATOM     18  C   UNL     1       5.527   5.939  16.087  0.00  0.00    +0.000 C 
BRANCH  18  19
ATOM     19  C   UNL     1       4.420   5.303  16.914  0.00  0.00    +0.000 C 
BRANCH  19  20
ATOM     20  C   UNL     1       3.712   6.348  17.770  0.00  0.00    +0.000 C 
BRANCH  20  21
ATOM     21  C   UNL     1       3.618   5.853  19.206  0.00  0.00    +0.000 C 
BRANCH  21  22
ATOM     22  C   UNL     1       2.490   6.548  19.955  0.00  0.00    +0.000 C 
BRANCH  22  23
ATOM     23  C   UNL     1       1.578   5.507  20.588  0.00  0.00    +0.000 C 
BRANCH  23  24
ATOM     24  C   UNL     1       2.385   4.375  21.203  0.00  0.00    +0.000 C 
BRANCH  24  25
ATOM     25  C   UNL     1       1.589   3.076  21.160  0.00  0.00    +0.000 C 
BRANCH  25  26
ATOM     26  C   UNL     1       0.579   3.109  20.025  0.00  0.00    +0.000 C 
BRANCH  26  27
ATOM     27  C   UNL     1       1.018   2.197  18.885  0.00  0.00    +0.000 C 
BRANCH  27  28
ATOM     28  C   UNL     1       1.799   2.985  17.843  0.00  0.00    +0.000 C 
BRANCH  28  30
ATOM     29  C   UNL     1       3.544   1.383  18.665  0.00  0.00    +0.000 C 
ATOM     30  C   UNL     1       3.137   2.321  17.543  0.00  0.00    +0.000 C 
ENDBRANCH  28  30
ENDBRANCH  27  28
ENDBRANCH  26  27
ENDBRANCH  25  26
ENDBRANCH  24  25
ENDBRANCH  23  24
ENDBRANCH  22  23
ENDBRANCH  21  22
ENDBRANCH  20  21
ENDBRANCH  19  20
ENDBRANCH  18  19
ENDBRANCH  17  18
ENDBRANCH   1  17
TORSDOF 16
ENDMDL
MODEL 3
REMARK VINA RESULT:      -6.4      5.230      9.688
REMARK  Name = 
REMARK  19 active torsions:
REMARK  status: ('A' for Active; 'I' for Inactive)
REMARK    1  A    between atoms: C_1  and  C_2
REMARK    2  A    between atoms: C_2  and  C_3
REMARK    3  A    between atoms: C_3  and  C_4
REMARK    4  A    between atoms: C_4  and  C_5
REMARK    5  A    between atoms: C_5  and  C_6
REMARK    6  A    between atoms: C_6  and  C_7
REMARK    7  A    between atoms: C_7  and  C_8
REMARK    8  A    between atoms: C_8  and  C_9
REMARK    9  A    between atoms: C_9  and  C_10
REMARK   10  A    between atoms: C_10  and  C_11
REMARK   11  A    between atoms: C_11  and  C_12
REMARK   12  A    between atoms: C_12  and  C_13
REMARK   13  A    between atoms: C_13  and  C_14
REMARK   14  A    between atoms: C_14  and  C_15
REMARK   15  A    between atoms: C_15  and  C_16
REMARK   16  A    between atoms: C_16  and  O_18
REMARK   17  A    between atoms: O_18  and  C_19
REMARK   18  A    between atoms: C_27  and  C_28
REMARK   19  A    between atoms: C_27  and  C_29
REMARK                            x       y       z     vdW  Elec       q    Type
REMARK                         _______ _______ _______ _____ _____    ______ ____
ROOT
ATOM      1  C   UNL     1       2.289   7.320  18.040  0.00  0.00    +0.000 C 
ENDROOT
BRANCH   1   2
ATOM      2  C   UNL     1       1.850   8.758  18.205  0.00  0.00    +0.000 C 
ATOM      3  O   UNL     1       2.207   9.623  17.414  0.00  0.00    +0.000 OA
BRANCH   2   4
ATOM      4  O   UNL     1       1.040   8.957  19.280  0.00  0.00    +0.000 OA
BRANCH   4   5
ATOM      5  C   UNL     1       0.536  10.274  19.615  0.00  0.00    +0.000 C 
ATOM      6  C   UNL     1       0.726  10.607  21.108  0.00  0.00    +0.000 C 
ATOM      7  C   UNL     1      -0.500  11.277  21.731  0.00  0.00    +0.000 C 
ATOM      8  O   UNL     1      -0.205  12.012  22.909  0.00  0.00    +0.000 OA
ATOM      9  C   UNL     1      -1.005  13.117  22.922  0.00  0.00    +0.000 C 
ATOM     10  O   UNL     1      -1.175  13.871  23.863  0.00  0.00    +0.000 OA
ATOM     11  C   UNL     1      -1.608  13.281  21.594  0.00  0.00    +0.000 C 
ATOM     12  C   UNL     1      -1.209  12.242  20.859  0.00  0.00    +0.000 C 
ATOM     13  C   UNL     1      -1.414  11.952  19.393  0.00  0.00    +0.000 C 
ATOM     14  C   UNL     1      -0.657  12.988  18.536  0.00  0.00    +0.000 C 
ATOM     15  C   UNL     1      -2.908  12.025  19.026  0.00  0.00    +0.000 C 
ATOM     16  C   UNL     1      -0.890  10.526  19.083  0.00  0.00    +0.000 C 
ENDBRANCH   4   5
ENDBRANCH   2   4
ENDBRANCH   1   2
BRANCH   1  17
ATOM     17  C   UNL     1       3.588   6.916  18.720  0.00  0.00    +0.000 C 
BRANCH  17  18
ATOM     18  C   UNL     1       3.346   5.712  19.633  0.00  0.00    +0.000 C 
BRANCH  18  19
ATOM     19  C   UNL     1       2.121   5.914  20.511  0.00  0.00    +0.000 C 
BRANCH  19  20
ATOM     20  C   UNL     1       1.419   4.586  20.778  0.00  0.00    +0.000 C 
BRANCH  20  21
ATOM     21  C   UNL     1       1.071   3.917  19.457  0.00  0.00    +0.000 C 
BRANCH  21  22
ATOM     22  C   UNL     1       1.035   2.402  19.599  0.00  0.00    +0.000 C 
BRANCH  22  23
ATOM     23  C   UNL     1       2.351   1.812  19.112  0.00  0.00    +0.000 C 
BRANCH  23  24
ATOM     24  C   UNL     1       2.618   2.192  17.664  0.00  0.00    +0.000 C 
BRANCH  24  25
ATOM     25  C   UNL     1       4.006   2.806  17.529  0.00  0.00    +0.000 C 
BRANCH  25  26
ATOM     26  C   UNL     1       3.965   4.020  16.614  0.00  0.00    +0.000 C 
BRANCH  26  27
ATOM     27  C   UNL     1       5.364   4.372  16.122  0.00  0.00    +0.000 C 
BRANCH  27  28
ATOM     28  C   UNL     1       6.272   4.709  17.297  0.00  0.00    +0.000 C 
BRANCH  28  30
ATOM     29  C   UNL     1       7.238   7.003  17.595  0.00  0.00    +0.000 C 
ATOM     30  C   UNL     1       7.375   5.673  16.878  0.00  0.00    +0.000 C 
ENDBRANCH  28  30
ENDBRANCH  27  28
ENDBRANCH  26  27
ENDBRANCH  25  26
ENDBRANCH  24  25
ENDBRANCH  23  24
ENDBRANCH  22  23
ENDBRANCH  21  22
ENDBRANCH  20  21
ENDBRANCH  19  20
ENDBRANCH  18  19
ENDBRANCH  17  18
ENDBRANCH   1  17
TORSDOF 16
ENDMDL
MODEL 4
REMARK VINA RESULT:      -6.4      5.073      9.140
REMARK  Name = 
REMARK  19 active torsions:
REMARK  status: ('A' for Active; 'I' for Inactive)
REMARK    1  A    between atoms: C_1  and  C_2
REMARK    2  A    between atoms: C_2  and  C_3
REMARK    3  A    between atoms: C_3  and  C_4
REMARK    4  A    between atoms: C_4  and  C_5
REMARK    5  A    between atoms: C_5  and  C_6
REMARK    6  A    between atoms: C_6  and  C_7
REMARK    7  A    between atoms: C_7  and  C_8
REMARK    8  A    between atoms: C_8  and  C_9
REMARK    9  A    between atoms: C_9  and  C_10
REMARK   10  A    between atoms: C_10  and  C_11
REMARK   11  A    between atoms: C_11  and  C_12
REMARK   12  A    between atoms: C_12  and  C_13
REMARK   13  A    between atoms: C_13  and  C_14
REMARK   14  A    between atoms: C_14  and  C_15
REMARK   15  A    between atoms: C_15  and  C_16
REMARK   16  A    between atoms: C_16  and  O_18
REMARK   17  A    between atoms: O_18  and  C_19
REMARK   18  A    between atoms: C_27  and  C_28
REMARK   19  A    between atoms: C_27  and  C_29
REMARK                            x       y       z     vdW  Elec       q    Type
REMARK                         _______ _______ _______ _____ _____    ______ ____
ROOT
ATOM      1  C   UNL     1       1.962   7.637  19.470  0.00  0.00    +0.000 C 
ENDROOT
BRANCH   1   2
ATOM      2  C   UNL     1       2.256   8.488  18.254  0.00  0.00    +0.000 C 
ATOM      3  O   UNL     1       3.360   8.471  17.723  0.00  0.00    +0.000 OA
BRANCH   2   4
ATOM      4  O   UNL     1       1.192   9.228  17.839  0.00  0.00    +0.000 OA
BRANCH   4   5
ATOM      5  C   UNL     1       0.304   9.875  18.785  0.00  0.00    +0.000 C 
ATOM      6  C   UNL     1      -1.125  10.027  18.229  0.00  0.00    +0.000 C 
ATOM      7  C   UNL     1      -1.737  11.398  18.524  0.00  0.00    +0.000 C 
ATOM      8  O   UNL     1      -3.156  11.408  18.469  0.00  0.00    +0.000 OA
ATOM      9  C   UNL     1      -3.605  12.261  19.434  0.00  0.00    +0.000 C 
ATOM     10  O   UNL     1      -4.743  12.675  19.556  0.00  0.00    +0.000 OA
ATOM     11  C   UNL     1      -2.495  12.576  20.341  0.00  0.00    +0.000 C 
ATOM     12  C   UNL     1      -1.414  11.966  19.854  0.00  0.00    +0.000 C 
ATOM     13  C   UNL     1      -0.027  11.835  20.433  0.00  0.00    +0.000 C 
ATOM     14  C   UNL     1      -0.066  10.980  21.716  0.00  0.00    +0.000 C 
ATOM     15  C   UNL     1       0.546  13.218  20.794  0.00  0.00    +0.000 C 
ATOM     16  C   UNL     1       0.898  11.168  19.381  0.00  0.00    +0.000 C 
ENDBRANCH   4   5
ENDBRANCH   2   4
ENDBRANCH   1   2
BRANCH   1  17
ATOM     17  C   UNL     1       2.791   6.374  19.640  0.00  0.00    +0.000 C 
BRANCH  17  18
ATOM     18  C   UNL     1       2.088   5.415  20.603  0.00  0.00    +0.000 C 
BRANCH  18  19
ATOM     19  C   UNL     1       1.208   4.421  19.860  0.00  0.00    +0.000 C 
BRANCH  19  20
ATOM     20  C   UNL     1       1.675   2.991  20.106  0.00  0.00    +0.000 C 
BRANCH  20  21
ATOM     21  C   UNL     1       3.010   2.763  19.414  0.00  0.00    +0.000 C 
BRANCH  21  22
ATOM     22  C   UNL     1       2.827   2.572  17.915  0.00  0.00    +0.000 C 
BRANCH  22  23
ATOM     23  C   UNL     1       3.398   3.773  17.173  0.00  0.00    +0.000 C 
BRANCH  23  24
ATOM     24  C   UNL     1       4.876   3.952  17.479  0.00  0.00    +0.000 C 
BRANCH  24  25
ATOM     25  C   UNL     1       5.675   4.039  16.185  0.00  0.00    +0.000 C 
BRANCH  25  26
ATOM     26  C   UNL     1       6.934   4.866  16.390  0.00  0.00    +0.000 C 
BRANCH  26  27
ATOM     27  C   UNL     1       7.429   4.747  17.827  0.00  0.00    +0.000 C 
BRANCH  27  28
ATOM     28  C   UNL     1       7.673   6.127  18.422  0.00  0.00    +0.000 C 
BRANCH  28  30
ATOM     29  C   UNL     1       7.949   8.541  17.807  0.00  0.00    +0.000 C 
ATOM     30  C   UNL     1       7.295   7.223  17.435  0.00  0.00    +0.000 C 
ENDBRANCH  28  30
ENDBRANCH  27  28
ENDBRANCH  26  27
ENDBRANCH  25  26
ENDBRANCH  24  25
ENDBRANCH  23  24
ENDBRANCH  22  23
ENDBRANCH  21  22
ENDBRANCH  20  21
ENDBRANCH  19  20
ENDBRANCH  18  19
ENDBRANCH  17  18
ENDBRANCH   1  17
TORSDOF 16
ENDMDL
MODEL 5
REMARK VINA RESULT:      -6.4      6.474     10.040
REMARK  Name = 
REMARK  19 active torsions:
REMARK  status: ('A' for Active; 'I' for Inactive)
REMARK    1  A    between atoms: C_1  and  C_2
REMARK    2  A    between atoms: C_2  and  C_3
REMARK    3  A    between atoms: C_3  and  C_4
REMARK    4  A    between atoms: C_4  and  C_5
REMARK    5  A    between atoms: C_5  and  C_6
REMARK    6  A    between atoms: C_6  and  C_7
REMARK    7  A    between atoms: C_7  and  C_8
REMARK    8  A    between atoms: C_8  and  C_9
REMARK    9  A    between atoms: C_9  and  C_10
REMARK   10  A    between atoms: C_10  and  C_11
REMARK   11  A    between atoms: C_11  and  C_12
REMARK   12  A    between atoms: C_12  and  C_13
REMARK   13  A    between atoms: C_13  and  C_14
REMARK   14  A    between atoms: C_14  and  C_15
REMARK   15  A    between atoms: C_15  and  C_16
REMARK   16  A    between atoms: C_16  and  O_18
REMARK   17  A    between atoms: O_18  and  C_19
REMARK   18  A    between atoms: C_27  and  C_28
REMARK   19  A    between atoms: C_27  and  C_29
REMARK                            x       y       z     vdW  Elec       q    Type
REMARK                         _______ _______ _______ _____ _____    ______ ____
ROOT
ATOM      1  C   UNL     1       1.902   7.146  18.354  0.00  0.00    +0.000 C 
ENDROOT
BRANCH   1   2
ATOM      2  C   UNL     1       1.914   8.658  18.323  0.00  0.00    +0.000 C 
ATOM      3  O   UNL     1       2.126   9.268  17.282  0.00  0.00    +0.000 OA
BRANCH   2   4
ATOM      4  O   UNL     1       1.661   9.227  19.533  0.00  0.00    +0.000 OA
BRANCH   4   5
ATOM      5  C   UNL     1       0.806  10.391  19.659  0.00  0.00    +0.000 C 
ATOM      6  C   UNL     1       0.612  10.813  21.129  0.00  0.00    +0.000 C 
ATOM      7  C   UNL     1      -0.836  11.181  21.458  0.00  0.00    +0.000 C 
ATOM      8  O   UNL     1      -0.962  12.007  22.606  0.00  0.00    +0.000 OA
ATOM      9  C   UNL     1      -1.985  12.882  22.380  0.00  0.00    +0.000 C 
ATOM     10  O   UNL     1      -2.510  13.603  23.208  0.00  0.00    +0.000 OA
ATOM     11  C   UNL     1      -2.332  12.846  20.955  0.00  0.00    +0.000 C 
ATOM     12  C   UNL     1      -1.563  11.912  20.394  0.00  0.00    +0.000 C 
ATOM     13  C   UNL     1      -1.398  11.529  18.944  0.00  0.00    +0.000 C 
ATOM     14  C   UNL     1      -0.750  12.689  18.160  0.00  0.00    +0.000 C 
ATOM     15  C   UNL     1      -2.764  11.221  18.302  0.00  0.00    +0.000 C 
ATOM     16  C   UNL     1      -0.504  10.265  18.854  0.00  0.00    +0.000 C 
ENDBRANCH   4   5
ENDBRANCH   2   4
ENDBRANCH   1   2
BRANCH   1  17
ATOM     17  C   UNL     1       2.586   6.478  19.536  0.00  0.00    +0.000 C 
BRANCH  17  18
ATOM     18  C   UNL     1       1.624   5.497  20.210  0.00  0.00    +0.000 C 
BRANCH  18  19
ATOM     19  C   UNL     1       2.363   4.513  21.103  0.00  0.00    +0.000 C 
BRANCH  19  20
ATOM     20  C   UNL     1       1.546   3.241  21.303  0.00  0.00    +0.000 C 
BRANCH  20  21
ATOM     21  C   UNL     1       1.036   2.744  19.959  0.00  0.00    +0.000 C 
BRANCH  21  22
ATOM     22  C   UNL     1       2.153   2.099  19.151  0.00  0.00    +0.000 C 
BRANCH  22  23
ATOM     23  C   UNL     1       2.268   2.786  17.798  0.00  0.00    +0.000 C 
BRANCH  23  24
ATOM     24  C   UNL     1       3.689   2.706  17.263  0.00  0.00    +0.000 C 
BRANCH  24  25
ATOM     25  C   UNL     1       4.482   3.936  17.690  0.00  0.00    +0.000 C 
BRANCH  25  26
ATOM     26  C   UNL     1       5.000   4.684  16.472  0.00  0.00    +0.000 C 
BRANCH  26  27
ATOM     27  C   UNL     1       5.905   3.789  15.633  0.00  0.00    +0.000 C 
BRANCH  27  28
ATOM     28  C   UNL     1       6.346   4.513  14.369  0.00  0.00    +0.000 C 
BRANCH  28  30
ATOM     29  C   UNL     1       6.987   4.060  11.988  0.00  0.00    +0.000 C 
ATOM     30  C   UNL     1       6.065   3.674  13.129  0.00  0.00    +0.000 C 
ENDBRANCH  28  30
ENDBRANCH  27  28
ENDBRANCH  26  27
ENDBRANCH  25  26
ENDBRANCH  24  25
ENDBRANCH  23  24
ENDBRANCH  22  23
ENDBRANCH  21  22
ENDBRANCH  20  21
ENDBRANCH  19  20
ENDBRANCH  18  19
ENDBRANCH  17  18
ENDBRANCH   1  17
TORSDOF 16
ENDMDL
MODEL 6
REMARK VINA RESULT:      -6.4      1.125      1.810
REMARK  Name = 
REMARK  19 active torsions:
REMARK  status: ('A' for Active; 'I' for Inactive)
REMARK    1  A    between atoms: C_1  and  C_2
REMARK    2  A    between atoms: C_2  and  C_3
REMARK    3  A    between atoms: C_3  and  C_4
REMARK    4  A    between atoms: C_4  and  C_5
REMARK    5  A    between atoms: C_5  and  C_6
REMARK    6  A    between atoms: C_6  and  C_7
REMARK    7  A    between atoms: C_7  and  C_8
REMARK    8  A    between atoms: C_8  and  C_9
REMARK    9  A    between atoms: C_9  and  C_10
REMARK   10  A    between atoms: C_10  and  C_11
REMARK   11  A    between atoms: C_11  and  C_12
REMARK   12  A    between atoms: C_12  and  C_13
REMARK   13  A    between atoms: C_13  and  C_14
REMARK   14  A    between atoms: C_14  and  C_15
REMARK   15  A    between atoms: C_15  and  C_16
REMARK   16  A    between atoms: C_16  and  O_18
REMARK   17  A    between atoms: O_18  and  C_19
REMARK   18  A    between atoms: C_27  and  C_28
REMARK   19  A    between atoms: C_27  and  C_29
REMARK                            x       y       z     vdW  Elec       q    Type
REMARK                         _______ _______ _______ _____ _____    ______ ____
ROOT
ATOM      1  C   UNL     1       6.535   5.244  15.588  0.00  0.00    +0.000 C 
ENDROOT
BRANCH   1   2
ATOM      2  C   UNL     1       6.863   4.327  16.745  0.00  0.00    +0.000 C 
ATOM      3  O   UNL     1       7.954   4.376  17.301  0.00  0.00    +0.000 OA
BRANCH   2   4
ATOM      4  O   UNL     1       5.843   3.491  17.081  0.00  0.00    +0.000 OA
BRANCH   4   5
ATOM      5  C   UNL     1       4.761   3.924  17.941  0.00  0.00    +0.000 C 
ATOM      6  C   UNL     1       4.709   3.124  19.258  0.00  0.00    +0.000 C 
ATOM      7  C   UNL     1       3.288   2.723  19.657  0.00  0.00    +0.000 C 
ATOM      8  O   UNL     1       3.150   2.432  21.040  0.00  0.00    +0.000 OA
ATOM      9  C   UNL     1       1.921   2.872  21.437  0.00  0.00    +0.000 C 
ATOM     10  O   UNL     1       1.375   2.620  22.496  0.00  0.00    +0.000 OA
ATOM     11  C   UNL     1       1.367   3.740  20.392  0.00  0.00    +0.000 C 
ATOM     12  C   UNL     1       2.241   3.735  19.385  0.00  0.00    +0.000 C 
ATOM     13  C   UNL     1       2.259   4.539  18.108  0.00  0.00    +0.000 C 
ATOM     14  C   UNL     1       2.467   6.034  18.425  0.00  0.00    +0.000 C 
ATOM     15  C   UNL     1       0.926   4.390  17.351  0.00  0.00    +0.000 C 
ATOM     16  C   UNL     1       3.409   4.025  17.204  0.00  0.00    +0.000 C 
ENDBRANCH   4   5
ENDBRANCH   2   4
ENDBRANCH   1   2
BRANCH   1  17
ATOM     17  C   UNL     1       5.792   6.529  15.920  0.00  0.00    +0.000 C 
BRANCH  17  18
ATOM     18  C   UNL     1       6.271   7.075  17.267  0.00  0.00    +0.000 C 
BRANCH  18  19
ATOM     19  C   UNL     1       7.579   7.837  17.128  0.00  0.00    +0.000 C 
BRANCH  19  20
ATOM     20  C   UNL     1       7.698   8.913  18.203  0.00  0.00    +0.000 C 
BRANCH  20  21
ATOM     21  C   UNL     1       8.966   9.723  17.977  0.00  0.00    +0.000 C 
BRANCH  21  22
ATOM     22  C   UNL     1       9.374  10.471  19.238  0.00  0.00    +0.000 C 
BRANCH  22  23
ATOM     23  C   UNL     1      10.618  11.303  18.960  0.00  0.00    +0.000 C 
BRANCH  23  24
ATOM     24  C   UNL     1      10.410  12.211  17.758  0.00  0.00    +0.000 C 
BRANCH  24  25
ATOM     25  C   UNL     1      11.572  13.189  17.630  0.00  0.00    +0.000 C 
BRANCH  25  26
ATOM     26  C   UNL     1      11.861  13.849  18.968  0.00  0.00    +0.000 C 
BRANCH  26  27
ATOM     27  C   UNL     1      11.021  15.110  19.140  0.00  0.00    +0.000 C 
BRANCH  27  28
ATOM     28  C   UNL     1       9.829  14.836  20.048  0.00  0.00    +0.000 C 
BRANCH  28  30
ATOM     29  C   UNL     1       9.204  13.232  21.870  0.00  0.00    +0.000 C 
ATOM     30  C   UNL     1      10.272  14.175  21.347  0.00  0.00    +0.000 C 
ENDBRANCH  28  30
ENDBRANCH  27  28
ENDBRANCH  26  27
ENDBRANCH  25  26
ENDBRANCH  24  25
ENDBRANCH  23  24
ENDBRANCH  22  23
ENDBRANCH  21  22
ENDBRANCH  20  21
ENDBRANCH  19  20
ENDBRANCH  18  19
ENDBRANCH  17  18
ENDBRANCH   1  17
TORSDOF 16
ENDMDL
MODEL 7
REMARK VINA RESULT:      -6.3      4.917      7.325
REMARK  Name = 
REMARK  19 active torsions:
REMARK  status: ('A' for Active; 'I' for Inactive)
REMARK    1  A    between atoms: C_1  and  C_2
REMARK    2  A    between atoms: C_2  and  C_3
REMARK    3  A    between atoms: C_3  and  C_4
REMARK    4  A    between atoms: C_4  and  C_5
REMARK    5  A    between atoms: C_5  and  C_6
REMARK    6  A    between atoms: C_6  and  C_7
REMARK    7  A    between atoms: C_7  and  C_8
REMARK    8  A    between atoms: C_8  and  C_9
REMARK    9  A    between atoms: C_9  and  C_10
REMARK   10  A    between atoms: C_10  and  C_11
REMARK   11  A    between atoms: C_11  and  C_12
REMARK   12  A    between atoms: C_12  and  C_13
REMARK   13  A    between atoms: C_13  and  C_14
REMARK   14  A    between atoms: C_14  and  C_15
REMARK   15  A    between atoms: C_15  and  C_16
REMARK   16  A    between atoms: C_16  and  O_18
REMARK   17  A    between atoms: O_18  and  C_19
REMARK   18  A    between atoms: C_27  and  C_28
REMARK   19  A    between atoms: C_27  and  C_29
REMARK                            x       y       z     vdW  Elec       q    Type
REMARK                         _______ _______ _______ _____ _____    ______ ____
ROOT
ATOM      1  C   UNL     1       1.644   3.687  20.080  0.00  0.00    +0.000 C 
ENDROOT
BRANCH   1   2
ATOM      2  C   UNL     1       1.758   3.247  18.637  0.00  0.00    +0.000 C 
ATOM      3  O   UNL     1       0.905   3.555  17.813  0.00  0.00    +0.000 OA
BRANCH   2   4
ATOM      4  O   UNL     1       2.876   2.515  18.380  0.00  0.00    +0.000 OA
BRANCH   4   5
ATOM      5  C   UNL     1       4.113   3.143  17.961  0.00  0.00    +0.000 C 
ATOM      6  C   UNL     1       4.988   3.559  19.161  0.00  0.00    +0.000 C 
ATOM      7  C   UNL     1       5.607   4.948  18.993  0.00  0.00    +0.000 C 
ATOM      8  O   UNL     1       6.756   5.156  19.801  0.00  0.00    +0.000 OA
ATOM      9  C   UNL     1       7.632   5.924  19.092  0.00  0.00    +0.000 C 
ATOM     10  O   UNL     1       8.630   6.467  19.529  0.00  0.00    +0.000 OA
ATOM     11  C   UNL     1       7.199   5.963  17.690  0.00  0.00    +0.000 C 
ATOM     12  C   UNL     1       6.054   5.284  17.621  0.00  0.00    +0.000 C 
ATOM     13  C   UNL     1       5.226   4.891  16.422  0.00  0.00    +0.000 C 
ATOM     14  C   UNL     1       6.003   3.885  15.548  0.00  0.00    +0.000 C 
ATOM     15  C   UNL     1       4.897   6.123  15.559  0.00  0.00    +0.000 C 
ATOM     16  C   UNL     1       3.901   4.253  16.912  0.00  0.00    +0.000 C 
ENDBRANCH   4   5
ENDBRANCH   2   4
ENDBRANCH   1   2
BRANCH   1  17
ATOM     17  C   UNL     1       1.301   5.148  20.328  0.00  0.00    +0.000 C 
BRANCH  17  18
ATOM     18  C   UNL     1       2.539   6.019  20.104  0.00  0.00    +0.000 C 
BRANCH  18  19
ATOM     19  C   UNL     1       2.163   7.414  19.630  0.00  0.00    +0.000 C 
BRANCH  19  20
ATOM     20  C   UNL     1       2.746   7.695  18.249  0.00  0.00    +0.000 C 
BRANCH  20  21
ATOM     21  C   UNL     1       2.048   8.899  17.635  0.00  0.00    +0.000 C 
BRANCH  21  22
ATOM     22  C   UNL     1       1.121   9.569  18.638  0.00  0.00    +0.000 C 
BRANCH  22  23
ATOM     23  C   UNL     1      -0.212   9.881  17.974  0.00  0.00    +0.000 C 
BRANCH  23  24
ATOM     24  C   UNL     1      -0.835  11.138  18.561  0.00  0.00    +0.000 C 
BRANCH  24  25
ATOM     25  C   UNL     1       0.243  12.022  19.175  0.00  0.00    +0.000 C 
BRANCH  25  26
ATOM     26  C   UNL     1      -0.219  13.469  19.223  0.00  0.00    +0.000 C 
BRANCH  26  27
ATOM     27  C   UNL     1       0.913  14.411  18.829  0.00  0.00    +0.000 C 
BRANCH  27  28
ATOM     28  C   UNL     1       0.609  15.831  19.287  0.00  0.00    +0.000 C 
BRANCH  28  30
ATOM     29  C   UNL     1      -0.820  17.854  18.900  0.00  0.00    +0.000 C 
ATOM     30  C   UNL     1      -0.388  16.505  18.354  0.00  0.00    +0.000 C 
ENDBRANCH  28  30
ENDBRANCH  27  28
ENDBRANCH  26  27
ENDBRANCH  25  26
ENDBRANCH  24  25
ENDBRANCH  23  24
ENDBRANCH  22  23
ENDBRANCH  21  22
ENDBRANCH  20  21
ENDBRANCH  19  20
ENDBRANCH  18  19
ENDBRANCH  17  18
ENDBRANCH   1  17
TORSDOF 16
ENDMDL
MODEL 8
REMARK VINA RESULT:      -6.2      5.710     10.046
REMARK  Name = 
REMARK  19 active torsions:
REMARK  status: ('A' for Active; 'I' for Inactive)
REMARK    1  A    between atoms: C_1  and  C_2
REMARK    2  A    between atoms: C_2  and  C_3
REMARK    3  A    between atoms: C_3  and  C_4
REMARK    4  A    between atoms: C_4  and  C_5
REMARK    5  A    between atoms: C_5  and  C_6
REMARK    6  A    between atoms: C_6  and  C_7
REMARK    7  A    between atoms: C_7  and  C_8
REMARK    8  A    between atoms: C_8  and  C_9
REMARK    9  A    between atoms: C_9  and  C_10
REMARK   10  A    between atoms: C_10  and  C_11
REMARK   11  A    between atoms: C_11  and  C_12
REMARK   12  A    between atoms: C_12  and  C_13
REMARK   13  A    between atoms: C_13  and  C_14
REMARK   14  A    between atoms: C_14  and  C_15
REMARK   15  A    between atoms: C_15  and  C_16
REMARK   16  A    between atoms: C_16  and  O_18
REMARK   17  A    between atoms: O_18  and  C_19
REMARK   18  A    between atoms: C_27  and  C_28
REMARK   19  A    between atoms: C_27  and  C_29
REMARK                            x       y       z     vdW  Elec       q    Type
REMARK                         _______ _______ _______ _____ _____    ______ ____
ROOT
ATOM      1  C   UNL     1       2.380   7.526  18.731  0.00  0.00    +0.000 C 
ENDROOT
BRANCH   1   2
ATOM      2  C   UNL     1       1.806   8.875  18.357  0.00  0.00    +0.000 C 
ATOM      3  O   UNL     1       2.168   9.456  17.341  0.00  0.00    +0.000 OA
BRANCH   2   4
ATOM      4  O   UNL     1       0.877   9.333  19.239  0.00  0.00    +0.000 OA
BRANCH   4   5
ATOM      5  C   UNL     1       0.969  10.659  19.817  0.00  0.00    +0.000 C 
ATOM      6  C   UNL     1       0.399  10.710  21.248  0.00  0.00    +0.000 C 
ATOM      7  C   UNL     1      -0.463  11.948  21.503  0.00  0.00    +0.000 C 
ATOM      8  O   UNL     1      -0.594  12.273  22.879  0.00  0.00    +0.000 OA
ATOM      9  C   UNL     1      -0.615  13.632  22.986  0.00  0.00    +0.000 C 
ATOM     10  O   UNL     1      -0.912  14.271  23.979  0.00  0.00    +0.000 OA
ATOM     11  C   UNL     1      -0.180  14.215  21.711  0.00  0.00    +0.000 C 
ATOM     12  C   UNL     1       0.017  13.198  20.871  0.00  0.00    +0.000 C 
ATOM     13  C   UNL     1       0.583  13.188  19.472  0.00  0.00    +0.000 C 
ATOM     14  C   UNL     1       2.070  13.597  19.499  0.00  0.00    +0.000 C 
ATOM     15  C   UNL     1      -0.172  14.182  18.571  0.00  0.00    +0.000 C 
ATOM     16  C   UNL     1       0.438  11.762  18.880  0.00  0.00    +0.000 C 
ENDBRANCH   4   5
ENDBRANCH   2   4
ENDBRANCH   1   2
BRANCH   1  17
ATOM     17  C   UNL     1       2.099   7.027  20.139  0.00  0.00    +0.000 C 
BRANCH  17  18
ATOM     18  C   UNL     1       2.334   5.517  20.214  0.00  0.00    +0.000 C 
BRANCH  18  19
ATOM     19  C   UNL     1       1.051   4.766  20.535  0.00  0.00    +0.000 C 
BRANCH  19  20
ATOM     20  C   UNL     1       1.058   3.380  19.898  0.00  0.00    +0.000 C 
BRANCH  20  21
ATOM     21  C   UNL     1       1.384   3.500  18.417  0.00  0.00    +0.000 C 
BRANCH  21  22
ATOM     22  C   UNL     1       2.264   2.349  17.952  0.00  0.00    +0.000 C 
BRANCH  22  23
ATOM     23  C   UNL     1       3.613   2.421  18.654  0.00  0.00    +0.000 C 
BRANCH  23  24
ATOM     24  C   UNL     1       4.401   3.640  18.200  0.00  0.00    +0.000 C 
BRANCH  24  25
ATOM     25  C   UNL     1       4.124   3.927  16.729  0.00  0.00    +0.000 C 
BRANCH  25  26
ATOM     26  C   UNL     1       4.986   5.081  16.241  0.00  0.00    +0.000 C 
BRANCH  26  27
ATOM     27  C   UNL     1       6.464   4.713  16.303  0.00  0.00    +0.000 C 
BRANCH  27  28
ATOM     28  C   UNL     1       7.046   4.611  14.900  0.00  0.00    +0.000 C 
BRANCH  28  30
ATOM     29  C   UNL     1       6.576   4.011  12.512  0.00  0.00    +0.000 C 
ATOM     30  C   UNL     1       6.033   4.020  13.928  0.00  0.00    +0.000 C 
ENDBRANCH  28  30
ENDBRANCH  27  28
ENDBRANCH  26  27
ENDBRANCH  25  26
ENDBRANCH  24  25
ENDBRANCH  23  24
ENDBRANCH  22  23
ENDBRANCH  21  22
ENDBRANCH  20  21
ENDBRANCH  19  20
ENDBRANCH  18  19
ENDBRANCH  17  18
ENDBRANCH   1  17
TORSDOF 16
ENDMDL
MODEL 9
REMARK VINA RESULT:      -6.1      1.667      2.162
REMARK  Name = 
REMARK  19 active torsions:
REMARK  status: ('A' for Active; 'I' for Inactive)
REMARK    1  A    between atoms: C_1  and  C_2
REMARK    2  A    between atoms: C_2  and  C_3
REMARK    3  A    between atoms: C_3  and  C_4
REMARK    4  A    between atoms: C_4  and  C_5
REMARK    5  A    between atoms: C_5  and  C_6
REMARK    6  A    between atoms: C_6  and  C_7
REMARK    7  A    between atoms: C_7  and  C_8
REMARK    8  A    between atoms: C_8  and  C_9
REMARK    9  A    between atoms: C_9  and  C_10
REMARK   10  A    between atoms: C_10  and  C_11
REMARK   11  A    between atoms: C_11  and  C_12
REMARK   12  A    between atoms: C_12  and  C_13
REMARK   13  A    between atoms: C_13  and  C_14
REMARK   14  A    between atoms: C_14  and  C_15
REMARK   15  A    between atoms: C_15  and  C_16
REMARK   16  A    between atoms: C_16  and  O_18
REMARK   17  A    between atoms: O_18  and  C_19
REMARK   18  A    between atoms: C_27  and  C_28
REMARK   19  A    between atoms: C_27  and  C_29
REMARK                            x       y       z     vdW  Elec       q    Type
REMARK                         _______ _______ _______ _____ _____    ______ ____
ROOT
ATOM      1  C   UNL     1       6.329   6.584  17.786  0.00  0.00    +0.000 C 
ENDROOT
BRANCH   1   2
ATOM      2  C   UNL     1       5.078   6.913  17.001  0.00  0.00    +0.000 C 
ATOM      3  O   UNL     1       5.086   6.928  15.776  0.00  0.00    +0.000 OA
BRANCH   2   4
ATOM      4  O   UNL     1       3.996   7.166  17.786  0.00  0.00    +0.000 OA
BRANCH   4   5
ATOM      5  C   UNL     1       3.089   6.109  18.190  0.00  0.00    +0.000 C 
ATOM      6  C   UNL     1       2.975   5.996  19.723  0.00  0.00    +0.000 C 
ATOM      7  C   UNL     1       2.998   4.548  20.217  0.00  0.00    +0.000 C 
ATOM      8  O   UNL     1       2.426   4.382  21.507  0.00  0.00    +0.000 OA
ATOM      9  C   UNL     1       1.775   3.183  21.523  0.00  0.00    +0.000 C 
ATOM     10  O   UNL     1       1.339   2.615  22.507  0.00  0.00    +0.000 OA
ATOM     11  C   UNL     1       1.646   2.696  20.145  0.00  0.00    +0.000 C 
ATOM     12  C   UNL     1       2.278   3.573  19.365  0.00  0.00    +0.000 C 
ATOM     13  C   UNL     1       2.365   3.653  17.860  0.00  0.00    +0.000 C 
ATOM     14  C   UNL     1       0.975   3.959  17.265  0.00  0.00    +0.000 C 
ATOM     15  C   UNL     1       2.856   2.318  17.271  0.00  0.00    +0.000 C 
ATOM     16  C   UNL     1       3.365   4.772  17.471  0.00  0.00    +0.000 C 
ENDBRANCH   4   5
ENDBRANCH   2   4
ENDBRANCH   1   2
BRANCH   1  17
ATOM     17  C   UNL     1       7.639   7.147  17.257  0.00  0.00    +0.000 C 
BRANCH  17  18
ATOM     18  C   UNL     1       8.275   8.062  18.306  0.00  0.00    +0.000 C 
BRANCH  18  19
ATOM     19  C   UNL     1       8.104   9.529  17.945  0.00  0.00    +0.000 C 
BRANCH  19  20
ATOM     20  C   UNL     1       9.355  10.326  18.299  0.00  0.00    +0.000 C 
BRANCH  20  21
ATOM     21  C   UNL     1       9.386  10.592  19.796  0.00  0.00    +0.000 C 
BRANCH  21  22
ATOM     22  C   UNL     1      10.572  11.466  20.176  0.00  0.00    +0.000 C 
BRANCH  22  23
ATOM     23  C   UNL     1      11.051  12.237  18.954  0.00  0.00    +0.000 C 
BRANCH  23  24
ATOM     24  C   UNL     1      11.989  13.366  19.354  0.00  0.00    +0.000 C 
BRANCH  24  25
ATOM     25  C   UNL     1      11.243  14.399  20.189  0.00  0.00    +0.000 C 
BRANCH  25  26
ATOM     26  C   UNL     1      10.004  14.883  19.454  0.00  0.00    +0.000 C 
BRANCH  26  27
ATOM     27  C   UNL     1       8.824  15.008  20.412  0.00  0.00    +0.000 C 
BRANCH  27  28
ATOM     28  C   UNL     1       9.174  14.414  21.769  0.00  0.00    +0.000 C 
BRANCH  28  30
ATOM     29  C   UNL     1       8.456  14.174  24.159  0.00  0.00    +0.000 C 
ATOM     30  C   UNL     1       8.051  14.641  22.773  0.00  0.00    +0.000 C 
ENDBRANCH  28  30
ENDBRANCH  27  28
ENDBRANCH  26  27
ENDBRANCH  25  26
ENDBRANCH  24  25
ENDBRANCH  23  24
ENDBRANCH  22  23
ENDBRANCH  21  22
ENDBRANCH  20  21
ENDBRANCH  19  20
ENDBRANCH  18  19
ENDBRANCH  17  18
ENDBRANCH   1  17
TORSDOF 16
ENDMDL
