MODEL 1
REMARK VINA RESULT:      -6.4      0.000      0.000
REMARK  Name = 
REMARK  0 active torsions:
REMARK  status: ('A' for Active; 'I' for Inactive)
REMARK                            x       y       z     vdW  Elec       q    Type
REMARK                         _______ _______ _______ _____ _____    ______ ____
ROOT
ATOM      1  C   UNL     1       0.775   2.901  19.652  0.00  0.00    +0.000 A 
ATOM      2  C   UNL     1       1.254   3.467  20.846  0.00  0.00    +0.000 A 
ATOM      3  C   UNL     1       2.322   4.365  20.841  0.00  0.00    +0.000 A 
ATOM      4  C   UNL     1       2.892   4.680  19.622  0.00  0.00    +0.000 A 
ATOM      5  C   UNL     1       2.406   4.123  18.430  0.00  0.00    +0.000 A 
ATOM      6  C   UNL     1       1.353   3.230  18.424  0.00  0.00    +0.000 A 
ATOM      7  C   UNL     1       3.286   4.578  17.289  0.00  0.00    +0.000 C 
ATOM      8  C   UNL     1       4.496   3.618  17.196  0.00  0.00    +0.000 C 
ATOM      9  N   UNL     1       5.695   4.052  17.948  0.00  0.00    +0.000 NA
ATOM     10  C   UNL     1       5.372   4.639  19.269  0.00  0.00    +0.000 C 
ATOM     11  C   UNL     1       4.102   5.527  19.307  0.00  0.00    +0.000 C 
ATOM     12  C   UNL     1       3.731   5.938  17.867  0.00  0.00    +0.000 C 
ATOM     13  H   UNL     1       6.174   4.764  17.394  0.00  0.00    +0.000 HD
ENDROOT
TORSDOF 0
ENDMDL
MODEL 2
REMARK VINA RESULT:      -6.2      1.456      2.286
REMARK  Name = 
REMARK  0 active torsions:
REMARK  status: ('A' for Active; 'I' for Inactive)
REMARK                            x       y       z     vdW  Elec       q    Type
REMARK                         _______ _______ _______ _____ _____    ______ ____
ROOT
ATOM      1  C   UNL     1       2.576   2.512  21.558  0.00  0.00    +0.000 A 
ATOM      2  C   UNL     1       1.313   3.111  21.406  0.00  0.00    +0.000 A 
ATOM      3  C   UNL     1       0.963   3.766  20.225  0.00  0.00    +0.000 A 
ATOM      4  C   UNL     1       1.899   3.805  19.209  0.00  0.00    +0.000 A 
ATOM      5  C   UNL     1       3.154   3.197  19.357  0.00  0.00    +0.000 A 
ATOM      6  C   UNL     1       3.513   2.550  20.523  0.00  0.00    +0.000 A 
ATOM      7  C   UNL     1       3.982   3.489  18.128  0.00  0.00    +0.000 C 
ATOM      8  C   UNL     1       4.670   4.863  18.320  0.00  0.00    +0.000 C 
ATOM      9  N   UNL     1       3.922   6.016  17.770  0.00  0.00    +0.000 NA
ATOM     10  C   UNL     1       2.462   5.929  18.007  0.00  0.00    +0.000 C 
ATOM     11  C   UNL     1       1.853   4.509  17.874  0.00  0.00    +0.000 C 
ATOM     12  C   UNL     1       2.837   3.609  17.099  0.00  0.00    +0.000 C 
ATOM     13  H   UNL     1       4.078   6.041  16.761  0.00  0.00    +0.000 HD
ENDROOT
TORSDOF 0
ENDMDL
MODEL 3
REMARK VINA RESULT:      -6.2      1.923      2.943
REMARK  Name = 
REMARK  0 active torsions:
REMARK  status: ('A' for Active; 'I' for Inactive)
REMARK                            x       y       z     vdW  Elec       q    Type
REMARK                         _______ _______ _______ _____ _____    ______ ____
ROOT
ATOM      1  C   UNL     1       2.862   3.585  18.363  0.00  0.00    +0.000 A 
ATOM      2  C   UNL     1       2.479   4.919  18.590  0.00  0.00    +0.000 A 
ATOM      3  C   UNL     1       3.137   5.976  17.959  0.00  0.00    +0.000 A 
ATOM      4  C   UNL     1       4.177   5.666  17.104  0.00  0.00    +0.000 A 
ATOM      5  C   UNL     1       4.551   4.335  16.869  0.00  0.00    +0.000 A 
ATOM      6  C   UNL     1       3.910   3.282  17.491  0.00  0.00    +0.000 A 
ATOM      7  C   UNL     1       5.767   4.324  15.974  0.00  0.00    +0.000 C 
ATOM      8  C   UNL     1       7.026   4.479  16.861  0.00  0.00    +0.000 C 
ATOM      9  N   UNL     1       7.495   5.871  17.041  0.00  0.00    +0.000 NA
ATOM     10  C   UNL     1       6.388   6.838  17.228  0.00  0.00    +0.000 C 
ATOM     11  C   UNL     1       5.128   6.577  16.364  0.00  0.00    +0.000 C 
ATOM     12  C   UNL     1       5.500   5.634  15.201  0.00  0.00    +0.000 C 
ATOM     13  H   UNL     1       8.011   6.141  16.203  0.00  0.00    +0.000 HD
ENDROOT
TORSDOF 0
ENDMDL
MODEL 4
REMARK VINA RESULT:      -6.1      1.608      3.257
REMARK  Name = 
REMARK  0 active torsions:
REMARK  status: ('A' for Active; 'I' for Inactive)
REMARK                            x       y       z     vdW  Elec       q    Type
REMARK                         _______ _______ _______ _____ _____    ______ ____
ROOT
ATOM      1  C   UNL     1       2.119   6.933  20.174  0.00  0.00    +0.000 A 
ATOM      2  C   UNL     1       2.431   7.201  18.830  0.00  0.00    +0.000 A 
ATOM      3  C   UNL     1       2.514   6.174  17.889  0.00  0.00    +0.000 A 
ATOM      4  C   UNL     1       2.277   4.884  18.323  0.00  0.00    +0.000 A 
ATOM      5  C   UNL     1       1.955   4.618  19.662  0.00  0.00    +0.000 A 
ATOM      6  C   UNL     1       1.875   5.626  20.602  0.00  0.00    +0.000 A 
ATOM      7  C   UNL     1       1.850   3.122  19.847  0.00  0.00    +0.000 C 
ATOM      8  C   UNL     1       3.268   2.565  20.120  0.00  0.00    +0.000 C 
ATOM      9  N   UNL     1       3.999   2.102  18.919  0.00  0.00    +0.000 NA
ATOM     10  C   UNL     1       3.813   2.990  17.748  0.00  0.00    +0.000 C 
ATOM     11  C   UNL     1       2.387   3.574  17.579  0.00  0.00    +0.000 C 
ATOM     12  C   UNL     1       1.397   2.742  18.421  0.00  0.00    +0.000 C 
ATOM     13  H   UNL     1       3.645   1.176  18.673  0.00  0.00    +0.000 HD
ENDROOT
TORSDOF 0
ENDMDL
MODEL 5
REMARK VINA RESULT:      -6.1      1.742      4.108
REMARK  Name = 
REMARK  0 active torsions:
REMARK  status: ('A' for Active; 'I' for Inactive)
REMARK                            x       y       z     vdW  Elec       q    Type
REMARK                         _______ _______ _______ _____ _____    ______ ____
ROOT
ATOM      1  C   UNL     1       5.253   6.622  16.638  0.00  0.00    +0.000 A 
ATOM      2  C   UNL     1       5.629   5.440  15.975  0.00  0.00    +0.000 A 
ATOM      3  C   UNL     1       4.924   4.251  16.166  0.00  0.00    +0.000 A 
ATOM      4  C   UNL     1       3.845   4.274  17.028  0.00  0.00    +0.000 A 
ATOM      5  C   UNL     1       3.464   5.456  17.680  0.00  0.00    +0.000 A 
ATOM      6  C   UNL     1       4.156   6.637  17.502  0.00  0.00    +0.000 A 
ATOM      7  C   UNL     1       2.322   5.145  18.619  0.00  0.00    +0.000 C 
ATOM      8  C   UNL     1       2.916   4.646  19.958  0.00  0.00    +0.000 C 
ATOM      9  N   UNL     1       3.060   3.177  20.067  0.00  0.00    +0.000 NA
ATOM     10  C   UNL     1       3.538   2.545  18.815  0.00  0.00    +0.000 C 
ATOM     11  C   UNL     1       2.962   3.147  17.508  0.00  0.00    +0.000 C 
ATOM     12  C   UNL     1       1.698   3.965  17.843  0.00  0.00    +0.000 C 
ATOM     13  H   UNL     1       2.144   2.785  20.288  0.00  0.00    +0.000 HD
ENDROOT
TORSDOF 0
ENDMDL
MODEL 6
REMARK VINA RESULT:      -6.0      2.008      3.796
REMARK  Name = 
REMARK  0 active torsions:
REMARK  status: ('A' for Active; 'I' for Inactive)
REMARK                            x       y       z     vdW  Elec       q    Type
REMARK                         _______ _______ _______ _____ _____    ______ ____
ROOT
ATOM      1  C   UNL     1       3.876   6.187  17.949  0.00  0.00    +0.000 A 
ATOM      2  C   UNL     1       4.987   5.571  18.551  0.00  0.00    +0.000 A 
ATOM      3  C   UNL     1       4.876   4.319  19.158  0.00  0.00    +0.000 A 
ATOM      4  C   UNL     1       3.638   3.706  19.147  0.00  0.00    +0.000 A 
ATOM      5  C   UNL     1       2.533   4.316  18.536  0.00  0.00    +0.000 A 
ATOM      6  C   UNL     1       2.630   5.556  17.936  0.00  0.00    +0.000 A 
ATOM      7  C   UNL     1       1.313   3.457  18.770  0.00  0.00    +0.000 C 
ATOM      8  C   UNL     1       0.709   3.832  20.145  0.00  0.00    +0.000 C 
ATOM      9  N   UNL     1       1.184   3.009  21.280  0.00  0.00    +0.000 NA
ATOM     10  C   UNL     1       2.634   2.710  21.215  0.00  0.00    +0.000 C 
ATOM     11  C   UNL     1       3.187   2.419  19.796  0.00  0.00    +0.000 C 
ATOM     12  C   UNL     1       2.011   2.082  18.855  0.00  0.00    +0.000 C 
ATOM     13  H   UNL     1       0.677   2.123  21.261  0.00  0.00    +0.000 HD
ENDROOT
TORSDOF 0
ENDMDL
MODEL 7
REMARK VINA RESULT:      -6.0      1.821      3.744
REMARK  Name = 
REMARK  0 active torsions:
REMARK  status: ('A' for Active; 'I' for Inactive)
REMARK                            x       y       z     vdW  Elec       q    Type
REMARK                         _______ _______ _______ _____ _____    ______ ____
ROOT
ATOM      1  C   UNL     1       4.870   5.965  17.987  0.00  0.00    +0.000 A 
ATOM      2  C   UNL     1       3.612   6.559  17.786  0.00  0.00    +0.000 A 
ATOM      3  C   UNL     1       2.450   5.980  18.299  0.00  0.00    +0.000 A 
ATOM      4  C   UNL     1       2.579   4.803  19.012  0.00  0.00    +0.000 A 
ATOM      5  C   UNL     1       3.835   4.217  19.222  0.00  0.00    +0.000 A 
ATOM      6  C   UNL     1       4.991   4.778  18.715  0.00  0.00    +0.000 A 
ATOM      7  C   UNL     1       3.643   2.904  19.943  0.00  0.00    +0.000 C 
ATOM      8  C   UNL     1       3.353   1.808  18.890  0.00  0.00    +0.000 C 
ATOM      9  N   UNL     1       1.917   1.568  18.618  0.00  0.00    +0.000 NA
ATOM     10  C   UNL     1       1.121   2.816  18.563  0.00  0.00    +0.000 C 
ATOM     11  C   UNL     1       1.517   3.902  19.596  0.00  0.00    +0.000 C 
ATOM     12  C   UNL     1       2.353   3.250  20.717  0.00  0.00    +0.000 C 
ATOM     13  H   UNL     1       1.546   0.990  19.373  0.00  0.00    +0.000 HD
ENDROOT
TORSDOF 0
ENDMDL
MODEL 8
REMARK VINA RESULT:      -6.0      2.121      2.565
REMARK  Name = 
REMARK  0 active torsions:
REMARK  status: ('A' for Active; 'I' for Inactive)
REMARK                            x       y       z     vdW  Elec       q    Type
REMARK                         _______ _______ _______ _____ _____    ______ ____
ROOT
ATOM      1  C   UNL     1       2.993   2.536  17.883  0.00  0.00    +0.000 A 
ATOM      2  C   UNL     1       3.659   2.515  19.122  0.00  0.00    +0.000 A 
ATOM      3  C   UNL     1       4.703   3.399  19.395  0.00  0.00    +0.000 A 
ATOM      4  C   UNL     1       5.060   4.297  18.407  0.00  0.00    +0.000 A 
ATOM      5  C   UNL     1       4.388   4.325  17.176  0.00  0.00    +0.000 A 
ATOM      6  C   UNL     1       3.357   3.452  16.893  0.00  0.00    +0.000 A 
ATOM      7  C   UNL     1       5.062   5.336  16.279  0.00  0.00    +0.000 C 
ATOM      8  C   UNL     1       6.249   4.643  15.569  0.00  0.00    +0.000 C 
ATOM      9  N   UNL     1       7.553   4.775  16.258  0.00  0.00    +0.000 NA
ATOM     10  C   UNL     1       7.448   4.643  17.730  0.00  0.00    +0.000 C 
ATOM     11  C   UNL     1       6.193   5.295  18.366  0.00  0.00    +0.000 C 
ATOM     12  C   UNL     1       5.585   6.300  17.366  0.00  0.00    +0.000 C 
ATOM     13  H   UNL     1       7.926   5.703  16.051  0.00  0.00    +0.000 HD
ENDROOT
TORSDOF 0
ENDMDL
MODEL 9
REMARK VINA RESULT:      -5.9      1.555      2.692
REMARK  Name = 
REMARK  0 active torsions:
REMARK  status: ('A' for Active; 'I' for Inactive)
REMARK                            x       y       z     vdW  Elec       q    Type
REMARK                         _______ _______ _______ _____ _____    ______ ____
ROOT
ATOM      1  C   UNL     1       1.595   6.602  20.641  0.00  0.00    +0.000 A 
ATOM      2  C   UNL     1       2.182   7.395  19.639  0.00  0.00    +0.000 A 
ATOM      3  C   UNL     1       2.833   6.816  18.549  0.00  0.00    +0.000 A 
ATOM      4  C   UNL     1       2.882   5.436  18.488  0.00  0.00    +0.000 A 
ATOM      5  C   UNL     1       2.287   4.645  19.482  0.00  0.00    +0.000 A 
ATOM      6  C   UNL     1       1.644   5.207  20.567  0.00  0.00    +0.000 A 
ATOM      7  C   UNL     1       2.589   3.194  19.191  0.00  0.00    +0.000 C 
ATOM      8  C   UNL     1       3.969   2.852  19.802  0.00  0.00    +0.000 C 
ATOM      9  N   UNL     1       5.115   3.004  18.878  0.00  0.00    +0.000 NA
ATOM     10  C   UNL     1       5.013   4.205  18.018  0.00  0.00    +0.000 C 
ATOM     11  C   UNL     1       3.587   4.533  17.504  0.00  0.00    +0.000 C 
ATOM     12  C   UNL     1       2.697   3.282  17.654  0.00  0.00    +0.000 C 
ATOM     13  H   UNL     1       5.142   2.182  18.272  0.00  0.00    +0.000 HD
ENDROOT
TORSDOF 0
ENDMDL
