MODEL 1
REMARK VINA RESULT:      -8.1      0.000      0.000
REMARK  Name = 
REMARK  3 active torsions:
REMARK  status: ('A' for Active; 'I' for Inactive)
REMARK    1  A    between atoms: C_2  and  C_9
REMARK    2  A    between atoms: N_3  and  C_4
REMARK    3  A    between atoms: C_14  and  C_15
REMARK                            x       y       z     vdW  Elec       q    Type
REMARK                         _______ _______ _______ _____ _____    ______ ____
ROOT
ATOM      1  C   UNL     1       5.289   5.573  16.240  0.00  0.00    +0.000 A 
ATOM      2  C   UNL     1       6.058   5.912  15.104  0.00  0.00    +0.000 A 
ATOM      3  C   UNL     1       6.454   4.943  14.184  0.00  0.00    +0.000 A 
ATOM      4  C   UNL     1       6.126   3.615  14.408  0.00  0.00    +0.000 A 
ATOM      5  C   UNL     1       5.391   3.264  15.542  0.00  0.00    +0.000 A 
ATOM      6  C   UNL     1       4.940   4.227  16.472  0.00  0.00    +0.000 A 
ENDROOT
BRANCH   6   7
ATOM      7  C   UNL     1       4.077   3.718  17.555  0.00  0.00    +0.000 A 
ATOM      8  N   UNL     1       2.763   3.881  17.620  0.00  0.00    +0.000 NA
ATOM      9  C   UNL     1       2.386   3.465  18.871  0.00  0.00    +0.000 A 
ATOM     10  C   UNL     1       1.119   3.462  19.474  0.00  0.00    +0.000 A 
ATOM     11  C   UNL     1       1.015   3.060  20.811  0.00  0.00    +0.000 A 
ATOM     12  C   UNL     1       2.144   2.652  21.527  0.00  0.00    +0.000 A 
ATOM     13  C   UNL     1       3.409   2.611  20.930  0.00  0.00    +0.000 A 
ATOM     14  C   UNL     1       3.483   3.030  19.600  0.00  0.00    +0.000 A 
ATOM     15  N   UNL     1       4.523   3.127  18.715  0.00  0.00    +0.000 N 
ATOM     16  H   UNL     1       5.469   2.814  18.885  0.00  0.00    +0.000 HD
ENDBRANCH   6   7
BRANCH   1  18
ATOM     17  O   UNL     1       5.764   7.411  17.670  0.00  0.00    +0.000 OA
ATOM     18  C   UNL     1       4.919   6.679  17.173  0.00  0.00    +0.000 C 
ATOM     19  N   UNL     1       3.575   6.792  17.466  0.00  0.00    +0.000 N 
ATOM     20  H   UNL     1       2.952   6.035  17.218  0.00  0.00    +0.000 HD
BRANCH  19  21
ATOM     21  C   UNL     1       3.071   7.811  18.356  0.00  0.00    +0.000 C 
ATOM     22  C   UNL     1       1.976   8.642  17.704  0.00  0.00    +0.000 C 
ATOM     23  C   UNL     1       1.285   9.304  18.886  0.00  0.00    +0.000 C 
ATOM     24  C   UNL     1       1.436   8.330  20.055  0.00  0.00    +0.000 C 
ATOM     25  C   UNL     1       2.373   7.223  19.577  0.00  0.00    +0.000 C 
ENDBRANCH  19  21
ENDBRANCH   1  18
TORSDOF 3
ENDMDL
MODEL 2
REMARK VINA RESULT:      -7.8      1.402      4.710
REMARK  Name = 
REMARK  3 active torsions:
REMARK  status: ('A' for Active; 'I' for Inactive)
REMARK    1  A    between atoms: C_2  and  C_9
REMARK    2  A    between atoms: N_3  and  C_4
REMARK    3  A    between atoms: C_14  and  C_15
REMARK                            x       y       z     vdW  Elec       q    Type
REMARK                         _______ _______ _______ _____ _____    ______ ____
ROOT
ATOM      1  C   UNL     1       4.473   4.254  16.697  0.00  0.00    +0.000 A 
ATOM      2  C   UNL     1       5.333   3.482  15.884  0.00  0.00    +0.000 A 
ATOM      3  C   UNL     1       6.348   4.077  15.136  0.00  0.00    +0.000 A 
ATOM      4  C   UNL     1       6.489   5.455  15.154  0.00  0.00    +0.000 A 
ATOM      5  C   UNL     1       5.627   6.231  15.930  0.00  0.00    +0.000 A 
ATOM      6  C   UNL     1       4.616   5.656  16.731  0.00  0.00    +0.000 A 
ENDROOT
BRANCH   6   7
ATOM      7  C   UNL     1       3.862   6.594  17.585  0.00  0.00    +0.000 A 
ATOM      8  N   UNL     1       3.443   6.334  18.815  0.00  0.00    +0.000 NA
ATOM      9  C   UNL     1       2.604   7.361  19.162  0.00  0.00    +0.000 A 
ATOM     10  C   UNL     1       1.862   7.560  20.335  0.00  0.00    +0.000 A 
ATOM     11  C   UNL     1       1.004   8.664  20.406  0.00  0.00    +0.000 A 
ATOM     12  C   UNL     1       0.900   9.561  19.339  0.00  0.00    +0.000 A 
ATOM     13  C   UNL     1       1.663   9.400  18.176  0.00  0.00    +0.000 A 
ATOM     14  C   UNL     1       2.500   8.284  18.131  0.00  0.00    +0.000 A 
ATOM     15  N   UNL     1       3.367   7.814  17.181  0.00  0.00    +0.000 N 
ATOM     16  H   UNL     1       3.607   8.285  16.320  0.00  0.00    +0.000 HD
ENDBRANCH   6   7
BRANCH   1  18
ATOM     17  O   UNL     1       2.408   3.095  16.904  0.00  0.00    +0.000 OA
ATOM     18  C   UNL     1       3.411   3.528  17.456  0.00  0.00    +0.000 C 
ATOM     19  N   UNL     1       3.617   3.417  18.815  0.00  0.00    +0.000 N 
ATOM     20  H   UNL     1       4.333   3.980  19.253  0.00  0.00    +0.000 HD
BRANCH  19  21
ATOM     21  C   UNL     1       2.672   2.745  19.677  0.00  0.00    +0.000 C 
ATOM     22  C   UNL     1       3.189   2.629  21.104  0.00  0.00    +0.000 C 
ATOM     23  C   UNL     1       1.933   2.342  21.911  0.00  0.00    +0.000 C 
ATOM     24  C   UNL     1       0.791   3.031  21.164  0.00  0.00    +0.000 C 
ATOM     25  C   UNL     1       1.377   3.533  19.846  0.00  0.00    +0.000 C 
ENDBRANCH  19  21
ENDBRANCH   1  18
TORSDOF 3
ENDMDL
MODEL 3
REMARK VINA RESULT:      -7.7      2.375      5.341
REMARK  Name = 
REMARK  3 active torsions:
REMARK  status: ('A' for Active; 'I' for Inactive)
REMARK    1  A    between atoms: C_2  and  C_9
REMARK    2  A    between atoms: N_3  and  C_4
REMARK    3  A    between atoms: C_14  and  C_15
REMARK                            x       y       z     vdW  Elec       q    Type
REMARK                         _______ _______ _______ _____ _____    ______ ____
ROOT
ATOM      1  C   UNL     1       2.015   5.125  20.035  0.00  0.00    +0.000 A 
ATOM      2  C   UNL     1       0.883   4.442  20.535  0.00  0.00    +0.000 A 
ATOM      3  C   UNL     1       0.831   3.049  20.555  0.00  0.00    +0.000 A 
ATOM      4  C   UNL     1       1.888   2.319  20.035  0.00  0.00    +0.000 A 
ATOM      5  C   UNL     1       2.999   2.983  19.512  0.00  0.00    +0.000 A 
ATOM      6  C   UNL     1       3.101   4.392  19.515  0.00  0.00    +0.000 A 
ENDROOT
BRANCH   6   7
ATOM      7  C   UNL     1       4.382   4.944  19.036  0.00  0.00    +0.000 A 
ATOM      8  N   UNL     1       5.533   4.870  19.688  0.00  0.00    +0.000 NA
ATOM      9  C   UNL     1       6.408   5.688  19.021  0.00  0.00    +0.000 A 
ATOM     10  C   UNL     1       7.743   6.005  19.310  0.00  0.00    +0.000 A 
ATOM     11  C   UNL     1       8.397   6.947  18.507  0.00  0.00    +0.000 A 
ATOM     12  C   UNL     1       7.743   7.546  17.428  0.00  0.00    +0.000 A 
ATOM     13  C   UNL     1       6.423   7.213  17.100  0.00  0.00    +0.000 A 
ATOM     14  C   UNL     1       5.794   6.280  17.927  0.00  0.00    +0.000 A 
ATOM     15  N   UNL     1       4.541   5.730  17.916  0.00  0.00    +0.000 N 
ATOM     16  H   UNL     1       3.841   5.875  17.202  0.00  0.00    +0.000 HD
ENDBRANCH   6   7
BRANCH   1  18
ATOM     17  O   UNL     1       2.527   7.284  19.183  0.00  0.00    +0.000 OA
ATOM     18  C   UNL     1       1.976   6.618  20.049  0.00  0.00    +0.000 C 
ATOM     19  N   UNL     1       1.318   7.190  21.118  0.00  0.00    +0.000 N 
ATOM     20  H   UNL     1       1.082   6.616  21.916  0.00  0.00    +0.000 HD
BRANCH  19  21
ATOM     21  C   UNL     1       1.205   8.623  21.266  0.00  0.00    +0.000 C 
ATOM     22  C   UNL     1       0.281   9.229  20.220  0.00  0.00    +0.000 C 
ATOM     23  C   UNL     1      -0.065  10.591  20.802  0.00  0.00    +0.000 C 
ATOM     24  C   UNL     1      -0.018  10.418  22.320  0.00  0.00    +0.000 C 
ATOM     25  C   UNL     1       0.541   9.021  22.580  0.00  0.00    +0.000 C 
ENDBRANCH  19  21
ENDBRANCH   1  18
TORSDOF 3
ENDMDL
MODEL 4
REMARK VINA RESULT:      -7.6      2.086      5.496
REMARK  Name = 
REMARK  3 active torsions:
REMARK  status: ('A' for Active; 'I' for Inactive)
REMARK    1  A    between atoms: C_2  and  C_9
REMARK    2  A    between atoms: N_3  and  C_4
REMARK    3  A    between atoms: C_14  and  C_15
REMARK                            x       y       z     vdW  Elec       q    Type
REMARK                         _______ _______ _______ _____ _____    ______ ____
ROOT
ATOM      1  C   UNL     1       3.189   3.779  18.349  0.00  0.00    +0.000 A 
ATOM      2  C   UNL     1       3.055   2.375  18.265  0.00  0.00    +0.000 A 
ATOM      3  C   UNL     1       1.977   1.716  18.854  0.00  0.00    +0.000 A 
ATOM      4  C   UNL     1       1.042   2.444  19.573  0.00  0.00    +0.000 A 
ATOM      5  C   UNL     1       1.181   3.828  19.688  0.00  0.00    +0.000 A 
ATOM      6  C   UNL     1       2.238   4.531  19.069  0.00  0.00    +0.000 A 
ENDROOT
BRANCH   6   7
ATOM      7  C   UNL     1       2.186   6.001  19.182  0.00  0.00    +0.000 A 
ATOM      8  N   UNL     1       1.799   6.667  20.260  0.00  0.00    +0.000 NA
ATOM      9  C   UNL     1       1.681   7.979  19.880  0.00  0.00    +0.000 A 
ATOM     10  C   UNL     1       1.265   9.096  20.619  0.00  0.00    +0.000 A 
ATOM     11  C   UNL     1       1.149  10.328  19.964  0.00  0.00    +0.000 A 
ATOM     12  C   UNL     1       1.458  10.450  18.607  0.00  0.00    +0.000 A 
ATOM     13  C   UNL     1       1.912   9.354  17.862  0.00  0.00    +0.000 A 
ATOM     14  C   UNL     1       2.006   8.137  18.540  0.00  0.00    +0.000 A 
ATOM     15  N   UNL     1       2.397   6.886  18.148  0.00  0.00    +0.000 N 
ATOM     16  H   UNL     1       2.779   6.646  17.244  0.00  0.00    +0.000 HD
ENDBRANCH   6   7
BRANCH   1  18
ATOM     17  O   UNL     1       4.565   4.310  16.486  0.00  0.00    +0.000 OA
ATOM     18  C   UNL     1       4.382   4.394  17.692  0.00  0.00    +0.000 C 
ATOM     19  N   UNL     1       5.276   5.018  18.537  0.00  0.00    +0.000 N 
ATOM     20  H   UNL     1       5.201   4.865  19.534  0.00  0.00    +0.000 HD
BRANCH  19  21
ATOM     21  C   UNL     1       6.476   5.652  18.044  0.00  0.00    +0.000 C 
ATOM     22  C   UNL     1       6.184   7.006  17.414  0.00  0.00    +0.000 C 
ATOM     23  C   UNL     1       7.546   7.684  17.390  0.00  0.00    +0.000 C 
ATOM     24  C   UNL     1       8.310   7.124  18.589  0.00  0.00    +0.000 C 
ATOM     25  C   UNL     1       7.452   5.999  19.163  0.00  0.00    +0.000 C 
ENDBRANCH  19  21
ENDBRANCH   1  18
TORSDOF 3
ENDMDL
MODEL 5
REMARK VINA RESULT:      -7.6      1.449      6.051
REMARK  Name = 
REMARK  3 active torsions:
REMARK  status: ('A' for Active; 'I' for Inactive)
REMARK    1  A    between atoms: C_2  and  C_9
REMARK    2  A    between atoms: N_3  and  C_4
REMARK    3  A    between atoms: C_14  and  C_15
REMARK                            x       y       z     vdW  Elec       q    Type
REMARK                         _______ _______ _______ _____ _____    ______ ____
ROOT
ATOM      1  C   UNL     1       3.484   4.012  19.778  0.00  0.00    +0.000 A 
ATOM      2  C   UNL     1       3.474   2.633  20.088  0.00  0.00    +0.000 A 
ATOM      3  C   UNL     1       2.462   2.076  20.868  0.00  0.00    +0.000 A 
ATOM      4  C   UNL     1       1.471   2.894  21.387  0.00  0.00    +0.000 A 
ATOM      5  C   UNL     1       1.487   4.263  21.111  0.00  0.00    +0.000 A 
ATOM      6  C   UNL     1       2.475   4.852  20.290  0.00  0.00    +0.000 A 
ENDROOT
BRANCH   6   7
ATOM      7  C   UNL     1       2.293   6.285  19.995  0.00  0.00    +0.000 A 
ATOM      8  N   UNL     1       1.632   7.141  20.761  0.00  0.00    +0.000 NA
ATOM      9  C   UNL     1       1.506   8.295  20.030  0.00  0.00    +0.000 A 
ATOM     10  C   UNL     1       0.859   9.497  20.350  0.00  0.00    +0.000 A 
ATOM     11  C   UNL     1       0.802  10.505  19.381  0.00  0.00    +0.000 A 
ATOM     12  C   UNL     1       1.392  10.329  18.127  0.00  0.00    +0.000 A 
ATOM     13  C   UNL     1       2.076   9.150  17.804  0.00  0.00    +0.000 A 
ATOM     14  C   UNL     1       2.105   8.159  18.786  0.00  0.00    +0.000 A 
ATOM     15  N   UNL     1       2.662   6.909  18.825  0.00  0.00    +0.000 N 
ATOM     16  H   UNL     1       3.251   6.506  18.109  0.00  0.00    +0.000 HD
ENDBRANCH   6   7
BRANCH   1  18
ATOM     17  O   UNL     1       5.456   5.282  19.392  0.00  0.00    +0.000 OA
ATOM     18  C   UNL     1       4.614   4.517  18.941  0.00  0.00    +0.000 C 
ATOM     19  N   UNL     1       4.618   4.102  17.626  0.00  0.00    +0.000 N 
ATOM     20  H   UNL     1       3.790   3.664  17.245  0.00  0.00    +0.000 HD
BRANCH  19  21
ATOM     21  C   UNL     1       5.645   4.515  16.698  0.00  0.00    +0.000 C 
ATOM     22  C   UNL     1       5.850   3.494  15.589  0.00  0.00    +0.000 C 
ATOM     23  C   UNL     1       6.585   4.283  14.516  0.00  0.00    +0.000 C 
ATOM     24  C   UNL     1       6.109   5.728  14.663  0.00  0.00    +0.000 C 
ATOM     25  C   UNL     1       5.263   5.778  15.933  0.00  0.00    +0.000 C 
ENDBRANCH  19  21
ENDBRANCH   1  18
TORSDOF 3
ENDMDL
MODEL 6
REMARK VINA RESULT:      -7.6      2.323      4.923
REMARK  Name = 
REMARK  3 active torsions:
REMARK  status: ('A' for Active; 'I' for Inactive)
REMARK    1  A    between atoms: C_2  and  C_9
REMARK    2  A    between atoms: N_3  and  C_4
REMARK    3  A    between atoms: C_14  and  C_15
REMARK                            x       y       z     vdW  Elec       q    Type
REMARK                         _______ _______ _______ _____ _____    ______ ____
ROOT
ATOM      1  C   UNL     1       2.134   4.223  19.462  0.00  0.00    +0.000 A 
ATOM      2  C   UNL     1       1.005   3.384  19.609  0.00  0.00    +0.000 A 
ATOM      3  C   UNL     1       0.910   2.174  18.924  0.00  0.00    +0.000 A 
ATOM      4  C   UNL     1       1.919   1.804  18.049  0.00  0.00    +0.000 A 
ATOM      5  C   UNL     1       3.025   2.638  17.873  0.00  0.00    +0.000 A 
ATOM      6  C   UNL     1       3.171   3.851  18.583  0.00  0.00    +0.000 A 
ENDROOT
BRANCH   6   7
ATOM      7  C   UNL     1       4.446   4.564  18.379  0.00  0.00    +0.000 A 
ATOM      8  N   UNL     1       5.506   4.466  19.167  0.00  0.00    +0.000 NA
ATOM      9  C   UNL     1       6.379   5.444  18.762  0.00  0.00    +0.000 A 
ATOM     10  C   UNL     1       7.631   5.804  19.281  0.00  0.00    +0.000 A 
ATOM     11  C   UNL     1       8.291   6.909  18.732  0.00  0.00    +0.000 A 
ATOM     12  C   UNL     1       7.726   7.630  17.676  0.00  0.00    +0.000 A 
ATOM     13  C   UNL     1       6.496   7.261  17.119  0.00  0.00    +0.000 A 
ATOM     14  C   UNL     1       5.857   6.162  17.696  0.00  0.00    +0.000 A 
ATOM     15  N   UNL     1       4.671   5.532  17.426  0.00  0.00    +0.000 N 
ATOM     16  H   UNL     1       4.058   5.742  16.651  0.00  0.00    +0.000 HD
ENDBRANCH   6   7
BRANCH   1  18
ATOM     17  O   UNL     1       2.365   5.528  21.434  0.00  0.00    +0.000 OA
ATOM     18  C   UNL     1       2.142   5.503  20.231  0.00  0.00    +0.000 C 
ATOM     19  N   UNL     1       1.841   6.638  19.508  0.00  0.00    +0.000 N 
ATOM     20  H   UNL     1       1.444   6.543  18.583  0.00  0.00    +0.000 HD
BRANCH  19  21
ATOM     21  C   UNL     1       1.805   7.946  20.121  0.00  0.00    +0.000 C 
ATOM     22  C   UNL     1       1.440   9.031  19.119  0.00  0.00    +0.000 C 
ATOM     23  C   UNL     1       1.012  10.195  20.000  0.00  0.00    +0.000 C 
ATOM     24  C   UNL     1       0.426   9.565  21.264  0.00  0.00    +0.000 C 
ATOM     25  C   UNL     1       0.706   8.066  21.170  0.00  0.00    +0.000 C 
ENDBRANCH  19  21
ENDBRANCH   1  18
TORSDOF 3
ENDMDL
MODEL 7
REMARK VINA RESULT:      -7.5      1.704      5.027
REMARK  Name = 
REMARK  3 active torsions:
REMARK  status: ('A' for Active; 'I' for Inactive)
REMARK    1  A    between atoms: C_2  and  C_9
REMARK    2  A    between atoms: N_3  and  C_4
REMARK    3  A    between atoms: C_14  and  C_15
REMARK                            x       y       z     vdW  Elec       q    Type
REMARK                         _______ _______ _______ _____ _____    ______ ____
ROOT
ATOM      1  C   UNL     1       2.206   4.828  19.887  0.00  0.00    +0.000 A 
ATOM      2  C   UNL     1       1.345   4.299  20.875  0.00  0.00    +0.000 A 
ATOM      3  C   UNL     1       1.167   2.924  21.017  0.00  0.00    +0.000 A 
ATOM      4  C   UNL     1       1.811   2.059  20.146  0.00  0.00    +0.000 A 
ATOM      5  C   UNL     1       2.643   2.571  19.149  0.00  0.00    +0.000 A 
ATOM      6  C   UNL     1       2.876   3.956  19.004  0.00  0.00    +0.000 A 
ENDROOT
BRANCH   6   7
ATOM      7  C   UNL     1       3.868   4.337  17.981  0.00  0.00    +0.000 A 
ATOM      8  N   UNL     1       3.727   4.145  16.677  0.00  0.00    +0.000 NA
ATOM      9  C   UNL     1       4.946   4.425  16.113  0.00  0.00    +0.000 A 
ATOM     10  C   UNL     1       5.357   4.344  14.775  0.00  0.00    +0.000 A 
ATOM     11  C   UNL     1       6.698   4.607  14.469  0.00  0.00    +0.000 A 
ATOM     12  C   UNL     1       7.605   4.961  15.471  0.00  0.00    +0.000 A 
ATOM     13  C   UNL     1       7.203   5.085  16.807  0.00  0.00    +0.000 A 
ATOM     14  C   UNL     1       5.863   4.805  17.081  0.00  0.00    +0.000 A 
ATOM     15  N   UNL     1       5.133   4.816  18.239  0.00  0.00    +0.000 N 
ATOM     16  H   UNL     1       5.466   5.127  19.141  0.00  0.00    +0.000 HD
ENDBRANCH   6   7
BRANCH   1  18
ATOM     17  O   UNL     1       3.048   6.858  18.982  0.00  0.00    +0.000 OA
ATOM     18  C   UNL     1       2.327   6.314  19.807  0.00  0.00    +0.000 C 
ATOM     19  N   UNL     1       1.610   7.024  20.748  0.00  0.00    +0.000 N 
ATOM     20  H   UNL     1       1.217   6.535  21.541  0.00  0.00    +0.000 HD
BRANCH  19  21
ATOM     21  C   UNL     1       1.634   8.468  20.796  0.00  0.00    +0.000 C 
ATOM     22  C   UNL     1       0.851   9.086  19.647  0.00  0.00    +0.000 C 
ATOM     23  C   UNL     1       0.608  10.513  20.113  0.00  0.00    +0.000 C 
ATOM     24  C   UNL     1       0.533  10.444  21.639  0.00  0.00    +0.000 C 
ATOM     25  C   UNL     1       0.926   9.021  22.028  0.00  0.00    +0.000 C 
ENDBRANCH  19  21
ENDBRANCH   1  18
TORSDOF 3
ENDMDL
MODEL 8
REMARK VINA RESULT:      -7.4      1.495      5.074
REMARK  Name = 
REMARK  3 active torsions:
REMARK  status: ('A' for Active; 'I' for Inactive)
REMARK    1  A    between atoms: C_2  and  C_9
REMARK    2  A    between atoms: N_3  and  C_4
REMARK    3  A    between atoms: C_14  and  C_15
REMARK                            x       y       z     vdW  Elec       q    Type
REMARK                         _______ _______ _______ _____ _____    ______ ____
ROOT
ATOM      1  C   UNL     1       2.744   4.803  20.067  0.00  0.00    +0.000 A 
ATOM      2  C   UNL     1       1.945   4.557  21.207  0.00  0.00    +0.000 A 
ATOM      3  C   UNL     1       1.870   3.287  21.777  0.00  0.00    +0.000 A 
ATOM      4  C   UNL     1       2.556   2.235  21.190  0.00  0.00    +0.000 A 
ATOM      5  C   UNL     1       3.325   2.460  20.047  0.00  0.00    +0.000 A 
ATOM      6  C   UNL     1       3.454   3.743  19.469  0.00  0.00    +0.000 A 
ENDROOT
BRANCH   6   7
ATOM      7  C   UNL     1       4.392   3.845  18.336  0.00  0.00    +0.000 A 
ATOM      8  N   UNL     1       5.684   4.121  18.440  0.00  0.00    +0.000 NA
ATOM      9  C   UNL     1       6.135   4.344  17.164  0.00  0.00    +0.000 A 
ATOM     10  C   UNL     1       7.411   4.710  16.712  0.00  0.00    +0.000 A 
ATOM     11  C   UNL     1       7.591   4.962  15.347  0.00  0.00    +0.000 A 
ATOM     12  C   UNL     1       6.529   4.833  14.448  0.00  0.00    +0.000 A 
ATOM     13  C   UNL     1       5.258   4.429  14.876  0.00  0.00    +0.000 A 
ATOM     14  C   UNL     1       5.107   4.198  16.244  0.00  0.00    +0.000 A 
ATOM     15  N   UNL     1       4.039   3.805  17.005  0.00  0.00    +0.000 N 
ATOM     16  H   UNL     1       3.134   3.529  16.650  0.00  0.00    +0.000 HD
ENDBRANCH   6   7
BRANCH   1  18
ATOM     17  O   UNL     1       3.453   6.508  18.571  0.00  0.00    +0.000 OA
ATOM     18  C   UNL     1       2.754   6.195  19.525  0.00  0.00    +0.000 C 
ATOM     19  N   UNL     1       1.963   7.105  20.195  0.00  0.00    +0.000 N 
ATOM     20  H   UNL     1       1.589   6.859  21.101  0.00  0.00    +0.000 HD
BRANCH  19  21
ATOM     21  C   UNL     1       1.878   8.488  19.787  0.00  0.00    +0.000 C 
ATOM     22  C   UNL     1       1.474   8.624  18.326  0.00  0.00    +0.000 C 
ATOM     23  C   UNL     1       1.002  10.066  18.224  0.00  0.00    +0.000 C 
ATOM     24  C   UNL     1       0.438  10.417  19.601  0.00  0.00    +0.000 C 
ATOM     25  C   UNL     1       0.773   9.243  20.518  0.00  0.00    +0.000 C 
ENDBRANCH  19  21
ENDBRANCH   1  18
TORSDOF 3
ENDMDL
MODEL 9
REMARK VINA RESULT:      -7.3      1.531      5.991
REMARK  Name = 
REMARK  3 active torsions:
REMARK  status: ('A' for Active; 'I' for Inactive)
REMARK    1  A    between atoms: C_2  and  C_9
REMARK    2  A    between atoms: N_3  and  C_4
REMARK    3  A    between atoms: C_14  and  C_15
REMARK                            x       y       z     vdW  Elec       q    Type
REMARK                         _______ _______ _______ _____ _____    ______ ____
ROOT
ATOM      1  C   UNL     1       3.879   4.140  19.742  0.00  0.00    +0.000 A 
ATOM      2  C   UNL     1       4.184   2.827  20.166  0.00  0.00    +0.000 A 
ATOM      3  C   UNL     1       3.365   2.150  21.068  0.00  0.00    +0.000 A 
ATOM      4  C   UNL     1       2.254   2.791  21.594  0.00  0.00    +0.000 A 
ATOM      5  C   UNL     1       1.959   4.099  21.204  0.00  0.00    +0.000 A 
ATOM      6  C   UNL     1       2.745   4.797  20.261  0.00  0.00    +0.000 A 
ENDROOT
BRANCH   6   7
ATOM      7  C   UNL     1       2.242   6.125  19.863  0.00  0.00    +0.000 A 
ATOM      8  N   UNL     1       2.442   6.691  18.681  0.00  0.00    +0.000 NA
ATOM      9  C   UNL     1       2.014   7.988  18.798  0.00  0.00    +0.000 A 
ATOM     10  C   UNL     1       2.037   9.031  17.861  0.00  0.00    +0.000 A 
ATOM     11  C   UNL     1       1.612  10.303  18.264  0.00  0.00    +0.000 A 
ATOM     12  C   UNL     1       1.156  10.528  19.565  0.00  0.00    +0.000 A 
ATOM     13  C   UNL     1       1.090   9.490  20.503  0.00  0.00    +0.000 A 
ATOM     14  C   UNL     1       1.531   8.237  20.075  0.00  0.00    +0.000 A 
ATOM     15  N   UNL     1       1.615   7.021  20.699  0.00  0.00    +0.000 N 
ATOM     16  H   UNL     1       1.271   6.812  21.626  0.00  0.00    +0.000 HD
ENDBRANCH   6   7
BRANCH   1  18
ATOM     17  O   UNL     1       5.673   5.582  19.148  0.00  0.00    +0.000 OA
ATOM     18  C   UNL     1       4.821   4.785  18.778  0.00  0.00    +0.000 C 
ATOM     19  N   UNL     1       4.637   4.457  17.451  0.00  0.00    +0.000 N 
ATOM     20  H   UNL     1       3.789   3.983  17.173  0.00  0.00    +0.000 HD
BRANCH  19  21
ATOM     21  C   UNL     1       5.469   5.009  16.407  0.00  0.00    +0.000 C 
ATOM     22  C   UNL     1       6.914   4.545  16.530  0.00  0.00    +0.000 C 
ATOM     23  C   UNL     1       7.493   4.827  15.152  0.00  0.00    +0.000 C 
ATOM     24  C   UNL     1       6.327   4.684  14.174  0.00  0.00    +0.000 C 
ATOM     25  C   UNL     1       5.069   4.514  15.022  0.00  0.00    +0.000 C 
ENDBRANCH  19  21
ENDBRANCH   1  18
TORSDOF 3
ENDMDL
