MODEL 1
REMARK VINA RESULT:      -7.5      0.000      0.000
REMARK  Name = 
REMARK  10 active torsions:
REMARK  status: ('A' for Active; 'I' for Inactive)
REMARK    1  A    between atoms: C_1  and  O_2
REMARK    2  A    between atoms: O_2  and  C_3
REMARK    3  A    between atoms: C_8  and  N_9
REMARK    4  A    between atoms: N_13  and  C_14
REMARK    5  A    between atoms: C_14  and  C_15
REMARK    6  A    between atoms: C_15  and  C_16
REMARK    7  A    between atoms: C_16  and  C_17
REMARK    8  A    between atoms: C_17  and  N_18
REMARK    9  A    between atoms: C_19  and  C_21
REMARK   10  A    between atoms: C_24  and  C_25
REMARK                            x       y       z     vdW  Elec       q    Type
REMARK                         _______ _______ _______ _____ _____    ______ ____
ROOT
ATOM      1  C   UNL     1       0.638   4.896  20.489  0.00  0.00    +0.000 C 
ENDROOT
BRANCH   1   2
ATOM      2  C   UNL     1       1.000   3.423  20.645  0.00  0.00    +0.000 C 
BRANCH   2   3
ATOM      3  C   UNL     1       2.514   3.202  20.664  0.00  0.00    +0.000 C 
BRANCH   3   8
ATOM      4  N   UNL     1       4.588   4.095  17.826  0.00  0.00    +0.000 N 
ATOM      5  C   UNL     1       3.225   4.602  17.805  0.00  0.00    +0.000 C 
ATOM      6  C   UNL     1       2.185   3.507  17.611  0.00  0.00    +0.000 C 
ATOM      7  C   UNL     1       2.299   2.209  18.406  0.00  0.00    +0.000 C 
ATOM      8  N   UNL     1       2.982   2.204  19.698  0.00  0.00    +0.000 NA
ATOM      9  C   UNL     1       4.446   2.216  19.504  0.00  0.00    +0.000 C 
ATOM     10  C   UNL     1       5.109   3.552  19.103  0.00  0.00    +0.000 C 
BRANCH   4  16
ATOM     11  C   UNL     1       6.307   5.573  16.760  0.00  0.00    +0.000 A 
ATOM     12  C   UNL     1       7.072   5.852  15.619  0.00  0.00    +0.000 A 
ATOM     13  C   UNL     1       7.009   5.043  14.496  0.00  0.00    +0.000 A 
ATOM     14  C   UNL     1       6.225   3.901  14.520  0.00  0.00    +0.000 A 
ATOM     15  C   UNL     1       5.484   3.592  15.659  0.00  0.00    +0.000 A 
ATOM     16  C   UNL     1       5.475   4.420  16.803  0.00  0.00    +0.000 A 
BRANCH  11  18
ATOM     17  C   UNL     1       7.694   6.234  18.548  0.00  0.00    +0.000 C 
ATOM     18  O   UNL     1       6.445   6.393  17.864  0.00  0.00    +0.000 OA
ENDBRANCH  11  18
ENDBRANCH   4  16
ENDBRANCH   3   8
ENDBRANCH   2   3
ENDBRANCH   1   2
BRANCH   1  19
ATOM     19  C   UNL     1       1.802   5.774  20.917  0.00  0.00    +0.000 C 
BRANCH  19  20
ATOM     20  N   UNL     1       1.825   7.015  20.182  0.00  0.00    +0.000 N 
ATOM     21  C   UNL     1       1.200   8.147  20.657  0.00  0.00    +0.000 C 
ATOM     22  O   UNL     1       0.569   8.147  21.709  0.00  0.00    +0.000 OA
ATOM     23  H   UNL     1       2.380   7.085  19.349  0.00  0.00    +0.000 HD
BRANCH  21  24
ATOM     24  C   UNL     1       1.351   9.332  19.822  0.00  0.00    +0.000 A 
ATOM     25  C   UNL     1       1.761   9.402  18.507  0.00  0.00    +0.000 A 
ATOM     26  C   UNL     1       1.774  10.744  18.016  0.00  0.00    +0.000 A 
ATOM     27  C   UNL     1       1.389  11.665  18.972  0.00  0.00    +0.000 A 
ATOM     28  S   UNL     1       1.002  10.881  20.444  0.00  0.00    +0.000 S 
BRANCH  27  29
ATOM     29  C   UNL     1       1.248  13.125  18.872  0.00  0.00    +0.000 A 
ATOM     30  C   UNL     1      -0.026  13.714  18.850  0.00  0.00    +0.000 A 
ATOM     31  C   UNL     1      -0.169  15.101  18.776  0.00  0.00    +0.000 A 
ATOM     32  C   UNL     1       0.962  15.904  18.726  0.00  0.00    +0.000 A 
ATOM     33  F   UNL     1       0.824  17.233  18.661  0.00  0.00    +0.000 F 
ATOM     34  C   UNL     1       2.233  15.351  18.744  0.00  0.00    +0.000 A 
ATOM     35  C   UNL     1       2.375  13.965  18.814  0.00  0.00    +0.000 A 
ENDBRANCH  27  29
ENDBRANCH  21  24
ENDBRANCH  19  20
ENDBRANCH   1  19
TORSDOF 9
ENDMDL
MODEL 2
REMARK VINA RESULT:      -7.0      5.134     11.676
REMARK  Name = 
REMARK  10 active torsions:
REMARK  status: ('A' for Active; 'I' for Inactive)
REMARK    1  A    between atoms: C_1  and  O_2
REMARK    2  A    between atoms: O_2  and  C_3
REMARK    3  A    between atoms: C_8  and  N_9
REMARK    4  A    between atoms: N_13  and  C_14
REMARK    5  A    between atoms: C_14  and  C_15
REMARK    6  A    between atoms: C_15  and  C_16
REMARK    7  A    between atoms: C_16  and  C_17
REMARK    8  A    between atoms: C_17  and  N_18
REMARK    9  A    between atoms: C_19  and  C_21
REMARK   10  A    between atoms: C_24  and  C_25
REMARK                            x       y       z     vdW  Elec       q    Type
REMARK                         _______ _______ _______ _____ _____    ______ ____
ROOT
ATOM      1  C   UNL     1       0.924   9.027  20.423  0.00  0.00    +0.000 C 
ENDROOT
BRANCH   1   2
ATOM      2  C   UNL     1       0.781  10.128  21.469  0.00  0.00    +0.000 C 
BRANCH   2   3
ATOM      3  C   UNL     1      -0.498  10.944  21.273  0.00  0.00    +0.000 C 
BRANCH   3   8
ATOM      4  N   UNL     1      -3.452  12.872  22.113  0.00  0.00    +0.000 N 
ATOM      5  C   UNL     1      -3.269  12.568  20.703  0.00  0.00    +0.000 C 
ATOM      6  C   UNL     1      -2.090  13.305  20.082  0.00  0.00    +0.000 C 
ATOM      7  C   UNL     1      -0.761  13.366  20.831  0.00  0.00    +0.000 C 
ATOM      8  N   UNL     1      -0.413  12.315  21.784  0.00  0.00    +0.000 NA
ATOM      9  C   UNL     1      -1.140  12.514  23.054  0.00  0.00    +0.000 C 
ATOM     10  C   UNL     1      -2.635  12.127  23.098  0.00  0.00    +0.000 C 
BRANCH   4  16
ATOM     11  C   UNL     1      -5.927  13.131  22.414  0.00  0.00    +0.000 A 
ATOM     12  C   UNL     1      -6.984  13.976  22.776  0.00  0.00    +0.000 A 
ATOM     13  C   UNL     1      -6.752  15.266  23.225  0.00  0.00    +0.000 A 
ATOM     14  C   UNL     1      -5.449  15.710  23.380  0.00  0.00    +0.000 A 
ATOM     15  C   UNL     1      -4.385  14.870  23.056  0.00  0.00    +0.000 A 
ATOM     16  C   UNL     1      -4.580  13.570  22.541  0.00  0.00    +0.000 A 
BRANCH  11  18
ATOM     17  C   UNL     1      -7.115  11.772  20.898  0.00  0.00    +0.000 C 
ATOM     18  O   UNL     1      -6.220  11.841  22.014  0.00  0.00    +0.000 OA
ENDBRANCH  11  18
ENDBRANCH   4  16
ENDBRANCH   3   8
ENDBRANCH   2   3
ENDBRANCH   1   2
BRANCH   1  19
ATOM     19  C   UNL     1       1.437   7.750  21.067  0.00  0.00    +0.000 C 
BRANCH  19  20
ATOM     20  N   UNL     1       2.172   6.941  20.125  0.00  0.00    +0.000 N 
ATOM     21  C   UNL     1       1.989   5.579  20.047  0.00  0.00    +0.000 C 
ATOM     22  O   UNL     1       1.219   4.984  20.792  0.00  0.00    +0.000 OA
ATOM     23  H   UNL     1       2.766   7.387  19.450  0.00  0.00    +0.000 HD
BRANCH  21  24
ATOM     24  C   UNL     1       2.772   4.909  19.015  0.00  0.00    +0.000 A 
ATOM     25  C   UNL     1       2.797   3.567  18.701  0.00  0.00    +0.000 A 
ATOM     26  C   UNL     1       3.681   3.284  17.614  0.00  0.00    +0.000 A 
ATOM     27  C   UNL     1       4.321   4.413  17.138  0.00  0.00    +0.000 A 
ATOM     28  S   UNL     1       3.821   5.800  18.008  0.00  0.00    +0.000 S 
BRANCH  27  29
ATOM     29  C   UNL     1       5.279   4.560  16.033  0.00  0.00    +0.000 A 
ATOM     30  C   UNL     1       5.031   3.949  14.794  0.00  0.00    +0.000 A 
ATOM     31  C   UNL     1       5.925   4.100  13.733  0.00  0.00    +0.000 A 
ATOM     32  C   UNL     1       7.071   4.865  13.907  0.00  0.00    +0.000 A 
ATOM     33  F   UNL     1       7.925   5.013  12.888  0.00  0.00    +0.000 F 
ATOM     34  C   UNL     1       7.344   5.478  15.120  0.00  0.00    +0.000 A 
ATOM     35  C   UNL     1       6.452   5.323  16.180  0.00  0.00    +0.000 A 
ENDBRANCH  27  29
ENDBRANCH  21  24
ENDBRANCH  19  20
ENDBRANCH   1  19
TORSDOF 9
ENDMDL
MODEL 3
REMARK VINA RESULT:      -7.0      2.885      3.270
REMARK  Name = 
REMARK  10 active torsions:
REMARK  status: ('A' for Active; 'I' for Inactive)
REMARK    1  A    between atoms: C_1  and  O_2
REMARK    2  A    between atoms: O_2  and  C_3
REMARK    3  A    between atoms: C_8  and  N_9
REMARK    4  A    between atoms: N_13  and  C_14
REMARK    5  A    between atoms: C_14  and  C_15
REMARK    6  A    between atoms: C_15  and  C_16
REMARK    7  A    between atoms: C_16  and  C_17
REMARK    8  A    between atoms: C_17  and  N_18
REMARK    9  A    between atoms: C_19  and  C_21
REMARK   10  A    between atoms: C_24  and  C_25
REMARK                            x       y       z     vdW  Elec       q    Type
REMARK                         _______ _______ _______ _____ _____    ______ ____
ROOT
ATOM      1  C   UNL     1       1.373   5.711  21.094  0.00  0.00    +0.000 C 
ENDROOT
BRANCH   1   2
ATOM      2  C   UNL     1       1.131   4.453  20.267  0.00  0.00    +0.000 C 
BRANCH   2   3
ATOM      3  C   UNL     1       2.122   3.340  20.610  0.00  0.00    +0.000 C 
BRANCH   3   8
ATOM      4  N   UNL     1       4.374   4.123  17.877  0.00  0.00    +0.000 N 
ATOM      5  C   UNL     1       3.158   4.918  17.949  0.00  0.00    +0.000 C 
ATOM      6  C   UNL     1       1.903   4.116  17.632  0.00  0.00    +0.000 C 
ATOM      7  C   UNL     1       1.717   2.731  18.244  0.00  0.00    +0.000 C 
ATOM      8  N   UNL     1       2.368   2.402  19.511  0.00  0.00    +0.000 NA
ATOM      9  C   UNL     1       3.800   2.116  19.292  0.00  0.00    +0.000 C 
ATOM     10  C   UNL     1       4.747   3.313  19.059  0.00  0.00    +0.000 C 
BRANCH   4  16
ATOM     11  C   UNL     1       6.258   5.450  16.892  0.00  0.00    +0.000 A 
ATOM     12  C   UNL     1       7.084   5.671  15.781  0.00  0.00    +0.000 A 
ATOM     13  C   UNL     1       6.986   4.885  14.644  0.00  0.00    +0.000 A 
ATOM     14  C   UNL     1       6.100   3.821  14.625  0.00  0.00    +0.000 A 
ATOM     15  C   UNL     1       5.294   3.567  15.733  0.00  0.00    +0.000 A 
ATOM     16  C   UNL     1       5.322   4.378  16.889  0.00  0.00    +0.000 A 
BRANCH  11  18
ATOM     17  C   UNL     1       7.668   6.004  18.697  0.00  0.00    +0.000 C 
ATOM     18  O   UNL     1       6.432   6.239  18.012  0.00  0.00    +0.000 OA
ENDBRANCH  11  18
ENDBRANCH   4  16
ENDBRANCH   3   8
ENDBRANCH   2   3
ENDBRANCH   1   2
BRANCH   1  19
ATOM     19  C   UNL     1       1.958   6.811  20.223  0.00  0.00    +0.000 C 
BRANCH  19  20
ATOM     20  N   UNL     1       1.570   8.119  20.693  0.00  0.00    +0.000 N 
ATOM     21  C   UNL     1       1.299   9.149  19.820  0.00  0.00    +0.000 C 
ATOM     22  O   UNL     1       1.402   9.014  18.606  0.00  0.00    +0.000 OA
ATOM     23  H   UNL     1       1.408   8.263  21.673  0.00  0.00    +0.000 HD
BRANCH  21  24
ATOM     24  C   UNL     1       0.877  10.395  20.448  0.00  0.00    +0.000 A 
ATOM     25  C   UNL     1       1.433  11.649  20.311  0.00  0.00    +0.000 A 
ATOM     26  C   UNL     1       0.736  12.635  21.075  0.00  0.00    +0.000 A 
ATOM     27  C   UNL     1      -0.324  12.107  21.788  0.00  0.00    +0.000 A 
ATOM     28  S   UNL     1      -0.463  10.425  21.502  0.00  0.00    +0.000 S 
BRANCH  27  29
ATOM     29  C   UNL     1      -1.295  12.773  22.668  0.00  0.00    +0.000 A 
ATOM     30  C   UNL     1      -1.066  14.085  23.112  0.00  0.00    +0.000 A 
ATOM     31  C   UNL     1      -1.992  14.732  23.931  0.00  0.00    +0.000 A 
ATOM     32  C   UNL     1      -3.153  14.070  24.308  0.00  0.00    +0.000 A 
ATOM     33  F   UNL     1      -4.042  14.693  25.089  0.00  0.00    +0.000 F 
ATOM     34  C   UNL     1      -3.405  12.773  23.888  0.00  0.00    +0.000 A 
ATOM     35  C   UNL     1      -2.477  12.126  23.073  0.00  0.00    +0.000 A 
ENDBRANCH  27  29
ENDBRANCH  21  24
ENDBRANCH  19  20
ENDBRANCH   1  19
TORSDOF 9
ENDMDL
MODEL 4
REMARK VINA RESULT:      -7.0      1.890      2.336
REMARK  Name = 
REMARK  10 active torsions:
REMARK  status: ('A' for Active; 'I' for Inactive)
REMARK    1  A    between atoms: C_1  and  O_2
REMARK    2  A    between atoms: O_2  and  C_3
REMARK    3  A    between atoms: C_8  and  N_9
REMARK    4  A    between atoms: N_13  and  C_14
REMARK    5  A    between atoms: C_14  and  C_15
REMARK    6  A    between atoms: C_15  and  C_16
REMARK    7  A    between atoms: C_16  and  C_17
REMARK    8  A    between atoms: C_17  and  N_18
REMARK    9  A    between atoms: C_19  and  C_21
REMARK   10  A    between atoms: C_24  and  C_25
REMARK                            x       y       z     vdW  Elec       q    Type
REMARK                         _______ _______ _______ _____ _____    ______ ____
ROOT
ATOM      1  C   UNL     1       0.700   4.554  20.477  0.00  0.00    +0.000 C 
ENDROOT
BRANCH   1   2
ATOM      2  C   UNL     1       1.326   3.165  20.414  0.00  0.00    +0.000 C 
BRANCH   2   3
ATOM      3  C   UNL     1       2.847   3.211  20.560  0.00  0.00    +0.000 C 
BRANCH   3   8
ATOM      4  N   UNL     1       4.765   4.054  17.600  0.00  0.00    +0.000 N 
ATOM      5  C   UNL     1       3.326   4.237  17.501  0.00  0.00    +0.000 C 
ATOM      6  C   UNL     1       2.556   2.923  17.502  0.00  0.00    +0.000 C 
ATOM      7  C   UNL     1       2.926   1.834  18.504  0.00  0.00    +0.000 C 
ATOM      8  N   UNL     1       3.552   2.195  19.774  0.00  0.00    +0.000 NA
ATOM      9  C   UNL     1       4.984   2.497  19.572  0.00  0.00    +0.000 C 
ATOM     10  C   UNL     1       5.352   3.860  18.946  0.00  0.00    +0.000 C 
BRANCH   4  16
ATOM     11  C   UNL     1       6.251   5.639  16.351  0.00  0.00    +0.000 A 
ATOM     12  C   UNL     1       6.963   5.901  15.173  0.00  0.00    +0.000 A 
ATOM     13  C   UNL     1       7.010   4.978  14.141  0.00  0.00    +0.000 A 
ATOM     14  C   UNL     1       6.397   3.746  14.299  0.00  0.00    +0.000 A 
ATOM     15  C   UNL     1       5.713   3.457  15.479  0.00  0.00    +0.000 A 
ATOM     16  C   UNL     1       5.592   4.391  16.530  0.00  0.00    +0.000 A 
BRANCH  11  18
ATOM     17  C   UNL     1       7.587   6.839  17.879  0.00  0.00    +0.000 C 
ATOM     18  O   UNL     1       6.276   6.582  17.361  0.00  0.00    +0.000 OA
ENDBRANCH  11  18
ENDBRANCH   4  16
ENDBRANCH   3   8
ENDBRANCH   2   3
ENDBRANCH   1   2
BRANCH   1  19
ATOM     19  C   UNL     1       1.779   5.611  20.643  0.00  0.00    +0.000 C 
BRANCH  19  20
ATOM     20  N   UNL     1       1.247   6.822  21.220  0.00  0.00    +0.000 N 
ATOM     21  C   UNL     1       1.374   8.039  20.589  0.00  0.00    +0.000 C 
ATOM     22  O   UNL     1       1.969   8.158  19.523  0.00  0.00    +0.000 OA
ATOM     23  H   UNL     1       0.697   6.769  22.058  0.00  0.00    +0.000 HD
BRANCH  21  24
ATOM     24  C   UNL     1       0.745   9.160  21.277  0.00  0.00    +0.000 A 
ATOM     25  C   UNL     1       0.131   9.167  22.511  0.00  0.00    +0.000 A 
ATOM     26  C   UNL     1      -0.359  10.462  22.863  0.00  0.00    +0.000 A 
ATOM     27  C   UNL     1      -0.122  11.407  21.883  0.00  0.00    +0.000 A 
ATOM     28  S   UNL     1       0.708  10.706  20.559  0.00  0.00    +0.000 S 
BRANCH  27  29
ATOM     29  C   UNL     1      -0.442  12.842  21.858  0.00  0.00    +0.000 A 
ATOM     30  C   UNL     1       0.474  13.763  21.326  0.00  0.00    +0.000 A 
ATOM     31  C   UNL     1       0.171  15.124  21.280  0.00  0.00    +0.000 A 
ATOM     32  C   UNL     1      -1.052  15.570  21.764  0.00  0.00    +0.000 A 
ATOM     33  F   UNL     1      -1.344  16.874  21.714  0.00  0.00    +0.000 F 
ATOM     34  C   UNL     1      -1.976  14.684  22.297  0.00  0.00    +0.000 A 
ATOM     35  C   UNL     1      -1.669  13.325  22.346  0.00  0.00    +0.000 A 
ENDBRANCH  27  29
ENDBRANCH  21  24
ENDBRANCH  19  20
ENDBRANCH   1  19
TORSDOF 9
ENDMDL
MODEL 5
REMARK VINA RESULT:      -6.9      1.550      1.968
REMARK  Name = 
REMARK  10 active torsions:
REMARK  status: ('A' for Active; 'I' for Inactive)
REMARK    1  A    between atoms: C_1  and  O_2
REMARK    2  A    between atoms: O_2  and  C_3
REMARK    3  A    between atoms: C_8  and  N_9
REMARK    4  A    between atoms: N_13  and  C_14
REMARK    5  A    between atoms: C_14  and  C_15
REMARK    6  A    between atoms: C_15  and  C_16
REMARK    7  A    between atoms: C_16  and  C_17
REMARK    8  A    between atoms: C_17  and  N_18
REMARK    9  A    between atoms: C_19  and  C_21
REMARK   10  A    between atoms: C_24  and  C_25
REMARK                            x       y       z     vdW  Elec       q    Type
REMARK                         _______ _______ _______ _____ _____    ______ ____
ROOT
ATOM      1  C   UNL     1       1.471   6.122  21.049  0.00  0.00    +0.000 C 
ENDROOT
BRANCH   1   2
ATOM      2  C   UNL     1       2.237   4.806  21.108  0.00  0.00    +0.000 C 
BRANCH   2   3
ATOM      3  C   UNL     1       1.481   3.668  20.420  0.00  0.00    +0.000 C 
BRANCH   3   8
ATOM      4  N   UNL     1       4.118   4.028  17.956  0.00  0.00    +0.000 N 
ATOM      5  C   UNL     1       2.759   4.174  17.461  0.00  0.00    +0.000 C 
ATOM      6  C   UNL     1       1.975   2.868  17.480  0.00  0.00    +0.000 C 
ATOM      7  C   UNL     1       2.041   1.967  18.710  0.00  0.00    +0.000 C 
ATOM      8  N   UNL     1       2.332   2.544  20.021  0.00  0.00    +0.000 NA
ATOM      9  C   UNL     1       3.776   2.826  20.147  0.00  0.00    +0.000 C 
ATOM     10  C   UNL     1       4.334   4.069  19.422  0.00  0.00    +0.000 C 
BRANCH   4  16
ATOM     11  C   UNL     1       6.505   4.622  17.473  0.00  0.00    +0.000 A 
ATOM     12  C   UNL     1       7.481   4.863  16.497  0.00  0.00    +0.000 A 
ATOM     13  C   UNL     1       7.195   4.731  15.147  0.00  0.00    +0.000 A 
ATOM     14  C   UNL     1       5.942   4.292  14.755  0.00  0.00    +0.000 A 
ATOM     15  C   UNL     1       4.970   4.015  15.715  0.00  0.00    +0.000 A 
ATOM     16  C   UNL     1       5.202   4.192  17.096  0.00  0.00    +0.000 A 
BRANCH  11  18
ATOM     17  C   UNL     1       7.855   5.729  19.057  0.00  0.00    +0.000 C 
ATOM     18  O   UNL     1       6.861   4.729  18.804  0.00  0.00    +0.000 OA
ENDBRANCH  11  18
ENDBRANCH   4  16
ENDBRANCH   3   8
ENDBRANCH   2   3
ENDBRANCH   1   2
BRANCH   1  19
ATOM     19  C   UNL     1       2.142   7.080  20.079  0.00  0.00    +0.000 C 
BRANCH  19  20
ATOM     20  N   UNL     1       1.365   8.283  19.900  0.00  0.00    +0.000 N 
ATOM     21  C   UNL     1       1.417   9.010  18.733  0.00  0.00    +0.000 C 
ATOM     22  O   UNL     1       2.148   8.690  17.801  0.00  0.00    +0.000 OA
ATOM     23  H   UNL     1       0.704   8.551  20.606  0.00  0.00    +0.000 HD
BRANCH  21  24
ATOM     24  C   UNL     1       0.541  10.174  18.690  0.00  0.00    +0.000 A 
ATOM     25  C   UNL     1      -0.714  10.277  18.128  0.00  0.00    +0.000 A 
ATOM     26  C   UNL     1      -1.276  11.580  18.296  0.00  0.00    +0.000 A 
ATOM     27  C   UNL     1      -0.430  12.443  18.966  0.00  0.00    +0.000 A 
ATOM     28  S   UNL     1       1.024  11.650  19.396  0.00  0.00    +0.000 S 
BRANCH  27  29
ATOM     29  C   UNL     1      -0.631  13.847  19.357  0.00  0.00    +0.000 A 
ATOM     30  C   UNL     1       0.085  14.870  18.716  0.00  0.00    +0.000 A 
ATOM     31  C   UNL     1      -0.114  16.206  19.067  0.00  0.00    +0.000 A 
ATOM     32  C   UNL     1      -1.032  16.524  20.059  0.00  0.00    +0.000 A 
ATOM     33  F   UNL     1      -1.225  17.806  20.391  0.00  0.00    +0.000 F 
ATOM     34  C   UNL     1      -1.751  15.535  20.712  0.00  0.00    +0.000 A 
ATOM     35  C   UNL     1      -1.548  14.200  20.363  0.00  0.00    +0.000 A 
ENDBRANCH  27  29
ENDBRANCH  21  24
ENDBRANCH  19  20
ENDBRANCH   1  19
TORSDOF 9
ENDMDL
MODEL 6
REMARK VINA RESULT:      -6.9      4.601     10.037
REMARK  Name = 
REMARK  10 active torsions:
REMARK  status: ('A' for Active; 'I' for Inactive)
REMARK    1  A    between atoms: C_1  and  O_2
REMARK    2  A    between atoms: O_2  and  C_3
REMARK    3  A    between atoms: C_8  and  N_9
REMARK    4  A    between atoms: N_13  and  C_14
REMARK    5  A    between atoms: C_14  and  C_15
REMARK    6  A    between atoms: C_15  and  C_16
REMARK    7  A    between atoms: C_16  and  C_17
REMARK    8  A    between atoms: C_17  and  N_18
REMARK    9  A    between atoms: C_19  and  C_21
REMARK   10  A    between atoms: C_24  and  C_25
REMARK                            x       y       z     vdW  Elec       q    Type
REMARK                         _______ _______ _______ _____ _____    ______ ____
ROOT
ATOM      1  C   UNL     1      -1.036  12.198  18.330  0.00  0.00    +0.000 C 
ENDROOT
BRANCH   1   2
ATOM      2  C   UNL     1      -0.744  13.562  18.946  0.00  0.00    +0.000 C 
BRANCH   2   3
ATOM      3  C   UNL     1       0.757  13.843  19.034  0.00  0.00    +0.000 C 
BRANCH   3   8
ATOM      4  N   UNL     1       4.160  15.096  18.949  0.00  0.00    +0.000 N 
ATOM      5  C   UNL     1       3.870  14.108  19.976  0.00  0.00    +0.000 C 
ATOM      6  C   UNL     1       2.943  14.634  21.064  0.00  0.00    +0.000 C 
ATOM      7  C   UNL     1       1.704  15.436  20.677  0.00  0.00    +0.000 C 
ATOM      8  N   UNL     1       1.084  15.232  19.369  0.00  0.00    +0.000 NA
ATOM      9  C   UNL     1       1.861  15.922  18.320  0.00  0.00    +0.000 C 
ATOM     10  C   UNL     1       3.179  15.269  17.852  0.00  0.00    +0.000 C 
BRANCH   4  16
ATOM     11  C   UNL     1       5.852  16.938  19.095  0.00  0.00    +0.000 A 
ATOM     12  C   UNL     1       7.154  17.363  18.798  0.00  0.00    +0.000 A 
ATOM     13  C   UNL     1       8.065  16.518  18.186  0.00  0.00    +0.000 A 
ATOM     14  C   UNL     1       7.705  15.208  17.917  0.00  0.00    +0.000 A 
ATOM     15  C   UNL     1       6.424  14.759  18.236  0.00  0.00    +0.000 A 
ATOM     16  C   UNL     1       5.449  15.605  18.807  0.00  0.00    +0.000 A 
BRANCH  11  18
ATOM     17  C   UNL     1       5.048  17.708  21.173  0.00  0.00    +0.000 C 
ATOM     18  O   UNL     1       5.003  17.814  19.745  0.00  0.00    +0.000 OA
ENDBRANCH  11  18
ENDBRANCH   4  16
ENDBRANCH   3   8
ENDBRANCH   2   3
ENDBRANCH   1   2
BRANCH   1  19
ATOM     19  C   UNL     1      -1.274  11.167  19.420  0.00  0.00    +0.000 C 
BRANCH  19  20
ATOM     20  N   UNL     1      -0.425  10.012  19.250  0.00  0.00    +0.000 N 
ATOM     21  C   UNL     1       0.780   9.899  19.906  0.00  0.00    +0.000 C 
ATOM     22  O   UNL     1       1.203  10.784  20.642  0.00  0.00    +0.000 OA
ATOM     23  H   UNL     1      -0.755   9.233  18.710  0.00  0.00    +0.000 HD
BRANCH  21  24
ATOM     24  C   UNL     1       1.501   8.656  19.664  0.00  0.00    +0.000 A 
ATOM     25  C   UNL     1       1.609   7.558  20.492  0.00  0.00    +0.000 A 
ATOM     26  C   UNL     1       2.391   6.515  19.906  0.00  0.00    +0.000 A 
ATOM     27  C   UNL     1       2.873   6.848  18.654  0.00  0.00    +0.000 A 
ATOM     28  S   UNL     1       2.352   8.416  18.206  0.00  0.00    +0.000 S 
BRANCH  27  29
ATOM     29  C   UNL     1       3.688   6.062  17.717  0.00  0.00    +0.000 A 
ATOM     30  C   UNL     1       3.683   4.660  17.777  0.00  0.00    +0.000 A 
ATOM     31  C   UNL     1       4.438   3.905  16.878  0.00  0.00    +0.000 A 
ATOM     32  C   UNL     1       5.200   4.551  15.913  0.00  0.00    +0.000 A 
ATOM     33  F   UNL     1       5.919   3.827  15.048  0.00  0.00    +0.000 F 
ATOM     34  C   UNL     1       5.227   5.935  15.831  0.00  0.00    +0.000 A 
ATOM     35  C   UNL     1       4.475   6.687  16.733  0.00  0.00    +0.000 A 
ENDBRANCH  27  29
ENDBRANCH  21  24
ENDBRANCH  19  20
ENDBRANCH   1  19
TORSDOF 9
ENDMDL
MODEL 7
REMARK VINA RESULT:      -6.8      3.806     10.124
REMARK  Name = 
REMARK  10 active torsions:
REMARK  status: ('A' for Active; 'I' for Inactive)
REMARK    1  A    between atoms: C_1  and  O_2
REMARK    2  A    between atoms: O_2  and  C_3
REMARK    3  A    between atoms: C_8  and  N_9
REMARK    4  A    between atoms: N_13  and  C_14
REMARK    5  A    between atoms: C_14  and  C_15
REMARK    6  A    between atoms: C_15  and  C_16
REMARK    7  A    between atoms: C_16  and  C_17
REMARK    8  A    between atoms: C_17  and  N_18
REMARK    9  A    between atoms: C_19  and  C_21
REMARK   10  A    between atoms: C_24  and  C_25
REMARK                            x       y       z     vdW  Elec       q    Type
REMARK                         _______ _______ _______ _____ _____    ______ ____
ROOT
ATOM      1  C   UNL     1       1.281   8.877  21.104  0.00  0.00    +0.000 C 
ENDROOT
BRANCH   1   2
ATOM      2  C   UNL     1      -0.160   9.336  20.912  0.00  0.00    +0.000 C 
BRANCH   2   3
ATOM      3  C   UNL     1      -0.304  10.300  19.732  0.00  0.00    +0.000 C 
BRANCH   3   8
ATOM      4  N   UNL     1       0.468  13.827  19.401  0.00  0.00    +0.000 N 
ATOM      5  C   UNL     1       1.094  13.140  20.519  0.00  0.00    +0.000 C 
ATOM      6  C   UNL     1       0.100  12.726  21.596  0.00  0.00    +0.000 C 
ATOM      7  C   UNL     1      -1.221  12.077  21.193  0.00  0.00    +0.000 C 
ATOM      8  N   UNL     1      -1.316  11.340  19.934  0.00  0.00    +0.000 NA
ATOM      9  C   UNL     1      -1.429  12.278  18.799  0.00  0.00    +0.000 C 
ATOM     10  C   UNL     1      -0.148  13.005  18.334  0.00  0.00    +0.000 C 
BRANCH   4  16
ATOM     11  C   UNL     1       1.908  15.689  18.540  0.00  0.00    +0.000 A 
ATOM     12  C   UNL     1       2.118  17.073  18.464  0.00  0.00    +0.000 A 
ATOM     13  C   UNL     1       1.222  17.968  19.025  0.00  0.00    +0.000 A 
ATOM     14  C   UNL     1       0.064  17.493  19.617  0.00  0.00    +0.000 A 
ATOM     15  C   UNL     1      -0.177  16.121  19.672  0.00  0.00    +0.000 A 
ATOM     16  C   UNL     1       0.738  15.174  19.164  0.00  0.00    +0.000 A 
BRANCH  11  18
ATOM     17  C   UNL     1       4.176  15.282  18.042  0.00  0.00    +0.000 C 
ATOM     18  O   UNL     1       2.816  14.848  17.925  0.00  0.00    +0.000 OA
ENDBRANCH  11  18
ENDBRANCH   4  16
ENDBRANCH   3   8
ENDBRANCH   2   3
ENDBRANCH   1   2
BRANCH   1  19
ATOM     19  C   UNL     1       1.328   7.380  21.362  0.00  0.00    +0.000 C 
BRANCH  19  20
ATOM     20  N   UNL     1       1.978   6.678  20.282  0.00  0.00    +0.000 N 
ATOM     21  C   UNL     1       2.235   5.326  20.351  0.00  0.00    +0.000 C 
ATOM     22  O   UNL     1       1.951   4.662  21.341  0.00  0.00    +0.000 OA
ATOM     23  H   UNL     1       2.172   7.162  19.425  0.00  0.00    +0.000 HD
BRANCH  21  24
ATOM     24  C   UNL     1       2.857   4.755  19.163  0.00  0.00    +0.000 A 
ATOM     25  C   UNL     1       2.566   3.561  18.538  0.00  0.00    +0.000 A 
ATOM     26  C   UNL     1       3.382   3.342  17.385  0.00  0.00    +0.000 A 
ATOM     27  C   UNL     1       4.285   4.365  17.168  0.00  0.00    +0.000 A 
ATOM     28  S   UNL     1       4.114   5.583  18.360  0.00  0.00    +0.000 S 
BRANCH  27  29
ATOM     29  C   UNL     1       5.276   4.538  16.096  0.00  0.00    +0.000 A 
ATOM     30  C   UNL     1       5.067   3.955  14.837  0.00  0.00    +0.000 A 
ATOM     31  C   UNL     1       5.993   4.131  13.807  0.00  0.00    +0.000 A 
ATOM     32  C   UNL     1       7.132   4.892  14.034  0.00  0.00    +0.000 A 
ATOM     33  F   UNL     1       8.016   5.064  13.045  0.00  0.00    +0.000 F 
ATOM     34  C   UNL     1       7.367   5.478  15.268  0.00  0.00    +0.000 A 
ATOM     35  C   UNL     1       6.443   5.298  16.297  0.00  0.00    +0.000 A 
ENDBRANCH  27  29
ENDBRANCH  21  24
ENDBRANCH  19  20
ENDBRANCH   1  19
TORSDOF 9
ENDMDL
MODEL 8
REMARK VINA RESULT:      -6.8      4.968     11.307
REMARK  Name = 
REMARK  10 active torsions:
REMARK  status: ('A' for Active; 'I' for Inactive)
REMARK    1  A    between atoms: C_1  and  O_2
REMARK    2  A    between atoms: O_2  and  C_3
REMARK    3  A    between atoms: C_8  and  N_9
REMARK    4  A    between atoms: N_13  and  C_14
REMARK    5  A    between atoms: C_14  and  C_15
REMARK    6  A    between atoms: C_15  and  C_16
REMARK    7  A    between atoms: C_16  and  C_17
REMARK    8  A    between atoms: C_17  and  N_18
REMARK    9  A    between atoms: C_19  and  C_21
REMARK   10  A    between atoms: C_24  and  C_25
REMARK                            x       y       z     vdW  Elec       q    Type
REMARK                         _______ _______ _______ _____ _____    ______ ____
ROOT
ATOM      1  C   UNL     1       2.873  13.700  18.464  0.00  0.00    +0.000 C 
ENDROOT
BRANCH   1   2
ATOM      2  C   UNL     1       2.172  14.512  19.548  0.00  0.00    +0.000 C 
BRANCH   2   3
ATOM      3  C   UNL     1       0.851  13.875  19.981  0.00  0.00    +0.000 C 
BRANCH   3   8
ATOM      4  N   UNL     1      -2.268  13.349  21.756  0.00  0.00    +0.000 N 
ATOM      5  C   UNL     1      -1.987  14.717  21.351  0.00  0.00    +0.000 C 
ATOM      6  C   UNL     1      -0.827  15.339  22.117  0.00  0.00    +0.000 C 
ATOM      7  C   UNL     1       0.451  14.534  22.334  0.00  0.00    +0.000 C 
ATOM      8  N   UNL     1       0.816  13.478  21.392  0.00  0.00    +0.000 NA
ATOM      9  C   UNL     1       0.008  12.267  21.641  0.00  0.00    +0.000 C 
ATOM     10  C   UNL     1      -1.457  12.264  21.154  0.00  0.00    +0.000 C 
BRANCH   4  16
ATOM     11  C   UNL     1      -4.754  13.044  21.812  0.00  0.00    +0.000 A 
ATOM     12  C   UNL     1      -5.894  12.828  22.599  0.00  0.00    +0.000 A 
ATOM     13  C   UNL     1      -5.798  12.646  23.969  0.00  0.00    +0.000 A 
ATOM     14  C   UNL     1      -4.549  12.613  24.567  0.00  0.00    +0.000 A 
ATOM     15  C   UNL     1      -3.404  12.792  23.794  0.00  0.00    +0.000 A 
ATOM     16  C   UNL     1      -3.461  13.038  22.404  0.00  0.00    +0.000 A 
BRANCH  11  18
ATOM     17  C   UNL     1      -5.799  12.212  19.870  0.00  0.00    +0.000 C 
ATOM     18  O   UNL     1      -4.910  13.176  20.445  0.00  0.00    +0.000 OA
ENDBRANCH  11  18
ENDBRANCH   4  16
ENDBRANCH   3   8
ENDBRANCH   2   3
ENDBRANCH   1   2
BRANCH   1  19
ATOM     19  C   UNL     1       1.906  12.708  17.840  0.00  0.00    +0.000 C 
BRANCH  19  20
ATOM     20  N   UNL     1       2.116  11.374  18.350  0.00  0.00    +0.000 N 
ATOM     21  C   UNL     1       1.067  10.506  18.555  0.00  0.00    +0.000 C 
ATOM     22  O   UNL     1      -0.096  10.832  18.343  0.00  0.00    +0.000 OA
ATOM     23  H   UNL     1       3.052  11.037  18.478  0.00  0.00    +0.000 HD
BRANCH  21  24
ATOM     24  C   UNL     1       1.446   9.181  19.031  0.00  0.00    +0.000 A 
ATOM     25  C   UNL     1       1.425   8.702  20.323  0.00  0.00    +0.000 A 
ATOM     26  C   UNL     1       1.858   7.342  20.402  0.00  0.00    +0.000 A 
ATOM     27  C   UNL     1       2.215   6.824  19.171  0.00  0.00    +0.000 A 
ATOM     28  S   UNL     1       2.000   7.993  17.940  0.00  0.00    +0.000 S 
BRANCH  27  29
ATOM     29  C   UNL     1       2.686   5.477  18.815  0.00  0.00    +0.000 A 
ATOM     30  C   UNL     1       2.005   4.720  17.850  0.00  0.00    +0.000 A 
ATOM     31  C   UNL     1       2.458   3.450  17.491  0.00  0.00    +0.000 A 
ATOM     32  C   UNL     1       3.596   2.932  18.095  0.00  0.00    +0.000 A 
ATOM     33  F   UNL     1       4.032   1.717  17.747  0.00  0.00    +0.000 F 
ATOM     34  C   UNL     1       4.288   3.656  19.054  0.00  0.00    +0.000 A 
ATOM     35  C   UNL     1       3.832   4.923  19.415  0.00  0.00    +0.000 A 
ENDBRANCH  27  29
ENDBRANCH  21  24
ENDBRANCH  19  20
ENDBRANCH   1  19
TORSDOF 9
ENDMDL
MODEL 9
REMARK VINA RESULT:      -6.8      3.854     10.238
REMARK  Name = 
REMARK  10 active torsions:
REMARK  status: ('A' for Active; 'I' for Inactive)
REMARK    1  A    between atoms: C_1  and  O_2
REMARK    2  A    between atoms: O_2  and  C_3
REMARK    3  A    between atoms: C_8  and  N_9
REMARK    4  A    between atoms: N_13  and  C_14
REMARK    5  A    between atoms: C_14  and  C_15
REMARK    6  A    between atoms: C_15  and  C_16
REMARK    7  A    between atoms: C_16  and  C_17
REMARK    8  A    between atoms: C_17  and  N_18
REMARK    9  A    between atoms: C_19  and  C_21
REMARK   10  A    between atoms: C_24  and  C_25
REMARK                            x       y       z     vdW  Elec       q    Type
REMARK                         _______ _______ _______ _____ _____    ______ ____
ROOT
ATOM      1  C   UNL     1       0.305   8.458  21.079  0.00  0.00    +0.000 C 
ENDROOT
BRANCH   1   2
ATOM      2  C   UNL     1       0.305   9.823  21.759  0.00  0.00    +0.000 C 
BRANCH   2   3
ATOM      3  C   UNL     1       0.591  10.956  20.772  0.00  0.00    +0.000 C 
BRANCH   3   8
ATOM      4  N   UNL     1       0.673  14.314  19.403  0.00  0.00    +0.000 N 
ATOM      5  C   UNL     1       0.939  14.200  20.828  0.00  0.00    +0.000 C 
ATOM      6  C   UNL     1      -0.287  13.787  21.632  0.00  0.00    +0.000 C 
ATOM      7  C   UNL     1      -1.176  12.656  21.124  0.00  0.00    +0.000 C 
ATOM      8  N   UNL     1      -0.613  11.618  20.262  0.00  0.00    +0.000 NA
ATOM      9  C   UNL     1      -0.465  12.124  18.882  0.00  0.00    +0.000 C 
ATOM     10  C   UNL     1       0.712  13.078  18.586  0.00  0.00    +0.000 C 
BRANCH   4  16
ATOM     11  C   UNL     1       1.900  16.189  18.281  0.00  0.00    +0.000 A 
ATOM     12  C   UNL     1       1.841  17.494  17.774  0.00  0.00    +0.000 A 
ATOM     13  C   UNL     1       0.657  18.214  17.779  0.00  0.00    +0.000 A 
ATOM     14  C   UNL     1      -0.505  17.614  18.233  0.00  0.00    +0.000 A 
ATOM     15  C   UNL     1      -0.471  16.305  18.709  0.00  0.00    +0.000 A 
ATOM     16  C   UNL     1       0.725  15.557  18.775  0.00  0.00    +0.000 A 
BRANCH  11  18
ATOM     17  C   UNL     1       4.228  16.276  18.640  0.00  0.00    +0.000 C 
ATOM     18  O   UNL     1       3.099  15.506  18.210  0.00  0.00    +0.000 OA
ENDBRANCH  11  18
ENDBRANCH   4  16
ENDBRANCH   3   8
ENDBRANCH   2   3
ENDBRANCH   1   2
BRANCH   1  19
ATOM     19  C   UNL     1       1.531   7.662  21.493  0.00  0.00    +0.000 C 
BRANCH  19  20
ATOM     20  N   UNL     1       2.109   6.961  20.372  0.00  0.00    +0.000 N 
ATOM     21  C   UNL     1       2.128   5.585  20.312  0.00  0.00    +0.000 C 
ATOM     22  O   UNL     1       1.683   4.890  21.219  0.00  0.00    +0.000 OA
ATOM     23  H   UNL     1       2.427   7.482  19.575  0.00  0.00    +0.000 HD
BRANCH  21  24
ATOM     24  C   UNL     1       2.706   5.028  19.095  0.00  0.00    +0.000 A 
ATOM     25  C   UNL     1       2.289   3.926  18.380  0.00  0.00    +0.000 A 
ATOM     26  C   UNL     1       3.100   3.691  17.227  0.00  0.00    +0.000 A 
ATOM     27  C   UNL     1       4.125   4.610  17.100  0.00  0.00    +0.000 A 
ATOM     28  S   UNL     1       4.072   5.752  18.375  0.00  0.00    +0.000 S 
BRANCH  27  29
ATOM     29  C   UNL     1       5.156   4.736  16.059  0.00  0.00    +0.000 A 
ATOM     30  C   UNL     1       6.223   5.633  16.224  0.00  0.00    +0.000 A 
ATOM     31  C   UNL     1       7.217   5.744  15.250  0.00  0.00    +0.000 A 
ATOM     32  C   UNL     1       7.147   4.957  14.108  0.00  0.00    +0.000 A 
ATOM     33  F   UNL     1       8.103   5.060  13.178  0.00  0.00    +0.000 F 
ATOM     34  C   UNL     1       6.104   4.065  13.917  0.00  0.00    +0.000 A 
ATOM     35  C   UNL     1       5.109   3.958  14.888  0.00  0.00    +0.000 A 
ENDBRANCH  27  29
ENDBRANCH  21  24
ENDBRANCH  19  20
ENDBRANCH   1  19
TORSDOF 9
ENDMDL
