MODEL 1
REMARK VINA RESULT:      -9.3      0.000      0.000
REMARK  Name = 
REMARK  7 active torsions:
REMARK  status: ('A' for Active; 'I' for Inactive)
REMARK    1  A    between atoms: C_2  and  O_3
REMARK    2  A    between atoms: C_2  and  C_4
REMARK    3  A    between atoms: C_4  and  C_5
REMARK    4  A    between atoms: C_8  and  C_9
REMARK    5  A    between atoms: C_12  and  C_13
REMARK    6  A    between atoms: C_18  and  C_19
REMARK    7  A    between atoms: N_21  and  C_22
REMARK                            x       y       z     vdW  Elec       q    Type
REMARK                         _______ _______ _______ _____ _____    ______ ____
ROOT
ATOM      1  C   UNL     1       0.802   8.973  21.069  0.00  0.00    +0.000 A 
ATOM      2  C   UNL     1       0.675   8.859  22.521  0.00  0.00    +0.000 A 
ATOM      3  C   UNL     1      -0.046   9.738  23.244  0.00  0.00    +0.000 A 
ATOM      4  C   UNL     1      -0.699  10.818  22.588  0.00  0.00    +0.000 A 
ATOM      5  N   UNL     1      -1.442  11.805  23.051  0.00  0.00    +0.000 NA
ATOM      6  C   UNL     1      -1.810  12.531  21.931  0.00  0.00    +0.000 A 
ATOM      7  C   UNL     1      -1.273  11.973  20.789  0.00  0.00    +0.000 A 
ATOM      8  N   UNL     1      -0.554  10.892  21.205  0.00  0.00    +0.000 N 
ATOM      9  C   UNL     1       0.180   9.992  20.448  0.00  0.00    +0.000 A 
ENDROOT
BRANCH   1  13
ATOM     10  C   UNL     1       2.858   6.036  18.725  0.00  0.00    +0.000 A 
ATOM     11  C   UNL     1       2.680   7.346  18.242  0.00  0.00    +0.000 A 
ATOM     12  C   UNL     1       2.016   8.317  18.998  0.00  0.00    +0.000 A 
ATOM     13  C   UNL     1       1.490   7.984  20.244  0.00  0.00    +0.000 A 
ATOM     14  C   UNL     1       1.604   6.678  20.713  0.00  0.00    +0.000 A 
ATOM     15  C   UNL     1       2.267   5.716  19.957  0.00  0.00    +0.000 A 
BRANCH  10  19
ATOM     16  C   UNL     1       6.567   5.698  18.070  0.00  0.00    +0.000 C 
ATOM     17  C   UNL     1       5.582   6.440  17.149  0.00  0.00    +0.000 C 
ATOM     18  C   UNL     1       4.401   5.570  16.709  0.00  0.00    +0.000 C 
ATOM     19  C   UNL     1       3.627   4.989  17.913  0.00  0.00    +0.000 C 
ATOM     20  C   UNL     1       4.634   4.147  18.732  0.00  0.00    +0.000 C 
ATOM     21  C   UNL     1       5.833   4.973  19.213  0.00  0.00    +0.000 C 
BRANCH  16  22
ATOM     22  C   UNL     1       7.458   4.707  17.306  0.00  0.00    +0.000 C 
BRANCH  22  24
ATOM     23  O   UNL     1       6.496   3.766  15.308  0.00  0.00    +0.000 OA
ATOM     24  C   UNL     1       7.167   4.646  15.826  0.00  0.00    +0.000 C 
BRANCH  24  25
ATOM     25  O   UNL     1       7.735   5.638  15.111  0.00  0.00    +0.000 OA
ATOM     26  H   UNL     1       7.660   5.532  14.143  0.00  0.00    +0.000 HD
ENDBRANCH  24  25
ENDBRANCH  22  24
ENDBRANCH  16  22
ENDBRANCH  10  19
ENDBRANCH   1  13
BRANCH   6  27
ATOM     27  C   UNL     1      -2.646  13.722  21.958  0.00  0.00    +0.000 C 
ATOM     28  O   UNL     1      -2.411  14.664  21.207  0.00  0.00    +0.000 OA
ATOM     29  N   UNL     1      -3.647  13.669  22.907  0.00  0.00    +0.000 N 
ATOM     30  H   UNL     1      -3.612  12.875  23.542  0.00  0.00    +0.000 HD
BRANCH  29  31
ATOM     31  C   UNL     1      -4.594  14.685  23.152  0.00  0.00    +0.000 A 
ATOM     32  C   UNL     1      -4.456  15.611  24.187  0.00  0.00    +0.000 A 
ATOM     33  C   UNL     1      -5.442  16.565  24.413  0.00  0.00    +0.000 A 
ATOM     34  F   UNL     1      -5.294  17.434  25.421  0.00  0.00    +0.000 F 
ATOM     35  C   UNL     1      -6.577  16.627  23.615  0.00  0.00    +0.000 A 
ATOM     36  C   UNL     1      -6.718  15.730  22.557  0.00  0.00    +0.000 A 
ATOM     37  C   UNL     1      -5.725  14.773  22.328  0.00  0.00    +0.000 A 
ATOM     38  F   UNL     1      -5.886  13.906  21.317  0.00  0.00    +0.000 F 
ENDBRANCH  29  31
ENDBRANCH   6  27
TORSDOF 7
ENDMDL
MODEL 2
REMARK VINA RESULT:      -9.2      1.728      2.278
REMARK  Name = 
REMARK  7 active torsions:
REMARK  status: ('A' for Active; 'I' for Inactive)
REMARK    1  A    between atoms: C_2  and  O_3
REMARK    2  A    between atoms: C_2  and  C_4
REMARK    3  A    between atoms: C_4  and  C_5
REMARK    4  A    between atoms: C_8  and  C_9
REMARK    5  A    between atoms: C_12  and  C_13
REMARK    6  A    between atoms: C_18  and  C_19
REMARK    7  A    between atoms: N_21  and  C_22
REMARK                            x       y       z     vdW  Elec       q    Type
REMARK                         _______ _______ _______ _____ _____    ______ ____
ROOT
ATOM      1  C   UNL     1       0.884   9.090  21.049  0.00  0.00    +0.000 A 
ATOM      2  C   UNL     1       0.217   8.646  22.272  0.00  0.00    +0.000 A 
ATOM      3  C   UNL     1      -0.477   9.496  23.054  0.00  0.00    +0.000 A 
ATOM      4  C   UNL     1      -0.563  10.869  22.694  0.00  0.00    +0.000 A 
ATOM      5  N   UNL     1      -1.156  11.894  23.277  0.00  0.00    +0.000 NA
ATOM      6  C   UNL     1      -0.905  12.972  22.447  0.00  0.00    +0.000 A 
ATOM      7  C   UNL     1      -0.145  12.587  21.360  0.00  0.00    +0.000 A 
ATOM      8  N   UNL     1       0.086  11.253  21.522  0.00  0.00    +0.000 N 
ATOM      9  C   UNL     1       0.799  10.389  20.707  0.00  0.00    +0.000 A 
ENDROOT
BRANCH   1  13
ATOM     10  C   UNL     1       2.911   6.385  18.418  0.00  0.00    +0.000 A 
ATOM     11  C   UNL     1       2.587   7.690  17.999  0.00  0.00    +0.000 A 
ATOM     12  C   UNL     1       1.931   8.586  18.848  0.00  0.00    +0.000 A 
ATOM     13  C   UNL     1       1.559   8.180  20.128  0.00  0.00    +0.000 A 
ATOM     14  C   UNL     1       1.818   6.875  20.540  0.00  0.00    +0.000 A 
ATOM     15  C   UNL     1       2.472   5.988  19.690  0.00  0.00    +0.000 A 
BRANCH  10  19
ATOM     16  C   UNL     1       6.604   5.595  18.234  0.00  0.00    +0.000 C 
ATOM     17  C   UNL     1       5.897   6.665  17.384  0.00  0.00    +0.000 C 
ATOM     18  C   UNL     1       4.711   6.112  16.588  0.00  0.00    +0.000 C 
ATOM     19  C   UNL     1       3.671   5.423  17.499  0.00  0.00    +0.000 C 
ATOM     20  C   UNL     1       4.405   4.275  18.231  0.00  0.00    +0.000 C 
ATOM     21  C   UNL     1       5.596   4.774  19.058  0.00  0.00    +0.000 C 
BRANCH  16  22
ATOM     22  C   UNL     1       7.482   4.657  17.392  0.00  0.00    +0.000 C 
BRANCH  22  24
ATOM     23  O   UNL     1       6.324   3.800  15.462  0.00  0.00    +0.000 OA
ATOM     24  C   UNL     1       7.102   4.617  15.932  0.00  0.00    +0.000 C 
BRANCH  24  25
ATOM     25  O   UNL     1       7.716   5.549  15.176  0.00  0.00    +0.000 OA
ATOM     26  H   UNL     1       8.680   5.615  15.322  0.00  0.00    +0.000 HD
ENDBRANCH  24  25
ENDBRANCH  22  24
ENDBRANCH  16  22
ENDBRANCH  10  19
ENDBRANCH   1  13
BRANCH   6  27
ATOM     27  C   UNL     1      -1.374  14.328  22.690  0.00  0.00    +0.000 C 
ATOM     28  O   UNL     1      -1.569  15.097  21.754  0.00  0.00    +0.000 OA
ATOM     29  N   UNL     1      -1.520  14.626  24.030  0.00  0.00    +0.000 N 
ATOM     30  H   UNL     1      -1.178  13.921  24.679  0.00  0.00    +0.000 HD
BRANCH  29  31
ATOM     31  C   UNL     1      -1.952  15.864  24.548  0.00  0.00    +0.000 A 
ATOM     32  C   UNL     1      -3.291  16.134  24.839  0.00  0.00    +0.000 A 
ATOM     33  C   UNL     1      -3.670  17.388  25.306  0.00  0.00    +0.000 A 
ATOM     34  F   UNL     1      -4.961  17.627  25.566  0.00  0.00    +0.000 F 
ATOM     35  C   UNL     1      -2.732  18.394  25.503  0.00  0.00    +0.000 A 
ATOM     36  C   UNL     1      -1.387  18.133  25.246  0.00  0.00    +0.000 A 
ATOM     37  C   UNL     1      -1.006  16.872  24.780  0.00  0.00    +0.000 A 
ATOM     38  F   UNL     1       0.291  16.645  24.521  0.00  0.00    +0.000 F 
ENDBRANCH  29  31
ENDBRANCH   6  27
TORSDOF 7
ENDMDL
MODEL 3
REMARK VINA RESULT:      -9.1      1.144      1.844
REMARK  Name = 
REMARK  7 active torsions:
REMARK  status: ('A' for Active; 'I' for Inactive)
REMARK    1  A    between atoms: C_2  and  O_3
REMARK    2  A    between atoms: C_2  and  C_4
REMARK    3  A    between atoms: C_4  and  C_5
REMARK    4  A    between atoms: C_8  and  C_9
REMARK    5  A    between atoms: C_12  and  C_13
REMARK    6  A    between atoms: C_18  and  C_19
REMARK    7  A    between atoms: N_21  and  C_22
REMARK                            x       y       z     vdW  Elec       q    Type
REMARK                         _______ _______ _______ _____ _____    ______ ____
ROOT
ATOM      1  C   UNL     1       0.821   8.908  20.936  0.00  0.00    +0.000 A 
ATOM      2  C   UNL     1       0.611   8.979  22.381  0.00  0.00    +0.000 A 
ATOM      3  C   UNL     1      -0.114   9.964  22.948  0.00  0.00    +0.000 A 
ATOM      4  C   UNL     1      -0.690  10.973  22.127  0.00  0.00    +0.000 A 
ATOM      5  N   UNL     1      -1.419  12.033  22.422  0.00  0.00    +0.000 NA
ATOM      6  C   UNL     1      -1.699  12.624  21.202  0.00  0.00    +0.000 A 
ATOM      7  C   UNL     1      -1.122  11.911  20.169  0.00  0.00    +0.000 A 
ATOM      8  N   UNL     1      -0.468  10.870  20.756  0.00  0.00    +0.000 N 
ATOM      9  C   UNL     1       0.272   9.860  20.159  0.00  0.00    +0.000 A 
ENDROOT
BRANCH   1  13
ATOM     10  C   UNL     1       2.892   5.642  19.094  0.00  0.00    +0.000 A 
ATOM     11  C   UNL     1       2.744   6.871  18.423  0.00  0.00    +0.000 A 
ATOM     12  C   UNL     1       2.077   7.948  19.013  0.00  0.00    +0.000 A 
ATOM     13  C   UNL     1       1.515   7.803  20.280  0.00  0.00    +0.000 A 
ATOM     14  C   UNL     1       1.599   6.578  20.935  0.00  0.00    +0.000 A 
ATOM     15  C   UNL     1       2.266   5.509  20.342  0.00  0.00    +0.000 A 
BRANCH  10  19
ATOM     16  C   UNL     1       6.202   5.626  17.266  0.00  0.00    +0.000 C 
ATOM     17  C   UNL     1       4.829   5.760  16.584  0.00  0.00    +0.000 C 
ATOM     18  C   UNL     1       3.870   4.619  16.935  0.00  0.00    +0.000 C 
ATOM     19  C   UNL     1       3.666   4.481  18.460  0.00  0.00    +0.000 C 
ATOM     20  C   UNL     1       5.058   4.219  19.080  0.00  0.00    +0.000 C 
ATOM     21  C   UNL     1       6.058   5.340  18.772  0.00  0.00    +0.000 C 
BRANCH  16  22
ATOM     22  C   UNL     1       7.085   4.553  16.610  0.00  0.00    +0.000 C 
BRANCH  22  24
ATOM     23  O   UNL     1       7.642   5.537  14.484  0.00  0.00    +0.000 OA
ATOM     24  C   UNL     1       7.112   4.627  15.103  0.00  0.00    +0.000 C 
BRANCH  24  25
ATOM     25  O   UNL     1       6.474   3.610  14.489  0.00  0.00    +0.000 OA
ATOM     26  H   UNL     1       6.154   2.912  15.094  0.00  0.00    +0.000 HD
ENDBRANCH  24  25
ENDBRANCH  22  24
ENDBRANCH  16  22
ENDBRANCH  10  19
ENDBRANCH   1  13
BRANCH   6  27
ATOM     27  C   UNL     1      -2.489  13.833  21.033  0.00  0.00    +0.000 C 
ATOM     28  O   UNL     1      -1.991  14.838  20.535  0.00  0.00    +0.000 OA
ATOM     29  N   UNL     1      -3.778  13.719  21.516  0.00  0.00    +0.000 N 
ATOM     30  H   UNL     1      -3.983  12.864  22.028  0.00  0.00    +0.000 HD
BRANCH  29  31
ATOM     31  C   UNL     1      -4.753  14.737  21.487  0.00  0.00    +0.000 A 
ATOM     32  C   UNL     1      -5.690  14.854  20.458  0.00  0.00    +0.000 A 
ATOM     33  C   UNL     1      -6.602  15.904  20.455  0.00  0.00    +0.000 A 
ATOM     34  F   UNL     1      -7.483  16.003  19.451  0.00  0.00    +0.000 F 
ATOM     35  C   UNL     1      -6.612  16.850  21.472  0.00  0.00    +0.000 A 
ATOM     36  C   UNL     1      -5.703  16.732  22.522  0.00  0.00    +0.000 A 
ATOM     37  C   UNL     1      -4.789  15.675  22.528  0.00  0.00    +0.000 A 
ATOM     38  F   UNL     1      -3.909  15.588  23.538  0.00  0.00    +0.000 F 
ENDBRANCH  29  31
ENDBRANCH   6  27
TORSDOF 7
ENDMDL
MODEL 4
REMARK VINA RESULT:      -9.1      1.183      2.069
REMARK  Name = 
REMARK  7 active torsions:
REMARK  status: ('A' for Active; 'I' for Inactive)
REMARK    1  A    between atoms: C_2  and  O_3
REMARK    2  A    between atoms: C_2  and  C_4
REMARK    3  A    between atoms: C_4  and  C_5
REMARK    4  A    between atoms: C_8  and  C_9
REMARK    5  A    between atoms: C_12  and  C_13
REMARK    6  A    between atoms: C_18  and  C_19
REMARK    7  A    between atoms: N_21  and  C_22
REMARK                            x       y       z     vdW  Elec       q    Type
REMARK                         _______ _______ _______ _____ _____    ______ ____
ROOT
ATOM      1  C   UNL     1       0.675   8.906  21.092  0.00  0.00    +0.000 A 
ATOM      2  C   UNL     1       0.507   9.063  22.536  0.00  0.00    +0.000 A 
ATOM      3  C   UNL     1      -0.250  10.046  23.062  0.00  0.00    +0.000 A 
ATOM      4  C   UNL     1      -0.900  10.969  22.198  0.00  0.00    +0.000 A 
ATOM      5  N   UNL     1      -1.673  12.010  22.449  0.00  0.00    +0.000 NA
ATOM      6  C   UNL     1      -2.019  12.505  21.203  0.00  0.00    +0.000 A 
ATOM      7  C   UNL     1      -1.439  11.755  20.200  0.00  0.00    +0.000 A 
ATOM      8  N   UNL     1      -0.715  10.787  20.830  0.00  0.00    +0.000 N 
ATOM      9  C   UNL     1       0.055   9.777  20.275  0.00  0.00    +0.000 A 
ENDROOT
BRANCH   1  13
ATOM     10  C   UNL     1       2.782   5.675  19.229  0.00  0.00    +0.000 A 
ATOM     11  C   UNL     1       2.167   5.505  20.484  0.00  0.00    +0.000 A 
ATOM     12  C   UNL     1       1.471   6.547  21.102  0.00  0.00    +0.000 A 
ATOM     13  C   UNL     1       1.404   7.795  20.486  0.00  0.00    +0.000 A 
ATOM     14  C   UNL     1       2.056   8.001  19.273  0.00  0.00    +0.000 A 
ATOM     15  C   UNL     1       2.747   6.958  18.662  0.00  0.00    +0.000 A 
BRANCH  10  19
ATOM     16  C   UNL     1       6.161   5.570  17.535  0.00  0.00    +0.000 C 
ATOM     17  C   UNL     1       4.831   5.850  16.814  0.00  0.00    +0.000 C 
ATOM     18  C   UNL     1       3.784   4.755  17.036  0.00  0.00    +0.000 C 
ATOM     19  C   UNL     1       3.504   4.515  18.536  0.00  0.00    +0.000 C 
ATOM     20  C   UNL     1       4.848   4.110  19.186  0.00  0.00    +0.000 C 
ATOM     21  C   UNL     1       5.932   5.180  19.007  0.00  0.00    +0.000 C 
BRANCH  16  22
ATOM     22  C   UNL     1       6.999   4.492  16.831  0.00  0.00    +0.000 C 
BRANCH  22  24
ATOM     23  O   UNL     1       6.528   3.893  14.546  0.00  0.00    +0.000 OA
ATOM     24  C   UNL     1       7.066   4.658  15.332  0.00  0.00    +0.000 C 
BRANCH  24  25
ATOM     25  O   UNL     1       7.796   5.716  14.926  0.00  0.00    +0.000 OA
ATOM     26  H   UNL     1       8.730   5.509  14.726  0.00  0.00    +0.000 HD
ENDBRANCH  24  25
ENDBRANCH  22  24
ENDBRANCH  16  22
ENDBRANCH  10  19
ENDBRANCH   1  13
BRANCH   6  27
ATOM     27  C   UNL     1      -2.874  13.662  20.984  0.00  0.00    +0.000 C 
ATOM     28  O   UNL     1      -2.392  14.736  20.638  0.00  0.00    +0.000 OA
ATOM     29  N   UNL     1      -4.208  13.415  21.240  0.00  0.00    +0.000 N 
ATOM     30  H   UNL     1      -4.418  12.510  21.657  0.00  0.00    +0.000 HD
BRANCH  29  31
ATOM     31  C   UNL     1      -5.251  14.355  21.116  0.00  0.00    +0.000 A 
ATOM     32  C   UNL     1      -5.919  14.585  19.912  0.00  0.00    +0.000 A 
ATOM     33  C   UNL     1      -6.910  15.558  19.833  0.00  0.00    +0.000 A 
ATOM     34  F   UNL     1      -7.529  15.769  18.664  0.00  0.00    +0.000 F 
ATOM     35  C   UNL     1      -7.266  16.313  20.943  0.00  0.00    +0.000 A 
ATOM     36  C   UNL     1      -6.630  16.077  22.162  0.00  0.00    +0.000 A 
ATOM     37  C   UNL     1      -5.636  15.096  22.242  0.00  0.00    +0.000 A 
ATOM     38  F   UNL     1      -5.022  14.896  23.418  0.00  0.00    +0.000 F 
ENDBRANCH  29  31
ENDBRANCH   6  27
TORSDOF 7
ENDMDL
MODEL 5
REMARK VINA RESULT:      -8.9      1.443      1.891
REMARK  Name = 
REMARK  7 active torsions:
REMARK  status: ('A' for Active; 'I' for Inactive)
REMARK    1  A    between atoms: C_2  and  O_3
REMARK    2  A    between atoms: C_2  and  C_4
REMARK    3  A    between atoms: C_4  and  C_5
REMARK    4  A    between atoms: C_8  and  C_9
REMARK    5  A    between atoms: C_12  and  C_13
REMARK    6  A    between atoms: C_18  and  C_19
REMARK    7  A    between atoms: N_21  and  C_22
REMARK                            x       y       z     vdW  Elec       q    Type
REMARK                         _______ _______ _______ _____ _____    ______ ____
ROOT
ATOM      1  C   UNL     1       0.774   9.102  21.059  0.00  0.00    +0.000 A 
ATOM      2  C   UNL     1       0.482   8.836  22.467  0.00  0.00    +0.000 A 
ATOM      3  C   UNL     1      -0.271   9.672  23.208  0.00  0.00    +0.000 A 
ATOM      4  C   UNL     1      -0.796  10.854  22.617  0.00  0.00    +0.000 A 
ATOM      5  N   UNL     1      -1.537  11.827  23.113  0.00  0.00    +0.000 NA
ATOM      6  C   UNL     1      -1.745  12.692  22.052  0.00  0.00    +0.000 A 
ATOM      7  C   UNL     1      -1.112  12.233  20.915  0.00  0.00    +0.000 A 
ATOM      8  N   UNL     1      -0.496  11.072  21.275  0.00  0.00    +0.000 N 
ATOM      9  C   UNL     1       0.273  10.219  20.499  0.00  0.00    +0.000 A 
ENDROOT
BRANCH   1  13
ATOM     10  C   UNL     1       2.859   6.401  18.468  0.00  0.00    +0.000 A 
ATOM     11  C   UNL     1       2.522   6.023  19.782  0.00  0.00    +0.000 A 
ATOM     12  C   UNL     1       1.836   6.890  20.637  0.00  0.00    +0.000 A 
ATOM     13  C   UNL     1       1.501   8.170  20.201  0.00  0.00    +0.000 A 
ATOM     14  C   UNL     1       1.878   8.584  18.926  0.00  0.00    +0.000 A 
ATOM     15  C   UNL     1       2.560   7.715  18.078  0.00  0.00    +0.000 A 
BRANCH  10  19
ATOM     16  C   UNL     1       6.525   5.527  18.170  0.00  0.00    +0.000 C 
ATOM     17  C   UNL     1       5.818   6.620  17.348  0.00  0.00    +0.000 C 
ATOM     18  C   UNL     1       4.597   6.101  16.584  0.00  0.00    +0.000 C 
ATOM     19  C   UNL     1       3.569   5.429  17.521  0.00  0.00    +0.000 C 
ATOM     20  C   UNL     1       4.296   4.258  18.223  0.00  0.00    +0.000 C 
ATOM     21  C   UNL     1       5.523   4.723  19.018  0.00  0.00    +0.000 C 
BRANCH  16  22
ATOM     22  C   UNL     1       7.356   4.575  17.295  0.00  0.00    +0.000 C 
BRANCH  22  24
ATOM     23  O   UNL     1       7.663   5.691  15.183  0.00  0.00    +0.000 OA
ATOM     24  C   UNL     1       7.151   4.778  15.813  0.00  0.00    +0.000 C 
BRANCH  24  25
ATOM     25  O   UNL     1       6.329   3.875  15.242  0.00  0.00    +0.000 OA
ATOM     26  H   UNL     1       6.554   2.945  15.436  0.00  0.00    +0.000 HD
ENDBRANCH  24  25
ENDBRANCH  22  24
ENDBRANCH  16  22
ENDBRANCH  10  19
ENDBRANCH   1  13
BRANCH   6  27
ATOM     27  C   UNL     1      -2.521  13.921  22.129  0.00  0.00    +0.000 C 
ATOM     28  O   UNL     1      -3.369  14.176  21.280  0.00  0.00    +0.000 OA
ATOM     29  N   UNL     1      -2.168  14.727  23.193  0.00  0.00    +0.000 N 
ATOM     30  H   UNL     1      -1.346  14.433  23.716  0.00  0.00    +0.000 HD
BRANCH  29  31
ATOM     31  C   UNL     1      -2.751  15.973  23.501  0.00  0.00    +0.000 A 
ATOM     32  C   UNL     1      -3.750  16.121  24.465  0.00  0.00    +0.000 A 
ATOM     33  C   UNL     1      -4.324  17.366  24.697  0.00  0.00    +0.000 A 
ATOM     34  F   UNL     1      -5.290  17.480  25.618  0.00  0.00    +0.000 F 
ATOM     35  C   UNL     1      -3.914  18.489  23.990  0.00  0.00    +0.000 A 
ATOM     36  C   UNL     1      -2.896  18.367  23.045  0.00  0.00    +0.000 A 
ATOM     37  C   UNL     1      -2.317  17.115  22.814  0.00  0.00    +0.000 A 
ATOM     38  F   UNL     1      -1.351  17.013  21.888  0.00  0.00    +0.000 F 
ENDBRANCH  29  31
ENDBRANCH   6  27
TORSDOF 7
ENDMDL
MODEL 6
REMARK VINA RESULT:      -8.9      1.510      1.532
REMARK  Name = 
REMARK  7 active torsions:
REMARK  status: ('A' for Active; 'I' for Inactive)
REMARK    1  A    between atoms: C_2  and  O_3
REMARK    2  A    between atoms: C_2  and  C_4
REMARK    3  A    between atoms: C_4  and  C_5
REMARK    4  A    between atoms: C_8  and  C_9
REMARK    5  A    between atoms: C_12  and  C_13
REMARK    6  A    between atoms: C_18  and  C_19
REMARK    7  A    between atoms: N_21  and  C_22
REMARK                            x       y       z     vdW  Elec       q    Type
REMARK                         _______ _______ _______ _____ _____    ______ ____
ROOT
ATOM      1  C   UNL     1       0.769   9.020  20.916  0.00  0.00    +0.000 A 
ATOM      2  C   UNL     1       0.790   8.904  22.374  0.00  0.00    +0.000 A 
ATOM      3  C   UNL     1       0.055   9.712  23.163  0.00  0.00    +0.000 A 
ATOM      4  C   UNL     1      -0.762  10.715  22.573  0.00  0.00    +0.000 A 
ATOM      5  N   UNL     1      -1.554  11.627  23.106  0.00  0.00    +0.000 NA
ATOM      6  C   UNL     1      -2.096  12.303  22.027  0.00  0.00    +0.000 A 
ATOM      7  C   UNL     1      -1.614  11.794  20.838  0.00  0.00    +0.000 A 
ATOM      8  N   UNL     1      -0.755  10.794  21.183  0.00  0.00    +0.000 N 
ATOM      9  C   UNL     1      -0.007   9.967  20.359  0.00  0.00    +0.000 A 
ENDROOT
BRANCH   1  13
ATOM     10  C   UNL     1       2.882   6.286  18.384  0.00  0.00    +0.000 A 
ATOM     11  C   UNL     1       2.560   7.581  17.935  0.00  0.00    +0.000 A 
ATOM     12  C   UNL     1       1.876   8.486  18.752  0.00  0.00    +0.000 A 
ATOM     13  C   UNL     1       1.474   8.099  20.028  0.00  0.00    +0.000 A 
ATOM     14  C   UNL     1       1.730   6.804  20.469  0.00  0.00    +0.000 A 
ATOM     15  C   UNL     1       2.413   5.907  19.651  0.00  0.00    +0.000 A 
BRANCH  10  19
ATOM     16  C   UNL     1       6.599   5.615  18.218  0.00  0.00    +0.000 C 
ATOM     17  C   UNL     1       5.854   6.625  17.328  0.00  0.00    +0.000 C 
ATOM     18  C   UNL     1       4.685   6.001  16.560  0.00  0.00    +0.000 C 
ATOM     19  C   UNL     1       3.672   5.314  17.502  0.00  0.00    +0.000 C 
ATOM     20  C   UNL     1       4.446   4.222  18.277  0.00  0.00    +0.000 C 
ATOM     21  C   UNL     1       5.622   4.794  19.078  0.00  0.00    +0.000 C 
BRANCH  16  22
ATOM     22  C   UNL     1       7.507   4.674  17.410  0.00  0.00    +0.000 C 
BRANCH  22  24
ATOM     23  O   UNL     1       6.362   3.706  15.525  0.00  0.00    +0.000 OA
ATOM     24  C   UNL     1       7.122   4.560  15.955  0.00  0.00    +0.000 C 
BRANCH  24  25
ATOM     25  O   UNL     1       7.713   5.472  15.156  0.00  0.00    +0.000 OA
ATOM     26  H   UNL     1       8.633   5.687  15.401  0.00  0.00    +0.000 HD
ENDBRANCH  24  25
ENDBRANCH  22  24
ENDBRANCH  16  22
ENDBRANCH  10  19
ENDBRANCH   1  13
BRANCH   6  27
ATOM     27  C   UNL     1      -3.041  13.404  22.134  0.00  0.00    +0.000 C 
ATOM     28  O   UNL     1      -2.812  14.351  22.881  0.00  0.00    +0.000 OA
ATOM     29  N   UNL     1      -4.175  13.232  21.365  0.00  0.00    +0.000 N 
ATOM     30  H   UNL     1      -4.270  12.323  20.917  0.00  0.00    +0.000 HD
BRANCH  29  31
ATOM     31  C   UNL     1      -5.252  14.138  21.285  0.00  0.00    +0.000 A 
ATOM     32  C   UNL     1      -5.144  15.385  20.667  0.00  0.00    +0.000 A 
ATOM     33  C   UNL     1      -6.226  16.259  20.656  0.00  0.00    +0.000 A 
ATOM     34  F   UNL     1      -6.094  17.455  20.068  0.00  0.00    +0.000 F 
ATOM     35  C   UNL     1      -7.435  15.914  21.245  0.00  0.00    +0.000 A 
ATOM     36  C   UNL     1      -7.570  14.660  21.841  0.00  0.00    +0.000 A 
ATOM     37  C   UNL     1      -6.485  13.780  21.849  0.00  0.00    +0.000 A 
ATOM     38  F   UNL     1      -6.628  12.585  22.443  0.00  0.00    +0.000 F 
ENDBRANCH  29  31
ENDBRANCH   6  27
TORSDOF 7
ENDMDL
MODEL 7
REMARK VINA RESULT:      -8.9      1.809      2.747
REMARK  Name = 
REMARK  7 active torsions:
REMARK  status: ('A' for Active; 'I' for Inactive)
REMARK    1  A    between atoms: C_2  and  O_3
REMARK    2  A    between atoms: C_2  and  C_4
REMARK    3  A    between atoms: C_4  and  C_5
REMARK    4  A    between atoms: C_8  and  C_9
REMARK    5  A    between atoms: C_12  and  C_13
REMARK    6  A    between atoms: C_18  and  C_19
REMARK    7  A    between atoms: N_21  and  C_22
REMARK                            x       y       z     vdW  Elec       q    Type
REMARK                         _______ _______ _______ _____ _____    ______ ____
ROOT
ATOM      1  C   UNL     1       0.754   9.314  19.173  0.00  0.00    +0.000 A 
ATOM      2  C   UNL     1      -0.030   9.993  18.142  0.00  0.00    +0.000 A 
ATOM      3  C   UNL     1      -0.981  10.897  18.450  0.00  0.00    +0.000 A 
ATOM      4  C   UNL     1      -1.244  11.201  19.814  0.00  0.00    +0.000 A 
ATOM      5  N   UNL     1      -2.111  12.021  20.378  0.00  0.00    +0.000 NA
ATOM      6  C   UNL     1      -1.884  11.900  21.738  0.00  0.00    +0.000 A 
ATOM      7  C   UNL     1      -0.875  10.991  21.987  0.00  0.00    +0.000 A 
ATOM      8  N   UNL     1      -0.477  10.534  20.766  0.00  0.00    +0.000 N 
ATOM      9  C   UNL     1       0.507   9.606  20.463  0.00  0.00    +0.000 A 
ENDROOT
BRANCH   1  13
ATOM     10  C   UNL     1       4.010   6.644  18.385  0.00  0.00    +0.000 A 
ATOM     11  C   UNL     1       3.718   7.704  17.505  0.00  0.00    +0.000 A 
ATOM     12  C   UNL     1       2.663   8.587  17.751  0.00  0.00    +0.000 A 
ATOM     13  C   UNL     1       1.857   8.406  18.873  0.00  0.00    +0.000 A 
ATOM     14  C   UNL     1       2.092   7.329  19.724  0.00  0.00    +0.000 A 
ATOM     15  C   UNL     1       3.145   6.453  19.474  0.00  0.00    +0.000 A 
BRANCH  10  19
ATOM     16  C   UNL     1       4.941   4.662  15.303  0.00  0.00    +0.000 C 
ATOM     17  C   UNL     1       4.096   4.118  16.468  0.00  0.00    +0.000 C 
ATOM     18  C   UNL     1       4.792   4.248  17.826  0.00  0.00    +0.000 C 
ATOM     19  C   UNL     1       5.196   5.708  18.134  0.00  0.00    +0.000 C 
ATOM     20  C   UNL     1       6.147   6.160  17.001  0.00  0.00    +0.000 C 
ATOM     21  C   UNL     1       5.496   6.064  15.616  0.00  0.00    +0.000 C 
BRANCH  16  22
ATOM     22  C   UNL     1       6.089   3.718  14.914  0.00  0.00    +0.000 C 
BRANCH  22  24
ATOM     23  O   UNL     1       7.294   4.733  13.093  0.00  0.00    +0.000 OA
ATOM     24  C   UNL     1       6.532   3.859  13.478  0.00  0.00    +0.000 C 
BRANCH  24  25
ATOM     25  O   UNL     1       5.993   2.949  12.643  0.00  0.00    +0.000 OA
ATOM     26  H   UNL     1       5.395   2.309  13.075  0.00  0.00    +0.000 HD
ENDBRANCH  24  25
ENDBRANCH  22  24
ENDBRANCH  16  22
ENDBRANCH  10  19
ENDBRANCH   1  13
BRANCH   6  27
ATOM     27  C   UNL     1      -2.613  12.630  22.764  0.00  0.00    +0.000 C 
ATOM     28  O   UNL     1      -3.219  12.027  23.645  0.00  0.00    +0.000 OA
ATOM     29  N   UNL     1      -2.568  14.000  22.601  0.00  0.00    +0.000 N 
ATOM     30  H   UNL     1      -2.142  14.328  21.737  0.00  0.00    +0.000 HD
BRANCH  29  31
ATOM     31  C   UNL     1      -3.190  14.943  23.444  0.00  0.00    +0.000 A 
ATOM     32  C   UNL     1      -4.546  15.262  23.348  0.00  0.00    +0.000 A 
ATOM     33  C   UNL     1      -5.100  16.234  24.174  0.00  0.00    +0.000 A 
ATOM     34  F   UNL     1      -6.400  16.532  24.055  0.00  0.00    +0.000 F 
ATOM     35  C   UNL     1      -4.327  16.900  25.117  0.00  0.00    +0.000 A 
ATOM     36  C   UNL     1      -2.978  16.573  25.248  0.00  0.00    +0.000 A 
ATOM     37  C   UNL     1      -2.422  15.594  24.420  0.00  0.00    +0.000 A 
ATOM     38  F   UNL     1      -1.118  15.305  24.547  0.00  0.00    +0.000 F 
ENDBRANCH  29  31
ENDBRANCH   6  27
TORSDOF 7
ENDMDL
MODEL 8
REMARK VINA RESULT:      -8.9      5.324     13.172
REMARK  Name = 
REMARK  7 active torsions:
REMARK  status: ('A' for Active; 'I' for Inactive)
REMARK    1  A    between atoms: C_2  and  O_3
REMARK    2  A    between atoms: C_2  and  C_4
REMARK    3  A    between atoms: C_4  and  C_5
REMARK    4  A    between atoms: C_8  and  C_9
REMARK    5  A    between atoms: C_12  and  C_13
REMARK    6  A    between atoms: C_18  and  C_19
REMARK    7  A    between atoms: N_21  and  C_22
REMARK                            x       y       z     vdW  Elec       q    Type
REMARK                         _______ _______ _______ _____ _____    ______ ____
ROOT
ATOM      1  C   UNL     1       1.521   7.960  20.133  0.00  0.00    +0.000 A 
ATOM      2  C   UNL     1       1.403   6.736  20.924  0.00  0.00    +0.000 A 
ATOM      3  C   UNL     1       1.995   5.585  20.547  0.00  0.00    +0.000 A 
ATOM      4  C   UNL     1       2.752   5.547  19.343  0.00  0.00    +0.000 A 
ATOM      5  N   UNL     1       3.409   4.567  18.752  0.00  0.00    +0.000 NA
ATOM      6  C   UNL     1       3.961   5.140  17.619  0.00  0.00    +0.000 A 
ATOM      7  C   UNL     1       3.621   6.475  17.532  0.00  0.00    +0.000 A 
ATOM      8  N   UNL     1       2.840   6.732  18.619  0.00  0.00    +0.000 N 
ATOM      9  C   UNL     1       2.241   7.924  18.996  0.00  0.00    +0.000 A 
ENDROOT
BRANCH   1  13
ATOM     10  C   UNL     1      -0.137  11.689  21.436  0.00  0.00    +0.000 A 
ATOM     11  C   UNL     1       0.394  11.551  20.139  0.00  0.00    +0.000 A 
ATOM     12  C   UNL     1       0.932  10.339  19.697  0.00  0.00    +0.000 A 
ATOM     13  C   UNL     1       0.978   9.247  20.561  0.00  0.00    +0.000 A 
ATOM     14  C   UNL     1       0.514   9.380  21.866  0.00  0.00    +0.000 A 
ATOM     15  C   UNL     1      -0.023  10.590  22.300  0.00  0.00    +0.000 A 
BRANCH  10  19
ATOM     16  C   UNL     1      -3.739  12.519  22.231  0.00  0.00    +0.000 C 
ATOM     17  C   UNL     1      -3.079  12.723  20.856  0.00  0.00    +0.000 C 
ATOM     18  C   UNL     1      -1.813  13.582  20.918  0.00  0.00    +0.000 C 
ATOM     19  C   UNL     1      -0.768  13.006  21.899  0.00  0.00    +0.000 C 
ATOM     20  C   UNL     1      -1.442  12.945  23.290  0.00  0.00    +0.000 C 
ATOM     21  C   UNL     1      -2.710  12.084  23.290  0.00  0.00    +0.000 C 
BRANCH  16  22
ATOM     22  C   UNL     1      -4.493  13.768  22.714  0.00  0.00    +0.000 C 
BRANCH  22  24
ATOM     23  O   UNL     1      -6.179  12.368  23.714  0.00  0.00    +0.000 OA
ATOM     24  C   UNL     1      -5.855  13.468  23.293  0.00  0.00    +0.000 C 
BRANCH  24  25
ATOM     25  O   UNL     1      -6.701  14.518  23.285  0.00  0.00    +0.000 OA
ATOM     26  H   UNL     1      -7.355  14.503  22.560  0.00  0.00    +0.000 HD
ENDBRANCH  24  25
ENDBRANCH  22  24
ENDBRANCH  16  22
ENDBRANCH  10  19
ENDBRANCH   1  13
BRANCH   6  27
ATOM     27  C   UNL     1       4.783   4.429  16.652  0.00  0.00    +0.000 C 
ATOM     28  O   UNL     1       5.380   3.406  16.974  0.00  0.00    +0.000 OA
ATOM     29  N   UNL     1       4.832   5.043  15.417  0.00  0.00    +0.000 N 
ATOM     30  H   UNL     1       4.396   5.961  15.362  0.00  0.00    +0.000 HD
BRANCH  29  31
ATOM     31  C   UNL     1       5.556   4.576  14.301  0.00  0.00    +0.000 A 
ATOM     32  C   UNL     1       4.991   3.751  13.327  0.00  0.00    +0.000 A 
ATOM     33  C   UNL     1       5.763   3.281  12.270  0.00  0.00    +0.000 A 
ATOM     34  F   UNL     1       5.201   2.481  11.354  0.00  0.00    +0.000 F 
ATOM     35  C   UNL     1       7.103   3.624  12.151  0.00  0.00    +0.000 A 
ATOM     36  C   UNL     1       7.678   4.471  13.099  0.00  0.00    +0.000 A 
ATOM     37  C   UNL     1       6.901   4.947  14.159  0.00  0.00    +0.000 A 
ATOM     38  F   UNL     1       7.475   5.746  15.071  0.00  0.00    +0.000 F 
ENDBRANCH  29  31
ENDBRANCH   6  27
TORSDOF 7
ENDMDL
MODEL 9
REMARK VINA RESULT:      -8.9      1.360      2.161
REMARK  Name = 
REMARK  7 active torsions:
REMARK  status: ('A' for Active; 'I' for Inactive)
REMARK    1  A    between atoms: C_2  and  O_3
REMARK    2  A    between atoms: C_2  and  C_4
REMARK    3  A    between atoms: C_4  and  C_5
REMARK    4  A    between atoms: C_8  and  C_9
REMARK    5  A    between atoms: C_12  and  C_13
REMARK    6  A    between atoms: C_18  and  C_19
REMARK    7  A    between atoms: N_21  and  C_22
REMARK                            x       y       z     vdW  Elec       q    Type
REMARK                         _______ _______ _______ _____ _____    ______ ____
ROOT
ATOM      1  C   UNL     1       0.554   9.596  19.729  0.00  0.00    +0.000 A 
ATOM      2  C   UNL     1       0.173  10.553  18.691  0.00  0.00    +0.000 A 
ATOM      3  C   UNL     1      -0.584  11.634  18.963  0.00  0.00    +0.000 A 
ATOM      4  C   UNL     1      -1.039  11.856  20.292  0.00  0.00    +0.000 A 
ATOM      5  N   UNL     1      -1.788  12.809  20.815  0.00  0.00    +0.000 NA
ATOM      6  C   UNL     1      -1.873  12.497  22.161  0.00  0.00    +0.000 A 
ATOM      7  C   UNL     1      -1.175  11.340  22.441  0.00  0.00    +0.000 A 
ATOM      8  N   UNL     1      -0.655  10.922  21.252  0.00  0.00    +0.000 N 
ATOM      9  C   UNL     1       0.127   9.809  20.988  0.00  0.00    +0.000 A 
ENDROOT
BRANCH   1  13
ATOM     10  C   UNL     1       3.167   6.293  18.942  0.00  0.00    +0.000 A 
ATOM     11  C   UNL     1       2.508   6.411  20.181  0.00  0.00    +0.000 A 
ATOM     12  C   UNL     1       1.648   7.479  20.451  0.00  0.00    +0.000 A 
ATOM     13  C   UNL     1       1.454   8.470  19.491  0.00  0.00    +0.000 A 
ATOM     14  C   UNL     1       2.142   8.404  18.283  0.00  0.00    +0.000 A 
ATOM     15  C   UNL     1       2.997   7.336  18.020  0.00  0.00    +0.000 A 
BRANCH  10  19
ATOM     16  C   UNL     1       6.096   5.994  16.571  0.00  0.00    +0.000 C 
ATOM     17  C   UNL     1       4.642   5.643  16.210  0.00  0.00    +0.000 C 
ATOM     18  C   UNL     1       4.015   4.624  17.166  0.00  0.00    +0.000 C 
ATOM     19  C   UNL     1       4.071   5.095  18.636  0.00  0.00    +0.000 C 
ATOM     20  C   UNL     1       5.563   5.308  18.984  0.00  0.00    +0.000 C 
ATOM     21  C   UNL     1       6.240   6.333  18.066  0.00  0.00    +0.000 C 
BRANCH  16  22
ATOM     22  C   UNL     1       7.085   4.882  16.187  0.00  0.00    +0.000 C 
BRANCH  22  24
ATOM     23  O   UNL     1       7.766   5.377  13.930  0.00  0.00    +0.000 OA
ATOM     24  C   UNL     1       7.174   4.636  14.700  0.00  0.00    +0.000 C 
BRANCH  24  25
ATOM     25  O   UNL     1       6.518   3.534  14.284  0.00  0.00    +0.000 OA
ATOM     26  H   UNL     1       6.823   2.703  14.697  0.00  0.00    +0.000 HD
ENDBRANCH  24  25
ENDBRANCH  22  24
ENDBRANCH  16  22
ENDBRANCH  10  19
ENDBRANCH   1  13
BRANCH   6  27
ATOM     27  C   UNL     1      -2.605  13.281  23.145  0.00  0.00    +0.000 C 
ATOM     28  O   UNL     1      -3.140  12.733  24.104  0.00  0.00    +0.000 OA
ATOM     29  N   UNL     1      -2.649  14.629  22.850  0.00  0.00    +0.000 N 
ATOM     30  H   UNL     1      -2.277  14.894  21.941  0.00  0.00    +0.000 HD
BRANCH  29  31
ATOM     31  C   UNL     1      -3.294  15.613  23.626  0.00  0.00    +0.000 A 
ATOM     32  C   UNL     1      -2.599  16.495  24.456  0.00  0.00    +0.000 A 
ATOM     33  C   UNL     1      -3.288  17.417  25.235  0.00  0.00    +0.000 A 
ATOM     34  F   UNL     1      -2.600  18.244  26.033  0.00  0.00    +0.000 F 
ATOM     35  C   UNL     1      -4.675  17.492  25.202  0.00  0.00    +0.000 A 
ATOM     36  C   UNL     1      -5.384  16.640  24.357  0.00  0.00    +0.000 A 
ATOM     37  C   UNL     1      -4.691  15.715  23.571  0.00  0.00    +0.000 A 
ATOM     38  F   UNL     1      -5.392  14.890  22.777  0.00  0.00    +0.000 F 
ENDBRANCH  29  31
ENDBRANCH   6  27
TORSDOF 7
ENDMDL
