MODEL 1
REMARK VINA RESULT:      -7.9      0.000      0.000
REMARK  Name = 
REMARK  3 active torsions:
REMARK  status: ('A' for Active; 'I' for Inactive)
REMARK    1  A    between atoms: C_7  and  C_8
REMARK    2  A    between atoms: N_9  and  N_10
REMARK    3  A    between atoms: N_10  and  C_11
REMARK                            x       y       z     vdW  Elec       q    Type
REMARK                         _______ _______ _______ _____ _____    ______ ____
ROOT
ATOM      1  N   UNL     1       1.826   7.704  21.021  0.00  0.00    +0.000 N 
ATOM      2  H   UNL     1       2.545   7.919  21.707  0.00  0.00    +0.000 HD
ENDROOT
BRANCH   1   3
ATOM      3  C   UNL     1       1.198   8.857  20.464  0.00  0.00    +0.000 A 
ATOM      4  C   UNL     1       1.392   9.151  19.109  0.00  0.00    +0.000 A 
ATOM      5  C   UNL     1       0.761  10.245  18.560  0.00  0.00    +0.000 A 
ATOM      6  N   UNL     1      -0.061  11.055  19.250  0.00  0.00    +0.000 NA
ATOM      7  C   UNL     1      -0.286  10.772  20.541  0.00  0.00    +0.000 A 
ATOM      8  C   UNL     1      -1.144  11.616  21.227  0.00  0.00    +0.000 A 
ATOM      9  C   UNL     1      -1.443  11.409  22.569  0.00  0.00    +0.000 A 
ATOM     10 CL   UNL     1      -2.508  12.485  23.387  0.00  0.00    +0.000 Cl
ATOM     11  C   UNL     1      -0.887  10.337  23.251  0.00  0.00    +0.000 A 
ATOM     12  C   UNL     1      -0.022   9.472  22.580  0.00  0.00    +0.000 A 
ATOM     13  C   UNL     1       0.304   9.672  21.214  0.00  0.00    +0.000 A 
ENDBRANCH   1   3
BRANCH   1  15
ATOM     14  C   UNL     1       1.552   5.548  20.417  0.00  0.00    +0.000 C 
ATOM     15  N   UNL     1       2.088   6.695  20.144  0.00  0.00    +0.000 NA
BRANCH  14  22
ATOM     16  F   UNL     1       0.956   2.924  21.215  0.00  0.00    +0.000 F 
ATOM     17  C   UNL     1       1.489   3.108  19.997  0.00  0.00    +0.000 A 
ATOM     18  C   UNL     1       1.719   1.997  19.189  0.00  0.00    +0.000 A 
ATOM     19  C   UNL     1       2.276   2.165  17.919  0.00  0.00    +0.000 A 
ATOM     20  C   UNL     1       2.600   3.445  17.464  0.00  0.00    +0.000 A 
ATOM     21  C   UNL     1       2.366   4.556  18.275  0.00  0.00    +0.000 A 
ATOM     22  C   UNL     1       1.804   4.387  19.548  0.00  0.00    +0.000 A 
ENDBRANCH  14  22
ENDBRANCH   1  15
TORSDOF 3
ENDMDL
MODEL 2
REMARK VINA RESULT:      -7.7      7.210      9.603
REMARK  Name = 
REMARK  3 active torsions:
REMARK  status: ('A' for Active; 'I' for Inactive)
REMARK    1  A    between atoms: C_7  and  C_8
REMARK    2  A    between atoms: N_9  and  N_10
REMARK    3  A    between atoms: N_10  and  C_11
REMARK                            x       y       z     vdW  Elec       q    Type
REMARK                         _______ _______ _______ _____ _____    ______ ____
ROOT
ATOM      1  N   UNL     1       7.155   8.363  17.420  0.00  0.00    +0.000 N 
ATOM      2  H   UNL     1       6.932   8.612  16.460  0.00  0.00    +0.000 HD
ENDROOT
BRANCH   1   3
ATOM      3  C   UNL     1       6.904   6.994  17.732  0.00  0.00    +0.000 A 
ATOM      4  C   UNL     1       7.974   6.175  18.115  0.00  0.00    +0.000 A 
ATOM      5  C   UNL     1       7.731   4.862  18.449  0.00  0.00    +0.000 A 
ATOM      6  N   UNL     1       6.505   4.307  18.449  0.00  0.00    +0.000 NA
ATOM      7  C   UNL     1       5.464   5.082  18.116  0.00  0.00    +0.000 A 
ATOM      8  C   UNL     1       4.212   4.490  18.133  0.00  0.00    +0.000 A 
ATOM      9  C   UNL     1       3.067   5.208  17.805  0.00  0.00    +0.000 A 
ATOM     10 CL   UNL     1       1.531   4.433  17.831  0.00  0.00    +0.000 Cl
ATOM     11  C   UNL     1       3.159   6.548  17.458  0.00  0.00    +0.000 A 
ATOM     12  C   UNL     1       4.409   7.167  17.436  0.00  0.00    +0.000 A 
ATOM     13  C   UNL     1       5.590   6.449  17.758  0.00  0.00    +0.000 A 
ENDBRANCH   1   3
BRANCH   1  15
ATOM     14  C   UNL     1       8.338  10.179  18.043  0.00  0.00    +0.000 C 
ATOM     15  N   UNL     1       8.295   8.888  17.950  0.00  0.00    +0.000 NA
BRANCH  14  22
ATOM     16  F   UNL     1       8.715  10.638  20.787  0.00  0.00    +0.000 F 
ATOM     17  C   UNL     1       9.675  11.044  19.941  0.00  0.00    +0.000 A 
ATOM     18  C   UNL     1      10.807  11.669  20.459  0.00  0.00    +0.000 A 
ATOM     19  C   UNL     1      11.816  12.103  19.597  0.00  0.00    +0.000 A 
ATOM     20  C   UNL     1      11.688  11.909  18.220  0.00  0.00    +0.000 A 
ATOM     21  C   UNL     1      10.554  11.281  17.705  0.00  0.00    +0.000 A 
ATOM     22  C   UNL     1       9.542  10.843  18.571  0.00  0.00    +0.000 A 
ENDBRANCH  14  22
ENDBRANCH   1  15
TORSDOF 3
ENDMDL
MODEL 3
REMARK VINA RESULT:      -7.7      3.688      7.759
REMARK  Name = 
REMARK  3 active torsions:
REMARK  status: ('A' for Active; 'I' for Inactive)
REMARK    1  A    between atoms: C_7  and  C_8
REMARK    2  A    between atoms: N_9  and  N_10
REMARK    3  A    between atoms: N_10  and  C_11
REMARK                            x       y       z     vdW  Elec       q    Type
REMARK                         _______ _______ _______ _____ _____    ______ ____
ROOT
ATOM      1  N   UNL     1       2.055   6.072  21.144  0.00  0.00    +0.000 N 
ATOM      2  H   UNL     1       2.243   5.776  22.098  0.00  0.00    +0.000 HD
ENDROOT
BRANCH   1   3
ATOM      3  C   UNL     1       1.958   4.995  20.215  0.00  0.00    +0.000 A 
ATOM      4  C   UNL     1       0.951   4.037  20.385  0.00  0.00    +0.000 A 
ATOM      5  C   UNL     1       0.834   3.014  19.471  0.00  0.00    +0.000 A 
ATOM      6  N   UNL     1       1.629   2.882  18.394  0.00  0.00    +0.000 NA
ATOM      7  C   UNL     1       2.579   3.806  18.196  0.00  0.00    +0.000 A 
ATOM      8  C   UNL     1       3.378   3.652  17.075  0.00  0.00    +0.000 A 
ATOM      9  C   UNL     1       4.391   4.558  16.778  0.00  0.00    +0.000 A 
ATOM     10 CL   UNL     1       5.366   4.327  15.380  0.00  0.00    +0.000 Cl
ATOM     11  C   UNL     1       4.618   5.647  17.606  0.00  0.00    +0.000 A 
ATOM     12  C   UNL     1       3.825   5.824  18.740  0.00  0.00    +0.000 A 
ATOM     13  C   UNL     1       2.793   4.906  19.065  0.00  0.00    +0.000 A 
ENDBRANCH   1   3
BRANCH   1  15
ATOM     14  C   UNL     1       1.474   8.224  21.490  0.00  0.00    +0.000 C 
ATOM     15  N   UNL     1       1.156   7.081  20.973  0.00  0.00    +0.000 NA
BRANCH  14  22
ATOM     16  F   UNL     1       0.266   9.379  23.745  0.00  0.00    +0.000 F 
ATOM     17  C   UNL     1      -0.019   9.898  22.541  0.00  0.00    +0.000 A 
ATOM     18  C   UNL     1      -0.894  10.979  22.465  0.00  0.00    +0.000 A 
ATOM     19  C   UNL     1      -1.209  11.532  21.221  0.00  0.00    +0.000 A 
ATOM     20  C   UNL     1      -0.645  11.000  20.059  0.00  0.00    +0.000 A 
ATOM     21  C   UNL     1       0.233   9.919  20.140  0.00  0.00    +0.000 A 
ATOM     22  C   UNL     1       0.550   9.366  21.388  0.00  0.00    +0.000 A 
ENDBRANCH  14  22
ENDBRANCH   1  15
TORSDOF 3
ENDMDL
MODEL 4
REMARK VINA RESULT:      -7.6      5.094      8.614
REMARK  Name = 
REMARK  3 active torsions:
REMARK  status: ('A' for Active; 'I' for Inactive)
REMARK    1  A    between atoms: C_7  and  C_8
REMARK    2  A    between atoms: N_9  and  N_10
REMARK    3  A    between atoms: N_10  and  C_11
REMARK                            x       y       z     vdW  Elec       q    Type
REMARK                         _______ _______ _______ _____ _____    ______ ____
ROOT
ATOM      1  N   UNL     1       3.951   4.611  18.974  0.00  0.00    +0.000 N 
ATOM      2  H   UNL     1       3.402   4.004  18.371  0.00  0.00    +0.000 HD
ENDROOT
BRANCH   1   3
ATOM      3  C   UNL     1       5.241   4.927  18.454  0.00  0.00    +0.000 A 
ATOM      4  C   UNL     1       6.235   5.385  19.328  0.00  0.00    +0.000 A 
ATOM      5  C   UNL     1       7.490   5.660  18.835  0.00  0.00    +0.000 A 
ATOM      6  N   UNL     1       7.837   5.498  17.545  0.00  0.00    +0.000 NA
ATOM      7  C   UNL     1       6.909   5.030  16.699  0.00  0.00    +0.000 A 
ATOM      8  C   UNL     1       7.294   4.862  15.378  0.00  0.00    +0.000 A 
ATOM      9  C   UNL     1       6.407   4.382  14.421  0.00  0.00    +0.000 A 
ATOM     10 CL   UNL     1       6.922   4.195  12.791  0.00  0.00    +0.000 Cl
ATOM     11  C   UNL     1       5.108   4.052  14.777  0.00  0.00    +0.000 A 
ATOM     12  C   UNL     1       4.698   4.210  16.101  0.00  0.00    +0.000 A 
ATOM     13  C   UNL     1       5.585   4.708  17.091  0.00  0.00    +0.000 A 
ENDBRANCH   1   3
BRANCH   1  15
ATOM     14  C   UNL     1       2.747   6.510  18.804  0.00  0.00    +0.000 C 
ATOM     15  N   UNL     1       3.296   5.636  19.586  0.00  0.00    +0.000 NA
BRANCH  14  22
ATOM     16  F   UNL     1       2.163   8.794  17.280  0.00  0.00    +0.000 F 
ATOM     17  C   UNL     1       1.783   8.780  18.567  0.00  0.00    +0.000 A 
ATOM     18  C   UNL     1       1.120   9.890  19.085  0.00  0.00    +0.000 A 
ATOM     19  C   UNL     1       0.718   9.898  20.423  0.00  0.00    +0.000 A 
ATOM     20  C   UNL     1       0.983   8.794  21.236  0.00  0.00    +0.000 A 
ATOM     21  C   UNL     1       1.645   7.683  20.714  0.00  0.00    +0.000 A 
ATOM     22  C   UNL     1       2.045   7.674  19.371  0.00  0.00    +0.000 A 
ENDBRANCH  14  22
ENDBRANCH   1  15
TORSDOF 3
ENDMDL
MODEL 5
REMARK VINA RESULT:      -7.6      3.741      7.748
REMARK  Name = 
REMARK  3 active torsions:
REMARK  status: ('A' for Active; 'I' for Inactive)
REMARK    1  A    between atoms: C_7  and  C_8
REMARK    2  A    between atoms: N_9  and  N_10
REMARK    3  A    between atoms: N_10  and  C_11
REMARK                            x       y       z     vdW  Elec       q    Type
REMARK                         _______ _______ _______ _____ _____    ______ ____
ROOT
ATOM      1  N   UNL     1       2.120   6.112  21.042  0.00  0.00    +0.000 N 
ATOM      2  H   UNL     1       2.311   5.854  22.007  0.00  0.00    +0.000 HD
ENDROOT
BRANCH   1   3
ATOM      3  C   UNL     1       2.032   4.999  20.154  0.00  0.00    +0.000 A 
ATOM      4  C   UNL     1       1.038   4.037  20.365  0.00  0.00    +0.000 A 
ATOM      5  C   UNL     1       0.929   2.978  19.491  0.00  0.00    +0.000 A 
ATOM      6  N   UNL     1       1.721   2.815  18.416  0.00  0.00    +0.000 NA
ATOM      7  C   UNL     1       2.658   3.743  18.178  0.00  0.00    +0.000 A 
ATOM      8  C   UNL     1       3.454   3.557  17.060  0.00  0.00    +0.000 A 
ATOM      9  C   UNL     1       4.455   4.462  16.725  0.00  0.00    +0.000 A 
ATOM     10 CL   UNL     1       5.426   4.191  15.331  0.00  0.00    +0.000 Cl
ATOM     11  C   UNL     1       4.672   5.584  17.511  0.00  0.00    +0.000 A 
ATOM     12  C   UNL     1       3.882   5.794  18.641  0.00  0.00    +0.000 A 
ATOM     13  C   UNL     1       2.862   4.877  19.005  0.00  0.00    +0.000 A 
ENDBRANCH   1   3
BRANCH   1  15
ATOM     14  C   UNL     1       1.680   8.222  20.378  0.00  0.00    +0.000 C 
ATOM     15  N   UNL     1       1.211   7.105  20.834  0.00  0.00    +0.000 NA
BRANCH  14  22
ATOM     16  F   UNL     1       1.114   9.200  17.808  0.00  0.00    +0.000 F 
ATOM     17  C   UNL     1       0.536   9.808  18.856  0.00  0.00    +0.000 A 
ATOM     18  C   UNL     1      -0.312  10.888  18.624  0.00  0.00    +0.000 A 
ATOM     19  C   UNL     1      -0.920  11.538  19.700  0.00  0.00    +0.000 A 
ATOM     20  C   UNL     1      -0.676  11.103  21.005  0.00  0.00    +0.000 A 
ATOM     21  C   UNL     1       0.173  10.020  21.234  0.00  0.00    +0.000 A 
ATOM     22  C   UNL     1       0.780   9.366  20.153  0.00  0.00    +0.000 A 
ENDBRANCH  14  22
ENDBRANCH   1  15
TORSDOF 3
ENDMDL
MODEL 6
REMARK VINA RESULT:      -7.6      1.113      1.350
REMARK  Name = 
REMARK  3 active torsions:
REMARK  status: ('A' for Active; 'I' for Inactive)
REMARK    1  A    between atoms: C_7  and  C_8
REMARK    2  A    between atoms: N_9  and  N_10
REMARK    3  A    between atoms: N_10  and  C_11
REMARK                            x       y       z     vdW  Elec       q    Type
REMARK                         _______ _______ _______ _____ _____    ______ ____
ROOT
ATOM      1  N   UNL     1       1.846   7.579  20.981  0.00  0.00    +0.000 N 
ATOM      2  H   UNL     1       2.586   7.770  21.652  0.00  0.00    +0.000 HD
ENDROOT
BRANCH   1   3
ATOM      3  C   UNL     1       1.249   8.751  20.431  0.00  0.00    +0.000 A 
ATOM      4  C   UNL     1       1.463   9.055  19.081  0.00  0.00    +0.000 A 
ATOM      5  C   UNL     1       0.862  10.169  18.538  0.00  0.00    +0.000 A 
ATOM      6  N   UNL     1       0.053  10.990  19.230  0.00  0.00    +0.000 NA
ATOM      7  C   UNL     1      -0.191  10.699  20.515  0.00  0.00    +0.000 A 
ATOM      8  C   UNL     1      -1.036  11.555  21.202  0.00  0.00    +0.000 A 
ATOM      9  C   UNL     1      -1.352  11.341  22.539  0.00  0.00    +0.000 A 
ATOM     10 CL   UNL     1      -2.400  12.432  23.358  0.00  0.00    +0.000 Cl
ATOM     11  C   UNL     1      -0.827  10.249  23.214  0.00  0.00    +0.000 A 
ATOM     12  C   UNL     1       0.024   9.372  22.543  0.00  0.00    +0.000 A 
ATOM     13  C   UNL     1       0.368   9.578  21.182  0.00  0.00    +0.000 A 
ENDBRANCH   1   3
BRANCH   1  15
ATOM     14  C   UNL     1       1.974   5.360  20.594  0.00  0.00    +0.000 C 
ATOM     15  N   UNL     1       2.053   6.556  20.105  0.00  0.00    +0.000 NA
BRANCH  14  22
ATOM     16  F   UNL     1       4.525   4.729  19.609  0.00  0.00    +0.000 F 
ATOM     17  C   UNL     1       3.503   3.927  19.274  0.00  0.00    +0.000 A 
ATOM     18  C   UNL     1       3.752   2.824  18.460  0.00  0.00    +0.000 A 
ATOM     19  C   UNL     1       2.702   1.978  18.095  0.00  0.00    +0.000 A 
ATOM     20  C   UNL     1       1.407   2.240  18.548  0.00  0.00    +0.000 A 
ATOM     21  C   UNL     1       1.162   3.343  19.365  0.00  0.00    +0.000 A 
ATOM     22  C   UNL     1       2.216   4.190  19.733  0.00  0.00    +0.000 A 
ENDBRANCH  14  22
ENDBRANCH   1  15
TORSDOF 3
ENDMDL
MODEL 7
REMARK VINA RESULT:      -7.6      1.170      1.447
REMARK  Name = 
REMARK  3 active torsions:
REMARK  status: ('A' for Active; 'I' for Inactive)
REMARK    1  A    between atoms: C_7  and  C_8
REMARK    2  A    between atoms: N_9  and  N_10
REMARK    3  A    between atoms: N_10  and  C_11
REMARK                            x       y       z     vdW  Elec       q    Type
REMARK                         _______ _______ _______ _____ _____    ______ ____
ROOT
ATOM      1  N   UNL     1       1.811   7.291  21.026  0.00  0.00    +0.000 N 
ATOM      2  H   UNL     1       2.327   7.442  21.888  0.00  0.00    +0.000 HD
ENDROOT
BRANCH   1   3
ATOM      3  C   UNL     1       1.319   8.489  20.430  0.00  0.00    +0.000 A 
ATOM      4  C   UNL     1       1.591   8.740  19.079  0.00  0.00    +0.000 A 
ATOM      5  C   UNL     1       1.090   9.880  18.492  0.00  0.00    +0.000 A 
ATOM      6  N   UNL     1       0.326  10.778  19.140  0.00  0.00    +0.000 NA
ATOM      7  C   UNL     1       0.027  10.540  20.424  0.00  0.00    +0.000 A 
ATOM      8  C   UNL     1      -0.769  11.475  21.065  0.00  0.00    +0.000 A 
ATOM      9  C   UNL     1      -1.137  11.320  22.398  0.00  0.00    +0.000 A 
ATOM     10 CL   UNL     1      -2.121  12.508  23.159  0.00  0.00    +0.000 Cl
ATOM     11  C   UNL     1      -0.713  10.211  23.114  0.00  0.00    +0.000 A 
ATOM     12  C   UNL     1       0.088   9.255  22.489  0.00  0.00    +0.000 A 
ATOM     13  C   UNL     1       0.482   9.399  21.134  0.00  0.00    +0.000 A 
ENDBRANCH   1   3
BRANCH   1  15
ATOM     14  C   UNL     1       1.890   5.149  20.321  0.00  0.00    +0.000 C 
ATOM     15  N   UNL     1       2.309   6.364  20.160  0.00  0.00    +0.000 NA
BRANCH  14  22
ATOM     16  F   UNL     1       1.304   5.027  17.579  0.00  0.00    +0.000 F 
ATOM     17  C   UNL     1       2.074   4.061  18.103  0.00  0.00    +0.000 A 
ATOM     18  C   UNL     1       2.545   3.050  17.270  0.00  0.00    +0.000 A 
ATOM     19  C   UNL     1       3.345   2.032  17.795  0.00  0.00    +0.000 A 
ATOM     20  C   UNL     1       3.669   2.033  19.153  0.00  0.00    +0.000 A 
ATOM     21  C   UNL     1       3.198   3.048  19.985  0.00  0.00    +0.000 A 
ATOM     22  C   UNL     1       2.398   4.070  19.457  0.00  0.00    +0.000 A 
ENDBRANCH  14  22
ENDBRANCH   1  15
TORSDOF 3
ENDMDL
MODEL 8
REMARK VINA RESULT:      -7.6      7.012      9.551
REMARK  Name = 
REMARK  3 active torsions:
REMARK  status: ('A' for Active; 'I' for Inactive)
REMARK    1  A    between atoms: C_7  and  C_8
REMARK    2  A    between atoms: N_9  and  N_10
REMARK    3  A    between atoms: N_10  and  C_11
REMARK                            x       y       z     vdW  Elec       q    Type
REMARK                         _______ _______ _______ _____ _____    ______ ____
ROOT
ATOM      1  N   UNL     1       7.270   7.875  16.994  0.00  0.00    +0.000 N 
ATOM      2  H   UNL     1       7.277   7.578  16.022  0.00  0.00    +0.000 HD
ENDROOT
BRANCH   1   3
ATOM      3  C   UNL     1       6.975   6.827  17.915  0.00  0.00    +0.000 A 
ATOM      4  C   UNL     1       7.983   6.368  18.771  0.00  0.00    +0.000 A 
ATOM      5  C   UNL     1       7.693   5.379  19.684  0.00  0.00    +0.000 A 
ATOM      6  N   UNL     1       6.475   4.826  19.822  0.00  0.00    +0.000 NA
ATOM      7  C   UNL     1       5.488   5.274  19.034  0.00  0.00    +0.000 A 
ATOM      8  C   UNL     1       4.241   4.695  19.202  0.00  0.00    +0.000 A 
ATOM      9  C   UNL     1       3.150   5.089  18.434  0.00  0.00    +0.000 A 
ATOM     10 CL   UNL     1       1.619   4.340  18.670  0.00  0.00    +0.000 Cl
ATOM     11  C   UNL     1       3.292   6.085  17.480  0.00  0.00    +0.000 A 
ATOM     12  C   UNL     1       4.538   6.685  17.294  0.00  0.00    +0.000 A 
ATOM     13  C   UNL     1       5.665   6.290  18.060  0.00  0.00    +0.000 A 
ENDBRANCH   1   3
BRANCH   1  15
ATOM     14  C   UNL     1       7.842   9.900  17.805  0.00  0.00    +0.000 C 
ATOM     15  N   UNL     1       8.244   8.744  17.384  0.00  0.00    +0.000 NA
BRANCH  14  22
ATOM     16  F   UNL     1       7.777  12.524  16.808  0.00  0.00    +0.000 F 
ATOM     17  C   UNL     1       8.740  12.206  17.688  0.00  0.00    +0.000 A 
ATOM     18  C   UNL     1       9.656  13.185  18.065  0.00  0.00    +0.000 A 
ATOM     19  C   UNL     1      10.668  12.875  18.976  0.00  0.00    +0.000 A 
ATOM     20  C   UNL     1      10.759  11.586  19.506  0.00  0.00    +0.000 A 
ATOM     21  C   UNL     1       9.838  10.609  19.128  0.00  0.00    +0.000 A 
ATOM     22  C   UNL     1       8.821  10.921  18.216  0.00  0.00    +0.000 A 
ENDBRANCH  14  22
ENDBRANCH   1  15
TORSDOF 3
ENDMDL
MODEL 9
REMARK VINA RESULT:      -7.5      4.276      8.228
REMARK  Name = 
REMARK  3 active torsions:
REMARK  status: ('A' for Active; 'I' for Inactive)
REMARK    1  A    between atoms: C_7  and  C_8
REMARK    2  A    between atoms: N_9  and  N_10
REMARK    3  A    between atoms: N_10  and  C_11
REMARK                            x       y       z     vdW  Elec       q    Type
REMARK                         _______ _______ _______ _____ _____    ______ ____
ROOT
ATOM      1  N   UNL     1       2.383   7.881  18.810  0.00  0.00    +0.000 N 
ATOM      2  H   UNL     1       3.059   8.514  18.391  0.00  0.00    +0.000 HD
ENDROOT
BRANCH   1   3
ATOM      3  C   UNL     1       2.802   6.518  18.825  0.00  0.00    +0.000 A 
ATOM      4  C   UNL     1       2.243   5.644  19.766  0.00  0.00    +0.000 A 
ATOM      5  C   UNL     1       2.621   4.321  19.763  0.00  0.00    +0.000 A 
ATOM      6  N   UNL     1       3.497   3.797  18.887  0.00  0.00    +0.000 NA
ATOM      7  C   UNL     1       4.019   4.610  17.958  0.00  0.00    +0.000 A 
ATOM      8  C   UNL     1       4.911   4.045  17.061  0.00  0.00    +0.000 A 
ATOM      9  C   UNL     1       5.508   4.802  16.059  0.00  0.00    +0.000 A 
ATOM     10 CL   UNL     1       6.616   4.064  14.970  0.00  0.00    +0.000 Cl
ATOM     11  C   UNL     1       5.213   6.151  15.935  0.00  0.00    +0.000 A 
ATOM     12  C   UNL     1       4.315   6.742  16.825  0.00  0.00    +0.000 A 
ATOM     13  C   UNL     1       3.703   5.989  17.860  0.00  0.00    +0.000 A 
ENDBRANCH   1   3
BRANCH   1  15
ATOM     14  C   UNL     1       0.909   9.292  19.771  0.00  0.00    +0.000 C 
ATOM     15  N   UNL     1       1.740   8.313  19.931  0.00  0.00    +0.000 NA
BRANCH  14  22
ATOM     16  F   UNL     1      -0.530  11.698  19.622  0.00  0.00    +0.000 F 
ATOM     17  C   UNL     1      -0.506  11.049  20.796  0.00  0.00    +0.000 A 
ATOM     18  C   UNL     1      -1.191  11.592  21.880  0.00  0.00    +0.000 A 
ATOM     19  C   UNL     1      -1.176  10.936  23.112  0.00  0.00    +0.000 A 
ATOM     20  C   UNL     1      -0.474   9.736  23.254  0.00  0.00    +0.000 A 
ATOM     21  C   UNL     1       0.209   9.194  22.167  0.00  0.00    +0.000 A 
ATOM     22  C   UNL     1       0.191   9.852  20.929  0.00  0.00    +0.000 A 
ENDBRANCH  14  22
ENDBRANCH   1  15
TORSDOF 3
ENDMDL
