MODEL 1
REMARK VINA RESULT:      -6.9      0.000      0.000
REMARK  Name = 
REMARK  4 active torsions:
REMARK  status: ('A' for Active; 'I' for Inactive)
REMARK    1  A    between atoms: C_2  and  C_3
REMARK    2  A    between atoms: C_4  and  C_5
REMARK    3  A    between atoms: C_11  and  O_12
REMARK    4  A    between atoms: N_13  and  O_14
REMARK                            x       y       z     vdW  Elec       q    Type
REMARK                         _______ _______ _______ _____ _____    ______ ____
ROOT
ATOM      1  C   UNL     1       4.049   4.088  17.513  0.00  0.00    +0.000 A 
ATOM      2  C   UNL     1       2.657   4.133  17.324  0.00  0.00    +0.000 A 
ATOM      3  C   UNL     1       1.779   3.779  18.352  0.00  0.00    +0.000 A 
ATOM      4  C   UNL     1       2.283   3.382  19.587  0.00  0.00    +0.000 A 
ATOM      5 CL   UNL     1       1.203   2.949  20.856  0.00  0.00    +0.000 Cl
ATOM      6  C   UNL     1       3.657   3.339  19.808  0.00  0.00    +0.000 A 
ATOM      7  C   UNL     1       4.530   3.696  18.777  0.00  0.00    +0.000 A 
ENDROOT
BRANCH   1   9
ATOM      8  C   UNL     1       5.623   3.678  15.628  0.00  0.00    +0.000 C 
ATOM      9  C   UNL     1       4.902   4.515  16.387  0.00  0.00    +0.000 C 
BRANCH   8  11
ATOM     10  O   UNL     1       6.388   3.804  13.365  0.00  0.00    +0.000 OA
ATOM     11  C   UNL     1       6.473   4.184  14.527  0.00  0.00    +0.000 C 
ATOM     12  N   UNL     1       7.369   5.136  14.939  0.00  0.00    +0.000 N 
ATOM     13  H   UNL     1       7.443   5.507  15.878  0.00  0.00    +0.000 HD
BRANCH  12  14
ATOM     14  O   UNL     1       8.210   5.696  13.954  0.00  0.00    +0.000 OA
ATOM     15  H   UNL     1       7.631   5.694  13.163  0.00  0.00    +0.000 HD
ENDBRANCH  12  14
ENDBRANCH   8  11
ENDBRANCH   1   9
BRANCH   7  16
ATOM     16  O   UNL     1       5.878   3.674  19.023  0.00  0.00    +0.000 OA
ATOM     17  H   UNL     1       6.264   4.531  18.780  0.00  0.00    +0.000 HD
ENDBRANCH   7  16
TORSDOF 4
ENDMDL
MODEL 2
REMARK VINA RESULT:      -6.7      0.805      1.115
REMARK  Name = 
REMARK  4 active torsions:
REMARK  status: ('A' for Active; 'I' for Inactive)
REMARK    1  A    between atoms: C_2  and  C_3
REMARK    2  A    between atoms: C_4  and  C_5
REMARK    3  A    between atoms: C_11  and  O_12
REMARK    4  A    between atoms: N_13  and  O_14
REMARK                            x       y       z     vdW  Elec       q    Type
REMARK                         _______ _______ _______ _____ _____    ______ ____
ROOT
ATOM      1  C   UNL     1       4.062   4.068  17.473  0.00  0.00    +0.000 A 
ATOM      2  C   UNL     1       2.667   4.055  17.302  0.00  0.00    +0.000 A 
ATOM      3  C   UNL     1       1.817   3.672  18.344  0.00  0.00    +0.000 A 
ATOM      4  C   UNL     1       2.354   3.305  19.575  0.00  0.00    +0.000 A 
ATOM      5 CL   UNL     1       1.309   2.838  20.861  0.00  0.00    +0.000 Cl
ATOM      6  C   UNL     1       3.731   3.320  19.778  0.00  0.00    +0.000 A 
ATOM      7  C   UNL     1       4.576   3.705  18.733  0.00  0.00    +0.000 A 
ENDROOT
BRANCH   1   9
ATOM      8  C   UNL     1       5.773   3.752  15.691  0.00  0.00    +0.000 C 
ATOM      9  C   UNL     1       4.882   4.523  16.333  0.00  0.00    +0.000 C 
BRANCH   8  11
ATOM     10  O   UNL     1       7.384   5.199  14.675  0.00  0.00    +0.000 OA
ATOM     11  C   UNL     1       6.575   4.285  14.567  0.00  0.00    +0.000 C 
ATOM     12  N   UNL     1       6.325   3.644  13.382  0.00  0.00    +0.000 N 
ATOM     13  H   UNL     1       5.698   2.859  13.258  0.00  0.00    +0.000 HD
BRANCH  12  14
ATOM     14  O   UNL     1       7.060   4.068  12.254  0.00  0.00    +0.000 OA
ATOM     15  H   UNL     1       6.567   3.648  11.518  0.00  0.00    +0.000 HD
ENDBRANCH  12  14
ENDBRANCH   8  11
ENDBRANCH   1   9
BRANCH   7  16
ATOM     16  O   UNL     1       5.927   3.740  18.961  0.00  0.00    +0.000 OA
ATOM     17  H   UNL     1       6.242   2.844  19.164  0.00  0.00    +0.000 HD
ENDBRANCH   7  16
TORSDOF 4
ENDMDL
MODEL 3
REMARK VINA RESULT:      -6.5      1.495      1.545
REMARK  Name = 
REMARK  4 active torsions:
REMARK  status: ('A' for Active; 'I' for Inactive)
REMARK    1  A    between atoms: C_2  and  C_3
REMARK    2  A    between atoms: C_4  and  C_5
REMARK    3  A    between atoms: C_11  and  O_12
REMARK    4  A    between atoms: N_13  and  O_14
REMARK                            x       y       z     vdW  Elec       q    Type
REMARK                         _______ _______ _______ _____ _____    ______ ____
ROOT
ATOM      1  C   UNL     1       4.688   5.344  17.438  0.00  0.00    +0.000 A 
ATOM      2  C   UNL     1       3.646   6.285  17.394  0.00  0.00    +0.000 A 
ATOM      3  C   UNL     1       2.710   6.373  18.429  0.00  0.00    +0.000 A 
ATOM      4  C   UNL     1       2.812   5.524  19.528  0.00  0.00    +0.000 A 
ATOM      5 CL   UNL     1       1.664   5.634  20.806  0.00  0.00    +0.000 Cl
ATOM      6  C   UNL     1       3.842   4.591  19.606  0.00  0.00    +0.000 A 
ATOM      7  C   UNL     1       4.775   4.509  18.568  0.00  0.00    +0.000 A 
ENDROOT
BRANCH   1   9
ATOM      8  C   UNL     1       5.569   4.542  15.251  0.00  0.00    +0.000 C 
ATOM      9  C   UNL     1       5.653   5.346  16.322  0.00  0.00    +0.000 C 
BRANCH   8  11
ATOM     10  O   UNL     1       6.555   3.891  13.171  0.00  0.00    +0.000 OA
ATOM     11  C   UNL     1       6.588   4.588  14.179  0.00  0.00    +0.000 C 
ATOM     12  N   UNL     1       7.579   5.501  14.424  0.00  0.00    +0.000 N 
ATOM     13  H   UNL     1       7.622   6.125  15.221  0.00  0.00    +0.000 HD
BRANCH  12  14
ATOM     14  O   UNL     1       8.588   5.634  13.446  0.00  0.00    +0.000 OA
ATOM     15  H   UNL     1       9.377   5.844  13.990  0.00  0.00    +0.000 HD
ENDBRANCH  12  14
ENDBRANCH   8  11
ENDBRANCH   1   9
BRANCH   7  16
ATOM     16  O   UNL     1       5.797   3.602  18.677  0.00  0.00    +0.000 OA
ATOM     17  H   UNL     1       6.646   4.074  18.682  0.00  0.00    +0.000 HD
ENDBRANCH   7  16
TORSDOF 4
ENDMDL
MODEL 4
REMARK VINA RESULT:      -6.5      1.203      1.217
REMARK  Name = 
REMARK  4 active torsions:
REMARK  status: ('A' for Active; 'I' for Inactive)
REMARK    1  A    between atoms: C_2  and  C_3
REMARK    2  A    between atoms: C_4  and  C_5
REMARK    3  A    between atoms: C_11  and  O_12
REMARK    4  A    between atoms: N_13  and  O_14
REMARK                            x       y       z     vdW  Elec       q    Type
REMARK                         _______ _______ _______ _____ _____    ______ ____
ROOT
ATOM      1  C   UNL     1       3.808   3.577  17.382  0.00  0.00    +0.000 A 
ATOM      2  C   UNL     1       3.157   4.765  17.758  0.00  0.00    +0.000 A 
ATOM      3  C   UNL     1       2.304   4.799  18.865  0.00  0.00    +0.000 A 
ATOM      4  C   UNL     1       2.098   3.645  19.616  0.00  0.00    +0.000 A 
ATOM      5 CL   UNL     1       1.051   3.686  20.982  0.00  0.00    +0.000 Cl
ATOM      6  C   UNL     1       2.738   2.457  19.275  0.00  0.00    +0.000 A 
ATOM      7  C   UNL     1       3.591   2.429  18.168  0.00  0.00    +0.000 A 
ENDROOT
BRANCH   1   9
ATOM      8  C   UNL     1       5.673   4.571  16.065  0.00  0.00    +0.000 C 
ATOM      9  C   UNL     1       4.721   3.640  16.224  0.00  0.00    +0.000 C 
BRANCH   8  11
ATOM     10  O   UNL     1       6.420   3.799  13.927  0.00  0.00    +0.000 OA
ATOM     11  C   UNL     1       6.539   4.581  14.864  0.00  0.00    +0.000 C 
ATOM     12  N   UNL     1       7.491   5.565  14.901  0.00  0.00    +0.000 N 
ATOM     13  H   UNL     1       7.595   6.256  15.634  0.00  0.00    +0.000 HD
BRANCH  12  14
ATOM     14  O   UNL     1       8.352   5.669  13.788  0.00  0.00    +0.000 OA
ATOM     15  H   UNL     1       8.882   4.847  13.860  0.00  0.00    +0.000 HD
ENDBRANCH  12  14
ENDBRANCH   8  11
ENDBRANCH   1   9
BRANCH   7  16
ATOM     16  O   UNL     1       4.234   1.257  17.866  0.00  0.00    +0.000 OA
ATOM     17  H   UNL     1       3.591   0.529  17.863  0.00  0.00    +0.000 HD
ENDBRANCH   7  16
TORSDOF 4
ENDMDL
MODEL 5
REMARK VINA RESULT:      -6.5      1.482      1.623
REMARK  Name = 
REMARK  4 active torsions:
REMARK  status: ('A' for Active; 'I' for Inactive)
REMARK    1  A    between atoms: C_2  and  C_3
REMARK    2  A    between atoms: C_4  and  C_5
REMARK    3  A    between atoms: C_11  and  O_12
REMARK    4  A    between atoms: N_13  and  O_14
REMARK                            x       y       z     vdW  Elec       q    Type
REMARK                         _______ _______ _______ _____ _____    ______ ____
ROOT
ATOM      1  C   UNL     1       3.966   4.817  17.085  0.00  0.00    +0.000 A 
ATOM      2  C   UNL     1       3.487   3.505  17.240  0.00  0.00    +0.000 A 
ATOM      3  C   UNL     1       2.540   3.194  18.220  0.00  0.00    +0.000 A 
ATOM      4  C   UNL     1       2.052   4.198  19.053  0.00  0.00    +0.000 A 
ATOM      5 CL   UNL     1       0.881   3.818  20.257  0.00  0.00    +0.000 Cl
ATOM      6  C   UNL     1       2.497   5.509  18.915  0.00  0.00    +0.000 A 
ATOM      7  C   UNL     1       3.444   5.813  17.932  0.00  0.00    +0.000 A 
ENDROOT
BRANCH   1   9
ATOM      8  C   UNL     1       5.568   4.095  15.321  0.00  0.00    +0.000 C 
ATOM      9  C   UNL     1       4.936   5.063  16.001  0.00  0.00    +0.000 C 
BRANCH   8  11
ATOM     10  O   UNL     1       6.527   3.928  13.136  0.00  0.00    +0.000 OA
ATOM     11  C   UNL     1       6.545   4.421  14.257  0.00  0.00    +0.000 C 
ATOM     12  N   UNL     1       7.476   5.345  14.654  0.00  0.00    +0.000 N 
ATOM     13  H   UNL     1       7.501   5.807  15.555  0.00  0.00    +0.000 HD
BRANCH  12  14
ATOM     14  O   UNL     1       8.439   5.737  13.700  0.00  0.00    +0.000 OA
ATOM     15  H   UNL     1       9.229   5.900  14.259  0.00  0.00    +0.000 HD
ENDBRANCH  12  14
ENDBRANCH   8  11
ENDBRANCH   1   9
BRANCH   7  16
ATOM     16  O   UNL     1       3.849   7.116  17.795  0.00  0.00    +0.000 OA
ATOM     17  H   UNL     1       4.550   7.165  17.124  0.00  0.00    +0.000 HD
ENDBRANCH   7  16
TORSDOF 4
ENDMDL
MODEL 6
REMARK VINA RESULT:      -6.5      1.599      2.096
REMARK  Name = 
REMARK  4 active torsions:
REMARK  status: ('A' for Active; 'I' for Inactive)
REMARK    1  A    between atoms: C_2  and  C_3
REMARK    2  A    between atoms: C_4  and  C_5
REMARK    3  A    between atoms: C_11  and  O_12
REMARK    4  A    between atoms: N_13  and  O_14
REMARK                            x       y       z     vdW  Elec       q    Type
REMARK                         _______ _______ _______ _____ _____    ______ ____
ROOT
ATOM      1  C   UNL     1       3.360   3.593  17.972  0.00  0.00    +0.000 A 
ATOM      2  C   UNL     1       4.116   3.031  19.014  0.00  0.00    +0.000 A 
ATOM      3  C   UNL     1       3.522   2.687  20.232  0.00  0.00    +0.000 A 
ATOM      4  C   UNL     1       2.157   2.894  20.418  0.00  0.00    +0.000 A 
ATOM      5 CL   UNL     1       1.422   2.467  21.915  0.00  0.00    +0.000 Cl
ATOM      6  C   UNL     1       1.380   3.437  19.399  0.00  0.00    +0.000 A 
ATOM      7  C   UNL     1       1.980   3.778  18.184  0.00  0.00    +0.000 A 
ENDROOT
BRANCH   1   9
ATOM      8  C   UNL     1       5.326   4.329  16.632  0.00  0.00    +0.000 C 
ATOM      9  C   UNL     1       4.061   3.890  16.708  0.00  0.00    +0.000 C 
BRANCH   8  11
ATOM     10  O   UNL     1       5.447   4.357  14.243  0.00  0.00    +0.000 OA
ATOM     11  C   UNL     1       5.956   4.625  15.326  0.00  0.00    +0.000 C 
ATOM     12  N   UNL     1       7.172   5.243  15.448  0.00  0.00    +0.000 N 
ATOM     13  H   UNL     1       7.607   5.520  16.319  0.00  0.00    +0.000 HD
BRANCH  12  14
ATOM     14  O   UNL     1       7.842   5.587  14.254  0.00  0.00    +0.000 OA
ATOM     15  H   UNL     1       7.138   5.468  13.581  0.00  0.00    +0.000 HD
ENDBRANCH  12  14
ENDBRANCH   8  11
ENDBRANCH   1   9
BRANCH   7  16
ATOM     16  O   UNL     1       1.192   4.285  17.184  0.00  0.00    +0.000 OA
ATOM     17  H   UNL     1       1.719   4.887  16.633  0.00  0.00    +0.000 HD
ENDBRANCH   7  16
TORSDOF 4
ENDMDL
MODEL 7
REMARK VINA RESULT:      -6.5      1.284      1.560
REMARK  Name = 
REMARK  4 active torsions:
REMARK  status: ('A' for Active; 'I' for Inactive)
REMARK    1  A    between atoms: C_2  and  C_3
REMARK    2  A    between atoms: C_4  and  C_5
REMARK    3  A    between atoms: C_11  and  O_12
REMARK    4  A    between atoms: N_13  and  O_14
REMARK                            x       y       z     vdW  Elec       q    Type
REMARK                         _______ _______ _______ _____ _____    ______ ____
ROOT
ATOM      1  C   UNL     1       3.522   3.833  18.257  0.00  0.00    +0.000 A 
ATOM      2  C   UNL     1       2.154   4.140  18.346  0.00  0.00    +0.000 A 
ATOM      3  C   UNL     1       1.399   3.752  19.457  0.00  0.00    +0.000 A 
ATOM      4  C   UNL     1       2.008   3.057  20.499  0.00  0.00    +0.000 A 
ATOM      5 CL   UNL     1       1.081   2.582  21.870  0.00  0.00    +0.000 Cl
ATOM      6  C   UNL     1       3.364   2.750  20.445  0.00  0.00    +0.000 A 
ATOM      7  C   UNL     1       4.114   3.142  19.332  0.00  0.00    +0.000 A 
ENDROOT
BRANCH   1   9
ATOM      8  C   UNL     1       5.006   5.422  17.045  0.00  0.00    +0.000 C 
ATOM      9  C   UNL     1       4.251   4.314  17.068  0.00  0.00    +0.000 C 
BRANCH   8  11
ATOM     10  O   UNL     1       5.313   6.780  15.099  0.00  0.00    +0.000 OA
ATOM     11  C   UNL     1       5.692   5.853  15.805  0.00  0.00    +0.000 C 
ATOM     12  N   UNL     1       6.810   5.110  15.529  0.00  0.00    +0.000 N 
ATOM     13  H   UNL     1       7.180   4.366  16.107  0.00  0.00    +0.000 HD
BRANCH  12  14
ATOM     14  O   UNL     1       7.546   5.460  14.377  0.00  0.00    +0.000 OA
ATOM     15  H   UNL     1       8.470   5.321  14.673  0.00  0.00    +0.000 HD
ENDBRANCH  12  14
ENDBRANCH   8  11
ENDBRANCH   1   9
BRANCH   7  16
ATOM     16  O   UNL     1       5.454   2.854  19.311  0.00  0.00    +0.000 OA
ATOM     17  H   UNL     1       5.933   3.513  19.840  0.00  0.00    +0.000 HD
ENDBRANCH   7  16
TORSDOF 4
ENDMDL
MODEL 8
REMARK VINA RESULT:      -6.5      1.222      1.303
REMARK  Name = 
REMARK  4 active torsions:
REMARK  status: ('A' for Active; 'I' for Inactive)
REMARK    1  A    between atoms: C_2  and  C_3
REMARK    2  A    between atoms: C_4  and  C_5
REMARK    3  A    between atoms: C_11  and  O_12
REMARK    4  A    between atoms: N_13  and  O_14
REMARK                            x       y       z     vdW  Elec       q    Type
REMARK                         _______ _______ _______ _____ _____    ______ ____
ROOT
ATOM      1  C   UNL     1       3.900   3.783  17.712  0.00  0.00    +0.000 A 
ATOM      2  C   UNL     1       3.430   2.480  17.948  0.00  0.00    +0.000 A 
ATOM      3  C   UNL     1       2.737   2.165  19.121  0.00  0.00    +0.000 A 
ATOM      4  C   UNL     1       2.497   3.156  20.069  0.00  0.00    +0.000 A 
ATOM      5 CL   UNL     1       1.638   2.773  21.512  0.00  0.00    +0.000 Cl
ATOM      6  C   UNL     1       2.939   4.459  19.857  0.00  0.00    +0.000 A 
ATOM      7  C   UNL     1       3.631   4.767  18.682  0.00  0.00    +0.000 A 
ENDROOT
BRANCH   1   9
ATOM      8  C   UNL     1       5.921   4.075  16.288  0.00  0.00    +0.000 C 
ATOM      9  C   UNL     1       4.588   4.035  16.431  0.00  0.00    +0.000 C 
BRANCH   8  11
ATOM     10  O   UNL     1       6.226   3.786  13.933  0.00  0.00    +0.000 OA
ATOM     11  C   UNL     1       6.540   4.354  14.972  0.00  0.00    +0.000 C 
ATOM     12  N   UNL     1       7.503   5.327  15.031  0.00  0.00    +0.000 N 
ATOM     13  H   UNL     1       7.762   5.850  15.859  0.00  0.00    +0.000 HD
BRANCH  12  14
ATOM     14  O   UNL     1       8.136   5.680  13.820  0.00  0.00    +0.000 OA
ATOM     15  H   UNL     1       7.397   6.073  13.308  0.00  0.00    +0.000 HD
ENDBRANCH  12  14
ENDBRANCH   8  11
ENDBRANCH   1   9
BRANCH   7  16
ATOM     16  O   UNL     1       4.033   6.061  18.480  0.00  0.00    +0.000 OA
ATOM     17  H   UNL     1       4.940   6.066  18.132  0.00  0.00    +0.000 HD
ENDBRANCH   7  16
TORSDOF 4
ENDMDL
MODEL 9
REMARK VINA RESULT:      -6.4      1.262      1.683
REMARK  Name = 
REMARK  4 active torsions:
REMARK  status: ('A' for Active; 'I' for Inactive)
REMARK    1  A    between atoms: C_2  and  C_3
REMARK    2  A    between atoms: C_4  and  C_5
REMARK    3  A    between atoms: C_11  and  O_12
REMARK    4  A    between atoms: N_13  and  O_14
REMARK                            x       y       z     vdW  Elec       q    Type
REMARK                         _______ _______ _______ _____ _____    ______ ____
ROOT
ATOM      1  C   UNL     1       3.981   4.234  17.890  0.00  0.00    +0.000 A 
ATOM      2  C   UNL     1       2.664   4.653  17.637  0.00  0.00    +0.000 A 
ATOM      3  C   UNL     1       1.611   4.259  18.469  0.00  0.00    +0.000 A 
ATOM      4  C   UNL     1       1.866   3.447  19.571  0.00  0.00    +0.000 A 
ATOM      5 CL   UNL     1       0.572   2.965  20.599  0.00  0.00    +0.000 Cl
ATOM      6  C   UNL     1       3.163   3.027  19.853  0.00  0.00    +0.000 A 
ATOM      7  C   UNL     1       4.211   3.425  19.019  0.00  0.00    +0.000 A 
ENDROOT
BRANCH   1   9
ATOM      8  C   UNL     1       6.012   5.571  17.352  0.00  0.00    +0.000 C 
ATOM      9  C   UNL     1       5.036   4.728  16.984  0.00  0.00    +0.000 C 
BRANCH   8  11
ATOM     10  O   UNL     1       7.736   7.023  16.550  0.00  0.00    +0.000 OA
ATOM     11  C   UNL     1       7.025   6.039  16.380  0.00  0.00    +0.000 C 
ATOM     12  N   UNL     1       7.096   5.250  15.262  0.00  0.00    +0.000 N 
ATOM     13  H   UNL     1       6.558   4.407  15.101  0.00  0.00    +0.000 HD
BRANCH  12  14
ATOM     14  O   UNL     1       8.050   5.603  14.284  0.00  0.00    +0.000 OA
ATOM     15  H   UNL     1       7.703   6.460  13.957  0.00  0.00    +0.000 HD
ENDBRANCH  12  14
ENDBRANCH   8  11
ENDBRANCH   1   9
BRANCH   7  16
ATOM     16  O   UNL     1       5.484   3.023  19.330  0.00  0.00    +0.000 OA
ATOM     17  H   UNL     1       5.551   2.060  19.230  0.00  0.00    +0.000 HD
ENDBRANCH   7  16
TORSDOF 4
ENDMDL
