MODEL 1
REMARK VINA RESULT:      -6.1      0.000      0.000
REMARK  Name = 
REMARK  15 active torsions:
REMARK  status: ('A' for Active; 'I' for Inactive)
REMARK    1  A    between atoms: C_1  and  C_2
REMARK    2  A    between atoms: C_2  and  C_3
REMARK    3  A    between atoms: C_3  and  C_4
REMARK    4  A    between atoms: C_3  and  O_6
REMARK    5  A    between atoms: C_4  and  C_5
REMARK    6  A    between atoms: O_6  and  C_7
REMARK    7  A    between atoms: C_9  and  C_10
REMARK    8  A    between atoms: C_12  and  O_13
REMARK    9  A    between atoms: O_13  and  C_14
REMARK   10  A    between atoms: C_15  and  C_16
REMARK   11  A    between atoms: C_18  and  C_19
REMARK   12  A    between atoms: C_21  and  C_22
REMARK   13  A    between atoms: C_23  and  C_24
REMARK   14  A    between atoms: C_24  and  O_26
REMARK   15  A    between atoms: O_26  and  C_27
REMARK                            x       y       z     vdW  Elec       q    Type
REMARK                         _______ _______ _______ _____ _____    ______ ____
ROOT
ATOM      1  C   UNL     1      -2.495  12.306  20.240  0.00  0.00    +0.000 A 
ATOM      2  C   UNL     1      -3.019  11.853  19.025  0.00  0.00    +0.000 A 
ATOM      3  C   UNL     1      -2.353  10.880  18.305  0.00  0.00    +0.000 A 
ATOM      4  C   UNL     1      -2.838  10.485  16.944  0.00  0.00    +0.000 C 
ATOM      5  N   UNL     1      -1.182  10.363  18.720  0.00  0.00    +0.000 NA
ATOM      6  C   UNL     1      -0.585  10.912  19.814  0.00  0.00    +0.000 A 
ATOM      7  C   UNL     1      -1.216  11.856  20.631  0.00  0.00    +0.000 A 
ENDROOT
BRANCH   7   8
ATOM      8  C   UNL     1      -0.501  12.514  21.752  0.00  0.00    +0.000 C 
ATOM      9  O   UNL     1      -0.443  12.053  22.879  0.00  0.00    +0.000 OA
BRANCH   8  10
ATOM     10  O   UNL     1       0.066  13.682  21.350  0.00  0.00    +0.000 OA
ATOM     11  C   UNL     1      -0.086  14.797  22.240  0.00  0.00    +0.000 C 
ENDBRANCH   8  10
ENDBRANCH   7   8
BRANCH   1  12
ATOM     12  O   UNL     1      -3.167  13.190  21.051  0.00  0.00    +0.000 OA
BRANCH  12  13
ATOM     13  C   UNL     1      -4.098  12.682  22.028  0.00  0.00    +0.000 C 
BRANCH  13  15
ATOM     14  C   UNL     1      -4.360  12.446  24.561  0.00  0.00    +0.000 C 
ATOM     15  C   UNL     1      -3.653  13.167  23.420  0.00  0.00    +0.000 C 
ENDBRANCH  13  15
BRANCH  13  16
ATOM     16  C   UNL     1      -5.538  13.071  21.646  0.00  0.00    +0.000 C 
ATOM     17  C   UNL     1      -6.262  12.051  20.778  0.00  0.00    +0.000 C 
ENDBRANCH  13  16
ENDBRANCH  12  13
ENDBRANCH   1  12
BRANCH   6  18
ATOM     18  O   UNL     1       0.765  10.623  20.013  0.00  0.00    +0.000 OA
BRANCH  18  19
ATOM     19  C   UNL     1       1.150   9.290  20.053  0.00  0.00    +0.000 A 
ATOM     20  C   UNL     1       0.826   8.417  21.113  0.00  0.00    +0.000 A 
ATOM     21  C   UNL     1       0.012   8.799  22.320  0.00  0.00    +0.000 C 
ATOM     22  C   UNL     1       1.319   7.100  21.092  0.00  0.00    +0.000 A 
ATOM     23  C   UNL     1       2.056   6.613  20.012  0.00  0.00    +0.000 A 
ATOM     24  C   UNL     1       2.580   5.207  20.017  0.00  0.00    +0.000 C 
ATOM     25  C   UNL     1       2.278   7.452  18.919  0.00  0.00    +0.000 A 
ATOM     26  C   UNL     1       1.830   8.786  18.921  0.00  0.00    +0.000 A 
ATOM     27  C   UNL     1       2.108   9.642  17.716  0.00  0.00    +0.000 C 
ENDBRANCH  18  19
ENDBRANCH   6  18
TORSDOF 8
ENDMDL
MODEL 2
REMARK VINA RESULT:      -5.9      2.055      7.207
REMARK  Name = 
REMARK  15 active torsions:
REMARK  status: ('A' for Active; 'I' for Inactive)
REMARK    1  A    between atoms: C_1  and  C_2
REMARK    2  A    between atoms: C_2  and  C_3
REMARK    3  A    between atoms: C_3  and  C_4
REMARK    4  A    between atoms: C_3  and  O_6
REMARK    5  A    between atoms: C_4  and  C_5
REMARK    6  A    between atoms: O_6  and  C_7
REMARK    7  A    between atoms: C_9  and  C_10
REMARK    8  A    between atoms: C_12  and  O_13
REMARK    9  A    between atoms: O_13  and  C_14
REMARK   10  A    between atoms: C_15  and  C_16
REMARK   11  A    between atoms: C_18  and  C_19
REMARK   12  A    between atoms: C_21  and  C_22
REMARK   13  A    between atoms: C_23  and  C_24
REMARK   14  A    between atoms: C_24  and  O_26
REMARK   15  A    between atoms: O_26  and  C_27
REMARK                            x       y       z     vdW  Elec       q    Type
REMARK                         _______ _______ _______ _____ _____    ______ ____
ROOT
ATOM      1  C   UNL     1       1.555   8.443  20.357  0.00  0.00    +0.000 A 
ATOM      2  C   UNL     1       1.121   8.455  21.686  0.00  0.00    +0.000 A 
ATOM      3  C   UNL     1       0.063   9.261  22.061  0.00  0.00    +0.000 A 
ATOM      4  C   UNL     1      -0.321   9.377  23.504  0.00  0.00    +0.000 C 
ATOM      5  N   UNL     1      -0.558  10.074  21.187  0.00  0.00    +0.000 NA
ATOM      6  C   UNL     1      -0.041  10.189  19.932  0.00  0.00    +0.000 A 
ATOM      7  C   UNL     1       0.988   9.369  19.456  0.00  0.00    +0.000 A 
ENDROOT
BRANCH   7   8
ATOM      8  C   UNL     1       1.603   9.590  18.123  0.00  0.00    +0.000 C 
ATOM      9  O   UNL     1       1.197   9.071  17.099  0.00  0.00    +0.000 OA
BRANCH   8  10
ATOM     10  O   UNL     1       2.663  10.435  18.210  0.00  0.00    +0.000 OA
ATOM     11  C   UNL     1       2.416  11.799  17.838  0.00  0.00    +0.000 C 
ENDBRANCH   8  10
ENDBRANCH   7   8
BRANCH   1  12
ATOM     12  O   UNL     1       2.526   7.582  19.905  0.00  0.00    +0.000 OA
BRANCH  12  13
ATOM     13  C   UNL     1       2.138   6.305  19.357  0.00  0.00    +0.000 C 
BRANCH  13  15
ATOM     14  C   UNL     1       3.438   4.680  17.871  0.00  0.00    +0.000 C 
ATOM     15  C   UNL     1       2.895   6.095  18.034  0.00  0.00    +0.000 C 
ENDBRANCH  13  15
BRANCH  13  16
ATOM     16  C   UNL     1       2.351   5.191  20.399  0.00  0.00    +0.000 C 
ATOM     17  C   UNL     1       1.150   4.279  20.606  0.00  0.00    +0.000 C 
ENDBRANCH  13  16
ENDBRANCH  12  13
ENDBRANCH   1  12
BRANCH   6  18
ATOM     18  O   UNL     1      -0.460  11.280  19.170  0.00  0.00    +0.000 OA
BRANCH  18  19
ATOM     19  C   UNL     1      -1.811  11.595  19.169  0.00  0.00    +0.000 A 
ATOM     20  C   UNL     1      -2.388  12.554  20.030  0.00  0.00    +0.000 A 
ATOM     21  C   UNL     1      -1.624  13.370  21.038  0.00  0.00    +0.000 C 
ATOM     22  C   UNL     1      -3.780  12.754  19.998  0.00  0.00    +0.000 A 
ATOM     23  C   UNL     1      -4.594  12.086  19.084  0.00  0.00    +0.000 A 
ATOM     24  C   UNL     1      -6.077  12.309  19.076  0.00  0.00    +0.000 C 
ATOM     25  C   UNL     1      -3.999  11.220  18.164  0.00  0.00    +0.000 A 
ATOM     26  C   UNL     1      -2.614  10.968  18.190  0.00  0.00    +0.000 A 
ATOM     27  C   UNL     1      -2.035  10.020  17.177  0.00  0.00    +0.000 C 
ENDBRANCH  18  19
ENDBRANCH   6  18
TORSDOF 8
ENDMDL
MODEL 3
REMARK VINA RESULT:      -5.8      0.887      1.225
REMARK  Name = 
REMARK  15 active torsions:
REMARK  status: ('A' for Active; 'I' for Inactive)
REMARK    1  A    between atoms: C_1  and  C_2
REMARK    2  A    between atoms: C_2  and  C_3
REMARK    3  A    between atoms: C_3  and  C_4
REMARK    4  A    between atoms: C_3  and  O_6
REMARK    5  A    between atoms: C_4  and  C_5
REMARK    6  A    between atoms: O_6  and  C_7
REMARK    7  A    between atoms: C_9  and  C_10
REMARK    8  A    between atoms: C_12  and  O_13
REMARK    9  A    between atoms: O_13  and  C_14
REMARK   10  A    between atoms: C_15  and  C_16
REMARK   11  A    between atoms: C_18  and  C_19
REMARK   12  A    between atoms: C_21  and  C_22
REMARK   13  A    between atoms: C_23  and  C_24
REMARK   14  A    between atoms: C_24  and  O_26
REMARK   15  A    between atoms: O_26  and  C_27
REMARK                            x       y       z     vdW  Elec       q    Type
REMARK                         _______ _______ _______ _____ _____    ______ ____
ROOT
ATOM      1  C   UNL     1      -2.849  12.219  19.616  0.00  0.00    +0.000 A 
ATOM      2  C   UNL     1      -3.234  11.564  18.443  0.00  0.00    +0.000 A 
ATOM      3  C   UNL     1      -2.464  10.530  17.944  0.00  0.00    +0.000 A 
ATOM      4  C   UNL     1      -2.799   9.913  16.621  0.00  0.00    +0.000 C 
ATOM      5  N   UNL     1      -1.321  10.142  18.538  0.00  0.00    +0.000 NA
ATOM      6  C   UNL     1      -0.855  10.878  19.585  0.00  0.00    +0.000 A 
ATOM      7  C   UNL     1      -1.598  11.899  20.187  0.00  0.00    +0.000 A 
ENDROOT
BRANCH   7   8
ATOM      8  C   UNL     1      -1.021  12.753  21.255  0.00  0.00    +0.000 C 
ATOM      9  O   UNL     1      -0.761  13.934  21.107  0.00  0.00    +0.000 OA
BRANCH   8  10
ATOM     10  O   UNL     1      -0.826  12.041  22.396  0.00  0.00    +0.000 OA
ATOM     11  C   UNL     1      -1.988  11.819  23.208  0.00  0.00    +0.000 C 
ENDBRANCH   8  10
ENDBRANCH   7   8
BRANCH   1  12
ATOM     12  O   UNL     1      -3.630  13.178  20.217  0.00  0.00    +0.000 OA
BRANCH  12  13
ATOM     13  C   UNL     1      -4.759  12.768  21.016  0.00  0.00    +0.000 C 
BRANCH  13  15
ATOM     14  C   UNL     1      -5.530  13.070  23.435  0.00  0.00    +0.000 C 
ATOM     15  C   UNL     1      -4.868  13.716  22.224  0.00  0.00    +0.000 C 
ENDBRANCH  13  15
BRANCH  13  16
ATOM     16  C   UNL     1      -6.028  12.693  20.146  0.00  0.00    +0.000 C 
ATOM     17  C   UNL     1      -6.740  11.348  20.177  0.00  0.00    +0.000 C 
ENDBRANCH  13  16
ENDBRANCH  12  13
ENDBRANCH   1  12
BRANCH   6  18
ATOM     18  O   UNL     1       0.479  10.692  19.948  0.00  0.00    +0.000 OA
BRANCH  18  19
ATOM     19  C   UNL     1       0.971   9.396  19.987  0.00  0.00    +0.000 A 
ATOM     20  C   UNL     1       0.656   8.473  21.007  0.00  0.00    +0.000 A 
ATOM     21  C   UNL     1      -0.262   8.756  22.166  0.00  0.00    +0.000 C 
ATOM     22  C   UNL     1       1.260   7.202  20.993  0.00  0.00    +0.000 A 
ATOM     23  C   UNL     1       2.102   6.805  19.954  0.00  0.00    +0.000 A 
ATOM     24  C   UNL     1       2.741   5.448  19.966  0.00  0.00    +0.000 C 
ATOM     25  C   UNL     1       2.321   7.686  18.893  0.00  0.00    +0.000 A 
ATOM     26  C   UNL     1       1.762   8.978  18.893  0.00  0.00    +0.000 A 
ATOM     27  C   UNL     1       2.042   9.883  17.725  0.00  0.00    +0.000 C 
ENDBRANCH  18  19
ENDBRANCH   6  18
TORSDOF 8
ENDMDL
MODEL 4
REMARK VINA RESULT:      -5.8      0.589      1.789
REMARK  Name = 
REMARK  15 active torsions:
REMARK  status: ('A' for Active; 'I' for Inactive)
REMARK    1  A    between atoms: C_1  and  C_2
REMARK    2  A    between atoms: C_2  and  C_3
REMARK    3  A    between atoms: C_3  and  C_4
REMARK    4  A    between atoms: C_3  and  O_6
REMARK    5  A    between atoms: C_4  and  C_5
REMARK    6  A    between atoms: O_6  and  C_7
REMARK    7  A    between atoms: C_9  and  C_10
REMARK    8  A    between atoms: C_12  and  O_13
REMARK    9  A    between atoms: O_13  and  C_14
REMARK   10  A    between atoms: C_15  and  C_16
REMARK   11  A    between atoms: C_18  and  C_19
REMARK   12  A    between atoms: C_21  and  C_22
REMARK   13  A    between atoms: C_23  and  C_24
REMARK   14  A    between atoms: C_24  and  O_26
REMARK   15  A    between atoms: O_26  and  C_27
REMARK                            x       y       z     vdW  Elec       q    Type
REMARK                         _______ _______ _______ _____ _____    ______ ____
ROOT
ATOM      1  C   UNL     1      -2.778  12.339  19.853  0.00  0.00    +0.000 A 
ATOM      2  C   UNL     1      -3.179  11.718  18.667  0.00  0.00    +0.000 A 
ATOM      3  C   UNL     1      -2.420  10.695  18.130  0.00  0.00    +0.000 A 
ATOM      4  C   UNL     1      -2.772  10.116  16.795  0.00  0.00    +0.000 C 
ATOM      5  N   UNL     1      -1.271  10.287  18.700  0.00  0.00    +0.000 NA
ATOM      6  C   UNL     1      -0.790  10.992  19.762  0.00  0.00    +0.000 A 
ATOM      7  C   UNL     1      -1.522  11.999  20.400  0.00  0.00    +0.000 A 
ENDROOT
BRANCH   7   8
ATOM      8  C   UNL     1      -0.929  12.821  21.484  0.00  0.00    +0.000 C 
ATOM      9  O   UNL     1      -1.014  12.540  22.666  0.00  0.00    +0.000 OA
BRANCH   8  10
ATOM     10  O   UNL     1      -0.294  13.910  20.978  0.00  0.00    +0.000 OA
ATOM     11  C   UNL     1       0.725  14.488  21.806  0.00  0.00    +0.000 C 
ENDBRANCH   8  10
ENDBRANCH   7   8
BRANCH   1  12
ATOM     12  O   UNL     1      -3.548  13.283  20.490  0.00  0.00    +0.000 OA
BRANCH  12  13
ATOM     13  C   UNL     1      -4.711  12.862  21.231  0.00  0.00    +0.000 C 
BRANCH  13  15
ATOM     14  C   UNL     1      -4.191  12.687  23.729  0.00  0.00    +0.000 C 
ATOM     15  C   UNL     1      -4.699  13.571  22.597  0.00  0.00    +0.000 C 
ENDBRANCH  13  15
BRANCH  13  16
ATOM     16  C   UNL     1      -5.986  13.096  20.400  0.00  0.00    +0.000 C 
ATOM     17  C   UNL     1      -7.059  12.029  20.571  0.00  0.00    +0.000 C 
ENDBRANCH  13  16
ENDBRANCH  12  13
ENDBRANCH   1  12
BRANCH   6  18
ATOM     18  O   UNL     1       0.547  10.791  20.104  0.00  0.00    +0.000 OA
BRANCH  18  19
ATOM     19  C   UNL     1       1.046   9.497  20.059  0.00  0.00    +0.000 A 
ATOM     20  C   UNL     1       1.769   8.979  18.963  0.00  0.00    +0.000 A 
ATOM     21  C   UNL     1       2.113   9.753  17.719  0.00  0.00    +0.000 C 
ATOM     22  C   UNL     1       2.175   7.632  18.985  0.00  0.00    +0.000 A 
ATOM     23  C   UNL     1       1.949   6.819  20.095  0.00  0.00    +0.000 A 
ATOM     24  C   UNL     1       2.383   5.383  20.092  0.00  0.00    +0.000 C 
ATOM     25  C   UNL     1       1.329   7.372  21.218  0.00  0.00    +0.000 A 
ATOM     26  C   UNL     1       0.878   8.705  21.217  0.00  0.00    +0.000 A 
ATOM     27  C   UNL     1       0.211   9.240  22.454  0.00  0.00    +0.000 C 
ENDBRANCH  18  19
ENDBRANCH   6  18
TORSDOF 8
ENDMDL
MODEL 5
REMARK VINA RESULT:      -5.8      1.218      2.631
REMARK  Name = 
REMARK  15 active torsions:
REMARK  status: ('A' for Active; 'I' for Inactive)
REMARK    1  A    between atoms: C_1  and  C_2
REMARK    2  A    between atoms: C_2  and  C_3
REMARK    3  A    between atoms: C_3  and  C_4
REMARK    4  A    between atoms: C_3  and  O_6
REMARK    5  A    between atoms: C_4  and  C_5
REMARK    6  A    between atoms: O_6  and  C_7
REMARK    7  A    between atoms: C_9  and  C_10
REMARK    8  A    between atoms: C_12  and  O_13
REMARK    9  A    between atoms: O_13  and  C_14
REMARK   10  A    between atoms: C_15  and  C_16
REMARK   11  A    between atoms: C_18  and  C_19
REMARK   12  A    between atoms: C_21  and  C_22
REMARK   13  A    between atoms: C_23  and  C_24
REMARK   14  A    between atoms: C_24  and  O_26
REMARK   15  A    between atoms: O_26  and  C_27
REMARK                            x       y       z     vdW  Elec       q    Type
REMARK                         _______ _______ _______ _____ _____    ______ ____
ROOT
ATOM      1  C   UNL     1      -3.316  12.223  19.462  0.00  0.00    +0.000 A 
ATOM      2  C   UNL     1      -3.542  11.523  18.273  0.00  0.00    +0.000 A 
ATOM      3  C   UNL     1      -2.664  10.531  17.877  0.00  0.00    +0.000 A 
ATOM      4  C   UNL     1      -2.828   9.870  16.543  0.00  0.00    +0.000 C 
ATOM      5  N   UNL     1      -1.564  10.228  18.589  0.00  0.00    +0.000 NA
ATOM      6  C   UNL     1      -1.250  11.011  19.659  0.00  0.00    +0.000 A 
ATOM      7  C   UNL     1      -2.111  11.993  20.160  0.00  0.00    +0.000 A 
ENDROOT
BRANCH   7   8
ATOM      8  C   UNL     1      -1.696  12.901  21.258  0.00  0.00    +0.000 C 
ATOM      9  O   UNL     1      -1.294  14.037  21.078  0.00  0.00    +0.000 OA
BRANCH   8  10
ATOM     10  O   UNL     1      -1.825  12.294  22.467  0.00  0.00    +0.000 OA
ATOM     11  C   UNL     1      -3.067  12.509  23.152  0.00  0.00    +0.000 C 
ENDBRANCH   8  10
ENDBRANCH   7   8
BRANCH   1  12
ATOM     12  O   UNL     1      -4.210  13.140  19.961  0.00  0.00    +0.000 OA
BRANCH  12  13
ATOM     13  C   UNL     1      -5.622  12.935  19.750  0.00  0.00    +0.000 C 
BRANCH  13  15
ATOM     14  C   UNL     1      -7.279  11.115  20.447  0.00  0.00    +0.000 C 
ATOM     15  C   UNL     1      -6.160  12.051  20.890  0.00  0.00    +0.000 C 
ENDBRANCH  13  15
BRANCH  13  16
ATOM     16  C   UNL     1      -6.341  14.289  19.598  0.00  0.00    +0.000 C 
ATOM     17  C   UNL     1      -6.715  14.651  18.168  0.00  0.00    +0.000 C 
ENDBRANCH  13  16
ENDBRANCH  12  13
ENDBRANCH   1  12
BRANCH   6  18
ATOM     18  O   UNL     1       0.050  10.918  20.154  0.00  0.00    +0.000 OA
BRANCH  18  19
ATOM     19  C   UNL     1       0.692   9.689  20.080  0.00  0.00    +0.000 A 
ATOM     20  C   UNL     1       1.531   9.313  19.009  0.00  0.00    +0.000 A 
ATOM     21  C   UNL     1       1.861  10.187  17.829  0.00  0.00    +0.000 C 
ATOM     22  C   UNL     1       2.082   8.019  18.993  0.00  0.00    +0.000 A 
ATOM     23  C   UNL     1       1.882   7.125  20.046  0.00  0.00    +0.000 A 
ATOM     24  C   UNL     1       2.472   5.747  20.001  0.00  0.00    +0.000 C 
ATOM     25  C   UNL     1       1.139   7.546  21.151  0.00  0.00    +0.000 A 
ATOM     26  C   UNL     1       0.543   8.821  21.185  0.00  0.00    +0.000 A 
ATOM     27  C   UNL     1      -0.251   9.212  22.400  0.00  0.00    +0.000 C 
ENDBRANCH  18  19
ENDBRANCH   6  18
TORSDOF 8
ENDMDL
MODEL 6
REMARK VINA RESULT:      -5.7      0.811      1.034
REMARK  Name = 
REMARK  15 active torsions:
REMARK  status: ('A' for Active; 'I' for Inactive)
REMARK    1  A    between atoms: C_1  and  C_2
REMARK    2  A    between atoms: C_2  and  C_3
REMARK    3  A    between atoms: C_3  and  C_4
REMARK    4  A    between atoms: C_3  and  O_6
REMARK    5  A    between atoms: C_4  and  C_5
REMARK    6  A    between atoms: O_6  and  C_7
REMARK    7  A    between atoms: C_9  and  C_10
REMARK    8  A    between atoms: C_12  and  O_13
REMARK    9  A    between atoms: O_13  and  C_14
REMARK   10  A    between atoms: C_15  and  C_16
REMARK   11  A    between atoms: C_18  and  C_19
REMARK   12  A    between atoms: C_21  and  C_22
REMARK   13  A    between atoms: C_23  and  C_24
REMARK   14  A    between atoms: C_24  and  O_26
REMARK   15  A    between atoms: O_26  and  C_27
REMARK                            x       y       z     vdW  Elec       q    Type
REMARK                         _______ _______ _______ _____ _____    ______ ____
ROOT
ATOM      1  C   UNL     1      -2.479  12.281  19.820  0.00  0.00    +0.000 A 
ATOM      2  C   UNL     1      -3.011  11.656  18.689  0.00  0.00    +0.000 A 
ATOM      3  C   UNL     1      -2.352  10.584  18.117  0.00  0.00    +0.000 A 
ATOM      4  C   UNL     1      -2.847   9.995  16.831  0.00  0.00    +0.000 C 
ATOM      5  N   UNL     1      -1.181  10.129  18.597  0.00  0.00    +0.000 NA
ATOM      6  C   UNL     1      -0.576  10.831  19.595  0.00  0.00    +0.000 A 
ATOM      7  C   UNL     1      -1.200  11.888  20.267  0.00  0.00    +0.000 A 
ENDROOT
BRANCH   7   8
ATOM      8  C   UNL     1      -0.475  12.702  21.275  0.00  0.00    +0.000 C 
ATOM      9  O   UNL     1      -0.386  12.395  22.451  0.00  0.00    +0.000 OA
BRANCH   8  10
ATOM     10  O   UNL     1       0.059  13.816  20.710  0.00  0.00    +0.000 OA
ATOM     11  C   UNL     1       1.492  13.884  20.681  0.00  0.00    +0.000 C 
ENDBRANCH   8  10
ENDBRANCH   7   8
BRANCH   1  12
ATOM     12  O   UNL     1      -3.144  13.277  20.496  0.00  0.00    +0.000 OA
BRANCH  12  13
ATOM     13  C   UNL     1      -3.945  12.936  21.645  0.00  0.00    +0.000 C 
BRANCH  13  15
ATOM     14  C   UNL     1      -2.893  15.194  22.226  0.00  0.00    +0.000 C 
ATOM     15  C   UNL     1      -3.808  14.064  22.684  0.00  0.00    +0.000 C 
ENDBRANCH  13  15
BRANCH  13  16
ATOM     16  C   UNL     1      -5.393  12.635  21.216  0.00  0.00    +0.000 C 
ATOM     17  C   UNL     1      -6.356  13.804  21.368  0.00  0.00    +0.000 C 
ENDBRANCH  13  16
ENDBRANCH  12  13
ENDBRANCH   1  12
BRANCH   6  18
ATOM     18  O   UNL     1       0.775  10.570  19.828  0.00  0.00    +0.000 OA
BRANCH  18  19
ATOM     19  C   UNL     1       1.168   9.247  19.974  0.00  0.00    +0.000 A 
ATOM     20  C   UNL     1       0.807   8.444  21.077  0.00  0.00    +0.000 A 
ATOM     21  C   UNL     1      -0.062   8.898  22.220  0.00  0.00    +0.000 C 
ATOM     22  C   UNL     1       1.312   7.135  21.167  0.00  0.00    +0.000 A 
ATOM     23  C   UNL     1       2.098   6.583  20.154  0.00  0.00    +0.000 A 
ATOM     24  C   UNL     1       2.634   5.188  20.277  0.00  0.00    +0.000 C 
ATOM     25  C   UNL     1       2.361   7.349  19.017  0.00  0.00    +0.000 A 
ATOM     26  C   UNL     1       1.901   8.675  18.909  0.00  0.00    +0.000 A 
ATOM     27  C   UNL     1       2.223   9.451  17.662  0.00  0.00    +0.000 C 
ENDBRANCH  18  19
ENDBRANCH   6  18
TORSDOF 8
ENDMDL
MODEL 7
REMARK VINA RESULT:      -5.7      2.026      7.279
REMARK  Name = 
REMARK  15 active torsions:
REMARK  status: ('A' for Active; 'I' for Inactive)
REMARK    1  A    between atoms: C_1  and  C_2
REMARK    2  A    between atoms: C_2  and  C_3
REMARK    3  A    between atoms: C_3  and  C_4
REMARK    4  A    between atoms: C_3  and  O_6
REMARK    5  A    between atoms: C_4  and  C_5
REMARK    6  A    between atoms: O_6  and  C_7
REMARK    7  A    between atoms: C_9  and  C_10
REMARK    8  A    between atoms: C_12  and  O_13
REMARK    9  A    between atoms: O_13  and  C_14
REMARK   10  A    between atoms: C_15  and  C_16
REMARK   11  A    between atoms: C_18  and  C_19
REMARK   12  A    between atoms: C_21  and  C_22
REMARK   13  A    between atoms: C_23  and  C_24
REMARK   14  A    between atoms: C_24  and  O_26
REMARK   15  A    between atoms: O_26  and  C_27
REMARK                            x       y       z     vdW  Elec       q    Type
REMARK                         _______ _______ _______ _____ _____    ______ ____
ROOT
ATOM      1  C   UNL     1       1.459   8.489  20.399  0.00  0.00    +0.000 A 
ATOM      2  C   UNL     1       1.096   8.523  21.749  0.00  0.00    +0.000 A 
ATOM      3  C   UNL     1       0.088   9.369  22.172  0.00  0.00    +0.000 A 
ATOM      4  C   UNL     1      -0.216   9.506  23.633  0.00  0.00    +0.000 C 
ATOM      5  N   UNL     1      -0.548  10.200  21.326  0.00  0.00    +0.000 NA
ATOM      6  C   UNL     1      -0.091  10.291  20.046  0.00  0.00    +0.000 A 
ATOM      7  C   UNL     1       0.881   9.431  19.522  0.00  0.00    +0.000 A 
ENDROOT
BRANCH   7   8
ATOM      8  C   UNL     1       1.434   9.624  18.159  0.00  0.00    +0.000 C 
ATOM      9  O   UNL     1       0.943   9.136  17.157  0.00  0.00    +0.000 OA
BRANCH   8  10
ATOM     10  O   UNL     1       2.545  10.406  18.190  0.00  0.00    +0.000 OA
ATOM     11  C   UNL     1       2.349  11.795  17.888  0.00  0.00    +0.000 C 
ENDBRANCH   8  10
ENDBRANCH   7   8
BRANCH   1  12
ATOM     12  O   UNL     1       2.374   7.591  19.903  0.00  0.00    +0.000 OA
BRANCH  12  13
ATOM     13  C   UNL     1       1.924   6.291  19.472  0.00  0.00    +0.000 C 
BRANCH  13  15
ATOM     14  C   UNL     1       4.128   6.095  18.189  0.00  0.00    +0.000 C 
ATOM     15  C   UNL     1       2.611   5.958  18.136  0.00  0.00    +0.000 C 
ENDBRANCH  13  15
BRANCH  13  16
ATOM     16  C   UNL     1       2.154   5.251  20.585  0.00  0.00    +0.000 C 
ATOM     17  C   UNL     1       1.248   4.030  20.510  0.00  0.00    +0.000 C 
ENDBRANCH  13  16
ENDBRANCH  12  13
ENDBRANCH   1  12
BRANCH   6  18
ATOM     18  O   UNL     1      -0.509  11.393  19.299  0.00  0.00    +0.000 OA
BRANCH  18  19
ATOM     19  C   UNL     1      -1.872  11.627  19.187  0.00  0.00    +0.000 A 
ATOM     20  C   UNL     1      -2.707  10.945  18.275  0.00  0.00    +0.000 A 
ATOM     21  C   UNL     1      -2.244   9.870  17.328  0.00  0.00    +0.000 C 
ATOM     22  C   UNL     1      -4.065  11.301  18.190  0.00  0.00    +0.000 A 
ATOM     23  C   UNL     1      -4.624  12.257  19.038  0.00  0.00    +0.000 A 
ATOM     24  C   UNL     1      -6.073  12.627  18.922  0.00  0.00    +0.000 C 
ATOM     25  C   UNL     1      -3.814  12.848  20.010  0.00  0.00    +0.000 A 
ATOM     26  C   UNL     1      -2.443  12.542  20.100  0.00  0.00    +0.000 A 
ATOM     27  C   UNL     1      -1.622  13.217  21.163  0.00  0.00    +0.000 C 
ENDBRANCH  18  19
ENDBRANCH   6  18
TORSDOF 8
ENDMDL
MODEL 8
REMARK VINA RESULT:      -5.6      0.959      1.240
REMARK  Name = 
REMARK  15 active torsions:
REMARK  status: ('A' for Active; 'I' for Inactive)
REMARK    1  A    between atoms: C_1  and  C_2
REMARK    2  A    between atoms: C_2  and  C_3
REMARK    3  A    between atoms: C_3  and  C_4
REMARK    4  A    between atoms: C_3  and  O_6
REMARK    5  A    between atoms: C_4  and  C_5
REMARK    6  A    between atoms: O_6  and  C_7
REMARK    7  A    between atoms: C_9  and  C_10
REMARK    8  A    between atoms: C_12  and  O_13
REMARK    9  A    between atoms: O_13  and  C_14
REMARK   10  A    between atoms: C_15  and  C_16
REMARK   11  A    between atoms: C_18  and  C_19
REMARK   12  A    between atoms: C_21  and  C_22
REMARK   13  A    between atoms: C_23  and  C_24
REMARK   14  A    between atoms: C_24  and  O_26
REMARK   15  A    between atoms: O_26  and  C_27
REMARK                            x       y       z     vdW  Elec       q    Type
REMARK                         _______ _______ _______ _____ _____    ______ ____
ROOT
ATOM      1  C   UNL     1      -2.971  12.129  19.545  0.00  0.00    +0.000 A 
ATOM      2  C   UNL     1      -3.342  11.504  18.351  0.00  0.00    +0.000 A 
ATOM      3  C   UNL     1      -2.540  10.517  17.809  0.00  0.00    +0.000 A 
ATOM      4  C   UNL     1      -2.864   9.937  16.466  0.00  0.00    +0.000 C 
ATOM      5  N   UNL     1      -1.378  10.150  18.379  0.00  0.00    +0.000 NA
ATOM      6  C   UNL     1      -0.930  10.863  19.450  0.00  0.00    +0.000 A 
ATOM      7  C   UNL     1      -1.705  11.834  20.095  0.00  0.00    +0.000 A 
ENDROOT
BRANCH   7   8
ATOM      8  C   UNL     1      -1.150  12.668  21.189  0.00  0.00    +0.000 C 
ATOM      9  O   UNL     1      -1.142  12.328  22.359  0.00  0.00    +0.000 OA
BRANCH   8  10
ATOM     10  O   UNL     1      -0.666  13.843  20.709  0.00  0.00    +0.000 OA
ATOM     11  C   UNL     1      -1.081  15.029  21.403  0.00  0.00    +0.000 C 
ENDBRANCH   8  10
ENDBRANCH   7   8
BRANCH   1  12
ATOM     12  O   UNL     1      -3.781  13.035  20.188  0.00  0.00    +0.000 OA
BRANCH  12  13
ATOM     13  C   UNL     1      -5.200  12.786  20.260  0.00  0.00    +0.000 C 
BRANCH  13  15
ATOM     14  C   UNL     1      -4.489  13.106  22.695  0.00  0.00    +0.000 C 
ATOM     15  C   UNL     1      -5.600  12.683  21.742  0.00  0.00    +0.000 C 
ENDBRANCH  13  15
BRANCH  13  16
ATOM     16  C   UNL     1      -5.970  13.855  19.463  0.00  0.00    +0.000 C 
ATOM     17  C   UNL     1      -5.854  15.268  20.018  0.00  0.00    +0.000 C 
ENDBRANCH  13  16
ENDBRANCH  12  13
ENDBRANCH   1  12
BRANCH   6  18
ATOM     18  O   UNL     1       0.413  10.714  19.796  0.00  0.00    +0.000 OA
BRANCH  18  19
ATOM     19  C   UNL     1       0.911   9.426  19.938  0.00  0.00    +0.000 A 
ATOM     20  C   UNL     1       0.592   8.583  21.024  0.00  0.00    +0.000 A 
ATOM     21  C   UNL     1      -0.339   8.949  22.149  0.00  0.00    +0.000 C 
ATOM     22  C   UNL     1       1.201   7.318  21.112  0.00  0.00    +0.000 A 
ATOM     23  C   UNL     1       2.055   6.847  20.114  0.00  0.00    +0.000 A 
ATOM     24  C   UNL     1       2.701   5.499  20.235  0.00  0.00    +0.000 C 
ATOM     25  C   UNL     1       2.279   7.646  18.991  0.00  0.00    +0.000 A 
ATOM     26  C   UNL     1       1.714   8.931  18.886  0.00  0.00    +0.000 A 
ATOM     27  C   UNL     1       2.000   9.745  17.655  0.00  0.00    +0.000 C 
ENDBRANCH  18  19
ENDBRANCH   6  18
TORSDOF 8
ENDMDL
MODEL 9
REMARK VINA RESULT:      -5.6      1.677      6.496
REMARK  Name = 
REMARK  15 active torsions:
REMARK  status: ('A' for Active; 'I' for Inactive)
REMARK    1  A    between atoms: C_1  and  C_2
REMARK    2  A    between atoms: C_2  and  C_3
REMARK    3  A    between atoms: C_3  and  C_4
REMARK    4  A    between atoms: C_3  and  O_6
REMARK    5  A    between atoms: C_4  and  C_5
REMARK    6  A    between atoms: O_6  and  C_7
REMARK    7  A    between atoms: C_9  and  C_10
REMARK    8  A    between atoms: C_12  and  O_13
REMARK    9  A    between atoms: O_13  and  C_14
REMARK   10  A    between atoms: C_15  and  C_16
REMARK   11  A    between atoms: C_18  and  C_19
REMARK   12  A    between atoms: C_21  and  C_22
REMARK   13  A    between atoms: C_23  and  C_24
REMARK   14  A    between atoms: C_24  and  O_26
REMARK   15  A    between atoms: O_26  and  C_27
REMARK                            x       y       z     vdW  Elec       q    Type
REMARK                         _______ _______ _______ _____ _____    ______ ____
ROOT
ATOM      1  C   UNL     1       0.014  10.881  18.729  0.00  0.00    +0.000 A 
ATOM      2  C   UNL     1      -1.189  10.436  18.174  0.00  0.00    +0.000 A 
ATOM      3  C   UNL     1      -2.353  11.151  18.385  0.00  0.00    +0.000 A 
ATOM      4  C   UNL     1      -3.666  10.610  17.904  0.00  0.00    +0.000 C 
ATOM      5  N   UNL     1      -2.381  12.262  19.143  0.00  0.00    +0.000 NA
ATOM      6  C   UNL     1      -1.250  12.611  19.818  0.00  0.00    +0.000 A 
ATOM      7  C   UNL     1      -0.018  11.979  19.616  0.00  0.00    +0.000 A 
ENDROOT
BRANCH   7   8
ATOM      8  C   UNL     1       1.168  12.310  20.444  0.00  0.00    +0.000 C 
ATOM      9  O   UNL     1       1.451  11.732  21.478  0.00  0.00    +0.000 OA
BRANCH   8  10
ATOM     10  O   UNL     1       1.876  13.331  19.894  0.00  0.00    +0.000 OA
ATOM     11  C   UNL     1       2.119  14.461  20.745  0.00  0.00    +0.000 C 
ENDBRANCH   8  10
ENDBRANCH   7   8
BRANCH   1  12
ATOM     12  O   UNL     1       1.219  10.276  18.464  0.00  0.00    +0.000 OA
BRANCH  12  13
ATOM     13  C   UNL     1       1.358   8.857  18.680  0.00  0.00    +0.000 C 
BRANCH  13  15
ATOM     14  C   UNL     1       3.120   7.092  18.112  0.00  0.00    +0.000 C 
ATOM     15  C   UNL     1       2.326   8.297  17.622  0.00  0.00    +0.000 C 
ENDBRANCH  13  15
BRANCH  13  16
ATOM     16  C   UNL     1       1.772   8.577  20.137  0.00  0.00    +0.000 C 
ATOM     17  C   UNL     1       0.612   8.314  21.087  0.00  0.00    +0.000 C 
ENDBRANCH  13  16
ENDBRANCH  12  13
ENDBRANCH   1  12
BRANCH   6  18
ATOM     18  O   UNL     1      -1.390  13.528  20.860  0.00  0.00    +0.000 OA
BRANCH  18  19
ATOM     19  C   UNL     1      -2.462  13.372  21.728  0.00  0.00    +0.000 A 
ATOM     20  C   UNL     1      -2.524  12.367  22.717  0.00  0.00    +0.000 A 
ATOM     21  C   UNL     1      -1.441  11.355  22.980  0.00  0.00    +0.000 C 
ATOM     22  C   UNL     1      -3.684  12.250  23.504  0.00  0.00    +0.000 A 
ATOM     23  C   UNL     1      -4.743  13.150  23.383  0.00  0.00    +0.000 A 
ATOM     24  C   UNL     1      -5.974  12.999  24.226  0.00  0.00    +0.000 C 
ATOM     25  C   UNL     1      -4.627  14.205  22.476  0.00  0.00    +0.000 A 
ATOM     26  C   UNL     1      -3.496  14.333  21.648  0.00  0.00    +0.000 A 
ATOM     27  C   UNL     1      -3.433  15.487  20.686  0.00  0.00    +0.000 C 
ENDBRANCH  18  19
ENDBRANCH   6  18
TORSDOF 8
ENDMDL
