MODEL 1
REMARK VINA RESULT:      -7.4      0.000      0.000
REMARK  Name = 
REMARK  7 active torsions:
REMARK  status: ('A' for Active; 'I' for Inactive)
REMARK    1  A    between atoms: C_2  and  C_3
REMARK    2  A    between atoms: C_3  and  C_4
REMARK    3  A    between atoms: C_4  and  C_5
REMARK    4  A    between atoms: C_4  and  C_6
REMARK    5  A    between atoms: C_4  and  C_7
REMARK    6  A    between atoms: C_13  and  S_14
REMARK    7  A    between atoms: S_14  and  C_15
REMARK                            x       y       z     vdW  Elec       q    Type
REMARK                         _______ _______ _______ _____ _____    ______ ____
ROOT
ATOM      1  C   UNL     1       0.910   9.718  20.456  0.00  0.00    +0.000 A 
ATOM      2  N   UNL     1       0.800  10.727  19.604  0.00  0.00    +0.000 NA
ATOM      3  N   UNL     1       1.313  10.358  18.394  0.00  0.00    +0.000 NA
ATOM      4  C   UNL     1       1.751   9.128  18.509  0.00  0.00    +0.000 A 
ATOM      5  C   UNL     1       2.351   8.249  17.570  0.00  0.00    +0.000 A 
ATOM      6  C   UNL     1       2.751   7.026  17.964  0.00  0.00    +0.000 A 
ATOM      7  C   UNL     1       2.586   6.582  19.347  0.00  0.00    +0.000 A 
ATOM      8  C   UNL     1       1.979   7.404  20.223  0.00  0.00    +0.000 A 
ATOM      9  N   UNL     1       1.558   8.673  19.809  0.00  0.00    +0.000 N 
ENDROOT
BRANCH   1  10
ATOM     10  C   UNL     1       0.357   9.741  21.872  0.00  0.00    +0.000 C 
ATOM     11  C   UNL     1       1.514   9.427  22.861  0.00  0.00    +0.000 C 
ATOM     12  C   UNL     1      -0.697   8.634  22.077  0.00  0.00    +0.000 C 
BRANCH  10  13
ATOM     13  C   UNL     1      -0.268  11.121  22.233  0.00  0.00    +0.000 C 
BRANCH  13  15
ATOM     14  C   UNL     1      -2.463  11.968  23.131  0.00  0.00    +0.000 C 
ATOM     15  C   UNL     1      -1.470  11.070  23.140  0.00  0.00    +0.000 C 
ENDBRANCH  13  15
ENDBRANCH  10  13
ENDBRANCH   1  10
BRANCH   7  16
ATOM     16  S   UNL     1       3.072   4.979  19.782  0.00  0.00    +0.000 S 
BRANCH  16  17
ATOM     17  C   UNL     1       4.454   4.757  18.673  0.00  0.00    +0.000 A 
ATOM     18  C   UNL     1       5.719   5.242  19.035  0.00  0.00    +0.000 A 
ATOM     19  C   UNL     1       6.796   5.127  18.151  0.00  0.00    +0.000 A 
ATOM     20  C   UNL     1       6.606   4.538  16.905  0.00  0.00    +0.000 A 
ATOM     21  F   UNL     1       7.640   4.438  16.059  0.00  0.00    +0.000 F 
ATOM     22  C   UNL     1       5.360   4.061  16.523  0.00  0.00    +0.000 A 
ATOM     23  C   UNL     1       4.293   4.177  17.407  0.00  0.00    +0.000 A 
ATOM     24  F   UNL     1       3.091   3.725  17.017  0.00  0.00    +0.000 F 
ENDBRANCH  16  17
ENDBRANCH   7  16
TORSDOF 5
ENDMDL
MODEL 2
REMARK VINA RESULT:      -7.3      4.793      8.445
REMARK  Name = 
REMARK  7 active torsions:
REMARK  status: ('A' for Active; 'I' for Inactive)
REMARK    1  A    between atoms: C_2  and  C_3
REMARK    2  A    between atoms: C_3  and  C_4
REMARK    3  A    between atoms: C_4  and  C_5
REMARK    4  A    between atoms: C_4  and  C_6
REMARK    5  A    between atoms: C_4  and  C_7
REMARK    6  A    between atoms: C_13  and  S_14
REMARK    7  A    between atoms: S_14  and  C_15
REMARK                            x       y       z     vdW  Elec       q    Type
REMARK                         _______ _______ _______ _____ _____    ______ ____
ROOT
ATOM      1  C   UNL     1       6.823   4.767  15.646  0.00  0.00    +0.000 A 
ATOM      2  N   UNL     1       8.027   4.401  16.061  0.00  0.00    +0.000 NA
ATOM      3  N   UNL     1       8.050   4.381  17.427  0.00  0.00    +0.000 NA
ATOM      4  C   UNL     1       6.866   4.751  17.848  0.00  0.00    +0.000 A 
ATOM      5  C   UNL     1       6.328   4.885  19.155  0.00  0.00    +0.000 A 
ATOM      6  C   UNL     1       5.068   5.329  19.314  0.00  0.00    +0.000 A 
ATOM      7  C   UNL     1       4.237   5.683  18.166  0.00  0.00    +0.000 A 
ATOM      8  C   UNL     1       4.737   5.515  16.927  0.00  0.00    +0.000 A 
ATOM      9  N   UNL     1       6.046   5.047  16.764  0.00  0.00    +0.000 N 
ENDROOT
BRANCH   1  10
ATOM     10  C   UNL     1       6.407   4.808  14.185  0.00  0.00    +0.000 C 
ATOM     11  C   UNL     1       7.637   5.223  13.330  0.00  0.00    +0.000 C 
ATOM     12  C   UNL     1       5.330   5.885  13.941  0.00  0.00    +0.000 C 
BRANCH  10  13
ATOM     13  C   UNL     1       5.878   3.429  13.690  0.00  0.00    +0.000 C 
BRANCH  13  15
ATOM     14  C   UNL     1       4.519   3.180  11.585  0.00  0.00    +0.000 C 
ATOM     15  C   UNL     1       5.702   3.300  12.199  0.00  0.00    +0.000 C 
ENDBRANCH  13  15
ENDBRANCH  10  13
ENDBRANCH   1  10
BRANCH   7  16
ATOM     16  S   UNL     1       2.605   6.199  18.431  0.00  0.00    +0.000 S 
BRANCH  16  17
ATOM     17  C   UNL     1       2.056   4.932  19.564  0.00  0.00    +0.000 A 
ATOM     18  C   UNL     1       2.420   5.006  20.916  0.00  0.00    +0.000 A 
ATOM     19  C   UNL     1       2.045   3.990  21.802  0.00  0.00    +0.000 A 
ATOM     20  C   UNL     1       1.317   2.901  21.334  0.00  0.00    +0.000 A 
ATOM     21  F   UNL     1       0.968   1.928  22.186  0.00  0.00    +0.000 F 
ATOM     22  C   UNL     1       0.956   2.804  19.998  0.00  0.00    +0.000 A 
ATOM     23  C   UNL     1       1.330   3.817  19.122  0.00  0.00    +0.000 A 
ATOM     24  F   UNL     1       0.987   3.701  17.830  0.00  0.00    +0.000 F 
ENDBRANCH  16  17
ENDBRANCH   7  16
TORSDOF 5
ENDMDL
MODEL 3
REMARK VINA RESULT:      -7.3      3.669      7.777
REMARK  Name = 
REMARK  7 active torsions:
REMARK  status: ('A' for Active; 'I' for Inactive)
REMARK    1  A    between atoms: C_2  and  C_3
REMARK    2  A    between atoms: C_3  and  C_4
REMARK    3  A    between atoms: C_4  and  C_5
REMARK    4  A    between atoms: C_4  and  C_6
REMARK    5  A    between atoms: C_4  and  C_7
REMARK    6  A    between atoms: C_13  and  S_14
REMARK    7  A    between atoms: S_14  and  C_15
REMARK                            x       y       z     vdW  Elec       q    Type
REMARK                         _______ _______ _______ _____ _____    ______ ____
ROOT
ATOM      1  C   UNL     1       5.569   4.924  18.570  0.00  0.00    +0.000 A 
ATOM      2  N   UNL     1       5.399   3.650  18.891  0.00  0.00    +0.000 NA
ATOM      3  N   UNL     1       4.064   3.374  18.966  0.00  0.00    +0.000 NA
ATOM      4  C   UNL     1       3.416   4.483  18.707  0.00  0.00    +0.000 A 
ATOM      5  C   UNL     1       2.027   4.768  18.626  0.00  0.00    +0.000 A 
ATOM      6  C   UNL     1       1.619   6.026  18.377  0.00  0.00    +0.000 A 
ATOM      7  C   UNL     1       2.578   7.113  18.191  0.00  0.00    +0.000 A 
ATOM      8  C   UNL     1       3.894   6.830  18.229  0.00  0.00    +0.000 A 
ATOM      9  N   UNL     1       4.316   5.519  18.482  0.00  0.00    +0.000 N 
ENDROOT
BRANCH   1  10
ATOM     10  C   UNL     1       6.925   5.558  18.308  0.00  0.00    +0.000 C 
ATOM     11  C   UNL     1       7.773   4.579  17.449  0.00  0.00    +0.000 C 
ATOM     12  C   UNL     1       7.706   5.768  19.620  0.00  0.00    +0.000 C 
BRANCH  10  13
ATOM     13  C   UNL     1       6.798   6.919  17.561  0.00  0.00    +0.000 C 
BRANCH  13  15
ATOM     14  C   UNL     1       7.983   9.123  17.847  0.00  0.00    +0.000 C 
ATOM     15  C   UNL     1       8.015   7.804  17.616  0.00  0.00    +0.000 C 
ENDBRANCH  13  15
ENDBRANCH  10  13
ENDBRANCH   1  10
BRANCH   7  16
ATOM     16  S   UNL     1       1.994   8.700  17.822  0.00  0.00    +0.000 S 
BRANCH  16  17
ATOM     17  C   UNL     1       1.213   9.116  19.373  0.00  0.00    +0.000 A 
ATOM     18  C   UNL     1       1.514   8.372  20.522  0.00  0.00    +0.000 A 
ATOM     19  C   UNL     1       0.865   8.650  21.730  0.00  0.00    +0.000 A 
ATOM     20  C   UNL     1      -0.087   9.663  21.785  0.00  0.00    +0.000 A 
ATOM     21  F   UNL     1      -0.710   9.919  22.942  0.00  0.00    +0.000 F 
ATOM     22  C   UNL     1      -0.406  10.404  20.656  0.00  0.00    +0.000 A 
ATOM     23  C   UNL     1       0.242  10.124  19.458  0.00  0.00    +0.000 A 
ATOM     24  F   UNL     1      -0.089  10.840  18.372  0.00  0.00    +0.000 F 
ENDBRANCH  16  17
ENDBRANCH   7  16
TORSDOF 5
ENDMDL
MODEL 4
REMARK VINA RESULT:      -7.1      3.634      8.092
REMARK  Name = 
REMARK  7 active torsions:
REMARK  status: ('A' for Active; 'I' for Inactive)
REMARK    1  A    between atoms: C_2  and  C_3
REMARK    2  A    between atoms: C_3  and  C_4
REMARK    3  A    between atoms: C_4  and  C_5
REMARK    4  A    between atoms: C_4  and  C_6
REMARK    5  A    between atoms: C_4  and  C_7
REMARK    6  A    between atoms: C_13  and  S_14
REMARK    7  A    between atoms: S_14  and  C_15
REMARK                            x       y       z     vdW  Elec       q    Type
REMARK                         _______ _______ _______ _____ _____    ______ ____
ROOT
ATOM      1  C   UNL     1       5.626   4.939  18.653  0.00  0.00    +0.000 A 
ATOM      2  N   UNL     1       5.551   3.730  19.191  0.00  0.00    +0.000 NA
ATOM      3  N   UNL     1       4.259   3.473  19.550  0.00  0.00    +0.000 NA
ATOM      4  C   UNL     1       3.546   4.529  19.247  0.00  0.00    +0.000 A 
ATOM      5  C   UNL     1       2.159   4.801  19.377  0.00  0.00    +0.000 A 
ATOM      6  C   UNL     1       1.679   6.005  19.017  0.00  0.00    +0.000 A 
ATOM      7  C   UNL     1       2.560   7.048  18.495  0.00  0.00    +0.000 A 
ATOM      8  C   UNL     1       3.867   6.772  18.334  0.00  0.00    +0.000 A 
ATOM      9  N   UNL     1       4.363   5.515  18.705  0.00  0.00    +0.000 N 
ENDROOT
BRANCH   1  10
ATOM     10  C   UNL     1       6.895   5.522  18.053  0.00  0.00    +0.000 C 
ATOM     11  C   UNL     1       7.906   5.798  19.202  0.00  0.00    +0.000 C 
ATOM     12  C   UNL     1       6.622   6.884  17.384  0.00  0.00    +0.000 C 
BRANCH  10  13
ATOM     13  C   UNL     1       7.546   4.559  17.016  0.00  0.00    +0.000 C 
BRANCH  13  15
ATOM     14  C   UNL     1       6.062   3.896  15.093  0.00  0.00    +0.000 C 
ATOM     15  C   UNL     1       7.021   4.674  15.608  0.00  0.00    +0.000 C 
ENDBRANCH  13  15
ENDBRANCH  10  13
ENDBRANCH   1  10
BRANCH   7  16
ATOM     16  S   UNL     1       1.877   8.560  17.999  0.00  0.00    +0.000 S 
BRANCH  16  17
ATOM     17  C   UNL     1       1.169   9.107  19.545  0.00  0.00    +0.000 A 
ATOM     18  C   UNL     1       1.619   8.548  20.749  0.00  0.00    +0.000 A 
ATOM     19  C   UNL     1       1.033   8.925  21.962  0.00  0.00    +0.000 A 
ATOM     20  C   UNL     1      -0.006   9.851  21.968  0.00  0.00    +0.000 A 
ATOM     21  F   UNL     1      -0.569  10.202  23.131  0.00  0.00    +0.000 F 
ATOM     22  C   UNL     1      -0.472  10.408  20.786  0.00  0.00    +0.000 A 
ATOM     23  C   UNL     1       0.115  10.030  19.583  0.00  0.00    +0.000 A 
ATOM     24  F   UNL     1      -0.358  10.566  18.447  0.00  0.00    +0.000 F 
ENDBRANCH  16  17
ENDBRANCH   7  16
TORSDOF 5
ENDMDL
MODEL 5
REMARK VINA RESULT:      -7.1      3.621      7.974
REMARK  Name = 
REMARK  7 active torsions:
REMARK  status: ('A' for Active; 'I' for Inactive)
REMARK    1  A    between atoms: C_2  and  C_3
REMARK    2  A    between atoms: C_3  and  C_4
REMARK    3  A    between atoms: C_4  and  C_5
REMARK    4  A    between atoms: C_4  and  C_6
REMARK    5  A    between atoms: C_4  and  C_7
REMARK    6  A    between atoms: C_13  and  S_14
REMARK    7  A    between atoms: S_14  and  C_15
REMARK                            x       y       z     vdW  Elec       q    Type
REMARK                         _______ _______ _______ _____ _____    ______ ____
ROOT
ATOM      1  C   UNL     1       5.249   4.849  18.327  0.00  0.00    +0.000 A 
ATOM      2  N   UNL     1       5.306   3.747  19.059  0.00  0.00    +0.000 NA
ATOM      3  N   UNL     1       4.223   3.696  19.890  0.00  0.00    +0.000 NA
ATOM      4  C   UNL     1       3.512   4.776  19.677  0.00  0.00    +0.000 A 
ATOM      5  C   UNL     1       2.288   5.225  20.239  0.00  0.00    +0.000 A 
ATOM      6  C   UNL     1       1.780   6.414  19.865  0.00  0.00    +0.000 A 
ATOM      7  C   UNL     1       2.467   7.261  18.893  0.00  0.00    +0.000 A 
ATOM      8  C   UNL     1       3.606   6.813  18.333  0.00  0.00    +0.000 A 
ATOM      9  N   UNL     1       4.129   5.572  18.719  0.00  0.00    +0.000 N 
ENDROOT
BRANCH   1  10
ATOM     10  C   UNL     1       6.241   5.188  17.226  0.00  0.00    +0.000 C 
ATOM     11  C   UNL     1       5.715   4.604  15.886  0.00  0.00    +0.000 C 
ATOM     12  C   UNL     1       7.607   4.518  17.481  0.00  0.00    +0.000 C 
BRANCH  10  13
ATOM     13  C   UNL     1       6.442   6.725  17.074  0.00  0.00    +0.000 C 
BRANCH  13  15
ATOM     14  C   UNL     1       7.967   8.568  17.861  0.00  0.00    +0.000 C 
ATOM     15  C   UNL     1       7.728   7.269  17.640  0.00  0.00    +0.000 C 
ENDBRANCH  13  15
ENDBRANCH  10  13
ENDBRANCH   1  10
BRANCH   7  16
ATOM     16  S   UNL     1       1.739   8.757  18.413  0.00  0.00    +0.000 S 
BRANCH  16  17
ATOM     17  C   UNL     1       1.014   9.265  19.965  0.00  0.00    +0.000 A 
ATOM     18  C   UNL     1       1.583   8.831  21.170  0.00  0.00    +0.000 A 
ATOM     19  C   UNL     1       0.991   9.174  22.391  0.00  0.00    +0.000 A 
ATOM     20  C   UNL     1      -0.170   9.940  22.403  0.00  0.00    +0.000 A 
ATOM     21  F   UNL     1      -0.737  10.258  23.574  0.00  0.00    +0.000 F 
ATOM     22  C   UNL     1      -0.754  10.370  21.220  0.00  0.00    +0.000 A 
ATOM     23  C   UNL     1      -0.161  10.028  20.010  0.00  0.00    +0.000 A 
ATOM     24  F   UNL     1      -0.747  10.439  18.874  0.00  0.00    +0.000 F 
ENDBRANCH  16  17
ENDBRANCH   7  16
TORSDOF 5
ENDMDL
MODEL 6
REMARK VINA RESULT:      -7.1      4.690      9.006
REMARK  Name = 
REMARK  7 active torsions:
REMARK  status: ('A' for Active; 'I' for Inactive)
REMARK    1  A    between atoms: C_2  and  C_3
REMARK    2  A    between atoms: C_3  and  C_4
REMARK    3  A    between atoms: C_4  and  C_5
REMARK    4  A    between atoms: C_4  and  C_6
REMARK    5  A    between atoms: C_4  and  C_7
REMARK    6  A    between atoms: C_13  and  S_14
REMARK    7  A    between atoms: S_14  and  C_15
REMARK                            x       y       z     vdW  Elec       q    Type
REMARK                         _______ _______ _______ _____ _____    ______ ____
ROOT
ATOM      1  C   UNL     1       6.624   4.460  13.668  0.00  0.00    +0.000 A 
ATOM      2  N   UNL     1       7.664   5.281  13.701  0.00  0.00    +0.000 NA
ATOM      3  N   UNL     1       7.910   5.649  14.993  0.00  0.00    +0.000 NA
ATOM      4  C   UNL     1       7.012   5.068  15.749  0.00  0.00    +0.000 A 
ATOM      5  C   UNL     1       6.810   5.080  17.154  0.00  0.00    +0.000 A 
ATOM      6  C   UNL     1       5.767   4.413  17.682  0.00  0.00    +0.000 A 
ATOM      7  C   UNL     1       4.830   3.676  16.838  0.00  0.00    +0.000 A 
ATOM      8  C   UNL     1       5.049   3.634  15.510  0.00  0.00    +0.000 A 
ATOM      9  N   UNL     1       6.138   4.323  14.963  0.00  0.00    +0.000 N 
ENDROOT
BRANCH   1  10
ATOM     10  C   UNL     1       6.124   3.776  12.406  0.00  0.00    +0.000 C 
ATOM     11  C   UNL     1       6.495   2.268  12.478  0.00  0.00    +0.000 C 
ATOM     12  C   UNL     1       6.829   4.333  11.153  0.00  0.00    +0.000 C 
BRANCH  10  13
ATOM     13  C   UNL     1       4.582   3.918  12.237  0.00  0.00    +0.000 C 
BRANCH  13  15
ATOM     14  C   UNL     1       3.247   3.805  10.105  0.00  0.00    +0.000 C 
ATOM     15  C   UNL     1       3.994   3.211  11.044  0.00  0.00    +0.000 C 
ENDBRANCH  13  15
ENDBRANCH  10  13
ENDBRANCH   1  10
BRANCH   7  16
ATOM     16  S   UNL     1       3.537   2.795  17.580  0.00  0.00    +0.000 S 
BRANCH  16  17
ATOM     17  C   UNL     1       2.864   4.062  18.645  0.00  0.00    +0.000 A 
ATOM     18  C   UNL     1       2.663   5.355  18.142  0.00  0.00    +0.000 A 
ATOM     19  C   UNL     1       2.192   6.370  18.981  0.00  0.00    +0.000 A 
ATOM     20  C   UNL     1       1.932   6.093  20.319  0.00  0.00    +0.000 A 
ATOM     21  F   UNL     1       1.489   7.072  21.119  0.00  0.00    +0.000 F 
ATOM     22  C   UNL     1       2.135   4.823  20.838  0.00  0.00    +0.000 A 
ATOM     23  C   UNL     1       2.602   3.817  20.000  0.00  0.00    +0.000 A 
ATOM     24  F   UNL     1       2.808   2.597  20.520  0.00  0.00    +0.000 F 
ENDBRANCH  16  17
ENDBRANCH   7  16
TORSDOF 5
ENDMDL
MODEL 7
REMARK VINA RESULT:      -7.0      3.792      7.989
REMARK  Name = 
REMARK  7 active torsions:
REMARK  status: ('A' for Active; 'I' for Inactive)
REMARK    1  A    between atoms: C_2  and  C_3
REMARK    2  A    between atoms: C_3  and  C_4
REMARK    3  A    between atoms: C_4  and  C_5
REMARK    4  A    between atoms: C_4  and  C_6
REMARK    5  A    between atoms: C_4  and  C_7
REMARK    6  A    between atoms: C_13  and  S_14
REMARK    7  A    between atoms: S_14  and  C_15
REMARK                            x       y       z     vdW  Elec       q    Type
REMARK                         _______ _______ _______ _____ _____    ______ ____
ROOT
ATOM      1  C   UNL     1       2.931   4.243  19.305  0.00  0.00    +0.000 A 
ATOM      2  N   UNL     1       2.691   3.655  20.468  0.00  0.00    +0.000 NA
ATOM      3  N   UNL     1       2.116   4.554  21.321  0.00  0.00    +0.000 NA
ATOM      4  C   UNL     1       2.018   5.695  20.686  0.00  0.00    +0.000 A 
ATOM      5  C   UNL     1       1.484   6.951  21.078  0.00  0.00    +0.000 A 
ATOM      6  C   UNL     1       1.543   7.994  20.229  0.00  0.00    +0.000 A 
ATOM      7  C   UNL     1       2.154   7.864  18.908  0.00  0.00    +0.000 A 
ATOM      8  C   UNL     1       2.622   6.662  18.526  0.00  0.00    +0.000 A 
ATOM      9  N   UNL     1       2.553   5.577  19.408  0.00  0.00    +0.000 N 
ENDROOT
BRANCH   1  10
ATOM     10  C   UNL     1       3.481   3.519  18.087  0.00  0.00    +0.000 C 
ATOM     11  C   UNL     1       2.465   3.667  16.921  0.00  0.00    +0.000 C 
ATOM     12  C   UNL     1       3.616   2.005  18.352  0.00  0.00    +0.000 C 
BRANCH  10  13
ATOM     13  C   UNL     1       4.861   4.089  17.643  0.00  0.00    +0.000 C 
BRANCH  13  15
ATOM     14  C   UNL     1       5.227   5.882  15.913  0.00  0.00    +0.000 C 
ATOM     15  C   UNL     1       4.919   4.619  16.234  0.00  0.00    +0.000 C 
ENDBRANCH  13  15
ENDBRANCH  10  13
ENDBRANCH   1  10
BRANCH   7  16
ATOM     16  S   UNL     1       2.154   9.228  17.841  0.00  0.00    +0.000 S 
BRANCH  16  17
ATOM     17  C   UNL     1       0.605   9.989  18.303  0.00  0.00    +0.000 A 
ATOM     18  C   UNL     1      -0.582   9.572  17.686  0.00  0.00    +0.000 A 
ATOM     19  C   UNL     1      -1.794  10.199  17.996  0.00  0.00    +0.000 A 
ATOM     20  C   UNL     1      -1.814  11.245  18.912  0.00  0.00    +0.000 A 
ATOM     21  F   UNL     1      -2.975  11.847  19.198  0.00  0.00    +0.000 F 
ATOM     22  C   UNL     1      -0.647  11.680  19.525  0.00  0.00    +0.000 A 
ATOM     23  C   UNL     1       0.554  11.052  19.215  0.00  0.00    +0.000 A 
ATOM     24  F   UNL     1       1.675  11.494  19.805  0.00  0.00    +0.000 F 
ENDBRANCH  16  17
ENDBRANCH   7  16
TORSDOF 5
ENDMDL
MODEL 8
REMARK VINA RESULT:      -7.0      3.783      7.427
REMARK  Name = 
REMARK  7 active torsions:
REMARK  status: ('A' for Active; 'I' for Inactive)
REMARK    1  A    between atoms: C_2  and  C_3
REMARK    2  A    between atoms: C_3  and  C_4
REMARK    3  A    between atoms: C_4  and  C_5
REMARK    4  A    between atoms: C_4  and  C_6
REMARK    5  A    between atoms: C_4  and  C_7
REMARK    6  A    between atoms: C_13  and  S_14
REMARK    7  A    between atoms: S_14  and  C_15
REMARK                            x       y       z     vdW  Elec       q    Type
REMARK                         _______ _______ _______ _____ _____    ______ ____
ROOT
ATOM      1  C   UNL     1       5.272   4.709  17.627  0.00  0.00    +0.000 A 
ATOM      2  N   UNL     1       5.137   3.808  16.665  0.00  0.00    +0.000 NA
ATOM      3  N   UNL     1       3.832   3.411  16.594  0.00  0.00    +0.000 NA
ATOM      4  C   UNL     1       3.171   4.056  17.523  0.00  0.00    +0.000 A 
ATOM      5  C   UNL     1       1.798   4.049  17.883  0.00  0.00    +0.000 A 
ATOM      6  C   UNL     1       1.378   4.791  18.923  0.00  0.00    +0.000 A 
ATOM      7  C   UNL     1       2.309   5.606  19.700  0.00  0.00    +0.000 A 
ATOM      8  C   UNL     1       3.603   5.641  19.330  0.00  0.00    +0.000 A 
ATOM      9  N   UNL     1       4.037   4.873  18.243  0.00  0.00    +0.000 N 
ENDROOT
BRANCH   1  10
ATOM     10  C   UNL     1       6.570   5.439  17.928  0.00  0.00    +0.000 C 
ATOM     11  C   UNL     1       7.741   4.668  17.256  0.00  0.00    +0.000 C 
ATOM     12  C   UNL     1       6.870   5.445  19.441  0.00  0.00    +0.000 C 
BRANCH  10  13
ATOM     13  C   UNL     1       6.550   6.905  17.401  0.00  0.00    +0.000 C 
BRANCH  13  15
ATOM     14  C   UNL     1       7.948   8.947  17.868  0.00  0.00    +0.000 C 
ATOM     15  C   UNL     1       7.850   7.656  17.528  0.00  0.00    +0.000 C 
ENDBRANCH  13  15
ENDBRANCH  10  13
ENDBRANCH   1  10
BRANCH   7  16
ATOM     16  S   UNL     1       1.701   6.580  20.995  0.00  0.00    +0.000 S 
BRANCH  16  17
ATOM     17  C   UNL     1       1.469   8.131  20.140  0.00  0.00    +0.000 A 
ATOM     18  C   UNL     1       1.951   8.280  18.832  0.00  0.00    +0.000 A 
ATOM     19  C   UNL     1       1.828   9.507  18.172  0.00  0.00    +0.000 A 
ATOM     20  C   UNL     1       1.233  10.583  18.823  0.00  0.00    +0.000 A 
ATOM     21  F   UNL     1       1.125  11.758  18.189  0.00  0.00    +0.000 F 
ATOM     22  C   UNL     1       0.759  10.459  20.121  0.00  0.00    +0.000 A 
ATOM     23  C   UNL     1       0.883   9.237  20.772  0.00  0.00    +0.000 A 
ATOM     24  F   UNL     1       0.434   9.137  22.033  0.00  0.00    +0.000 F 
ENDBRANCH  16  17
ENDBRANCH   7  16
TORSDOF 5
ENDMDL
MODEL 9
REMARK VINA RESULT:      -6.9      3.566      8.014
REMARK  Name = 
REMARK  7 active torsions:
REMARK  status: ('A' for Active; 'I' for Inactive)
REMARK    1  A    between atoms: C_2  and  C_3
REMARK    2  A    between atoms: C_3  and  C_4
REMARK    3  A    between atoms: C_4  and  C_5
REMARK    4  A    between atoms: C_4  and  C_6
REMARK    5  A    between atoms: C_4  and  C_7
REMARK    6  A    between atoms: C_13  and  S_14
REMARK    7  A    between atoms: S_14  and  C_15
REMARK                            x       y       z     vdW  Elec       q    Type
REMARK                         _______ _______ _______ _____ _____    ______ ____
ROOT
ATOM      1  C   UNL     1       2.950   4.275  19.296  0.00  0.00    +0.000 A 
ATOM      2  N   UNL     1       2.708   3.676  20.453  0.00  0.00    +0.000 NA
ATOM      3  N   UNL     1       2.109   4.559  21.304  0.00  0.00    +0.000 NA
ATOM      4  C   UNL     1       1.998   5.703  20.675  0.00  0.00    +0.000 A 
ATOM      5  C   UNL     1       1.438   6.947  21.068  0.00  0.00    +0.000 A 
ATOM      6  C   UNL     1       1.488   7.996  20.227  0.00  0.00    +0.000 A 
ATOM      7  C   UNL     1       2.115   7.885  18.912  0.00  0.00    +0.000 A 
ATOM      8  C   UNL     1       2.608   6.693  18.527  0.00  0.00    +0.000 A 
ATOM      9  N   UNL     1       2.549   5.601  19.402  0.00  0.00    +0.000 N 
ENDROOT
BRANCH   1  10
ATOM     10  C   UNL     1       3.525   3.568  18.080  0.00  0.00    +0.000 C 
ATOM     11  C   UNL     1       2.515   3.699  16.905  0.00  0.00    +0.000 C 
ATOM     12  C   UNL     1       3.690   2.056  18.339  0.00  0.00    +0.000 C 
BRANCH  10  13
ATOM     13  C   UNL     1       4.896   4.169  17.649  0.00  0.00    +0.000 C 
BRANCH  13  15
ATOM     14  C   UNL     1       5.901   3.894  15.356  0.00  0.00    +0.000 C 
ATOM     15  C   UNL     1       5.031   4.487  16.182  0.00  0.00    +0.000 C 
ENDBRANCH  13  15
ENDBRANCH  10  13
ENDBRANCH   1  10
BRANCH   7  16
ATOM     16  S   UNL     1       2.103   9.254  17.853  0.00  0.00    +0.000 S 
BRANCH  16  17
ATOM     17  C   UNL     1       0.810  10.227  18.610  0.00  0.00    +0.000 A 
ATOM     18  C   UNL     1       1.115  11.056  19.699  0.00  0.00    +0.000 A 
ATOM     19  C   UNL     1       0.101  11.778  20.338  0.00  0.00    +0.000 A 
ATOM     20  C   UNL     1      -1.213  11.662  19.895  0.00  0.00    +0.000 A 
ATOM     21  F   UNL     1      -2.180  12.349  20.516  0.00  0.00    +0.000 F 
ATOM     22  C   UNL     1      -1.536  10.839  18.826  0.00  0.00    +0.000 A 
ATOM     23  C   UNL     1      -0.524  10.124  18.193  0.00  0.00    +0.000 A 
ATOM     24  F   UNL     1      -0.855   9.320  17.171  0.00  0.00    +0.000 F 
ENDBRANCH  16  17
ENDBRANCH   7  16
TORSDOF 5
ENDMDL
