MODEL 1
REMARK VINA RESULT:      -8.4      0.000      0.000
REMARK  Name = 
REMARK  3 active torsions:
REMARK  status: ('A' for Active; 'I' for Inactive)
REMARK    1  A    between atoms: C_8  and  S_9
REMARK    2  A    between atoms: S_9  and  N_12
REMARK    3  A    between atoms: C_16  and  C_17
REMARK                            x       y       z     vdW  Elec       q    Type
REMARK                         _______ _______ _______ _____ _____    ______ ____
ROOT
ATOM      1  N   UNL     1       0.386  10.495  20.259  0.00  0.00    +0.000 NA
ATOM      2  C   UNL     1      -0.892  10.439  19.514  0.00  0.00    +0.000 C 
ATOM      3  C   UNL     1      -1.094  11.644  18.593  0.00  0.00    +0.000 C 
ATOM      4  C   UNL     1      -0.650  12.989  19.164  0.00  0.00    +0.000 C 
ATOM      5  C   UNL     1       0.697  12.926  19.884  0.00  0.00    +0.000 C 
ATOM      6  C   UNL     1       0.691  11.790  20.895  0.00  0.00    +0.000 C 
ENDROOT
BRANCH   5   7
ATOM      7  C   UNL     1       1.904  12.847  18.925  0.00  0.00    +0.000 C 
ATOM      8  O   UNL     1       2.093  11.861  18.200  0.00  0.00    +0.000 OA
ATOM      9  N   UNL     1       2.761  13.938  18.874  0.00  0.00    +0.000 N 
ATOM     10  C   UNL     1       2.652  15.123  19.734  0.00  0.00    +0.000 C 
ATOM     11  C   UNL     1       3.212  16.375  19.070  0.00  0.00    +0.000 C 
ATOM     12  C   UNL     1       4.660  16.133  18.759  0.00  0.00    +0.000 A 
ATOM     13  C   UNL     1       5.620  17.131  18.949  0.00  0.00    +0.000 A 
ATOM     14  C   UNL     1       6.963  16.852  18.712  0.00  0.00    +0.000 A 
ATOM     15  C   UNL     1       7.344  15.584  18.271  0.00  0.00    +0.000 A 
ATOM     16  C   UNL     1       6.381  14.596  18.046  0.00  0.00    +0.000 A 
ATOM     17  C   UNL     1       5.030  14.860  18.293  0.00  0.00    +0.000 A 
ATOM     18  C   UNL     1       3.956  13.830  18.013  0.00  0.00    +0.000 C 
ENDBRANCH   5   7
BRANCH   1  19
ATOM     19  S   UNL     1       0.739   9.150  21.247  0.00  0.00    +0.000 S 
ATOM     20  O   UNL     1      -0.519   8.508  21.586  0.00  0.00    +0.000 OA
ATOM     21  O   UNL     1       1.675   9.550  22.277  0.00  0.00    +0.000 OA
BRANCH  19  29
ATOM     22  O   UNL     1       3.506   2.520  19.551  0.00  0.00    +0.000 OA
ATOM     23  C   UNL     1       3.236   3.664  19.197  0.00  0.00    +0.000 C 
ATOM     24  C   UNL     1       3.291   4.123  17.737  0.00  0.00    +0.000 C 
ATOM     25  O   UNL     1       3.423   5.509  17.452  0.00  0.00    +0.000 OA
ATOM     26  C   UNL     1       2.825   6.324  18.373  0.00  0.00    +0.000 A 
ATOM     27  C   UNL     1       2.584   7.644  17.981  0.00  0.00    +0.000 A 
ATOM     28  C   UNL     1       1.977   8.535  18.862  0.00  0.00    +0.000 A 
ATOM     29  C   UNL     1       1.639   8.095  20.147  0.00  0.00    +0.000 A 
ATOM     30  C   UNL     1       1.910   6.791  20.564  0.00  0.00    +0.000 A 
ATOM     31  C   UNL     1       2.501   5.908  19.668  0.00  0.00    +0.000 A 
ATOM     32  N   UNL     1       2.776   4.603  20.075  0.00  0.00    +0.000 N 
ATOM     33  H   UNL     1       2.639   4.318  21.036  0.00  0.00    +0.000 HD
ENDBRANCH  19  29
ENDBRANCH   1  19
TORSDOF 3
ENDMDL
MODEL 2
REMARK VINA RESULT:      -8.3      1.032      1.209
REMARK  Name = 
REMARK  3 active torsions:
REMARK  status: ('A' for Active; 'I' for Inactive)
REMARK    1  A    between atoms: C_8  and  S_9
REMARK    2  A    between atoms: S_9  and  N_12
REMARK    3  A    between atoms: C_16  and  C_17
REMARK                            x       y       z     vdW  Elec       q    Type
REMARK                         _______ _______ _______ _____ _____    ______ ____
ROOT
ATOM      1  N   UNL     1       0.483  11.672  19.899  0.00  0.00    +0.000 NA
ATOM      2  C   UNL     1      -0.716  11.987  19.090  0.00  0.00    +0.000 C 
ATOM      3  C   UNL     1      -0.546  13.250  18.245  0.00  0.00    +0.000 C 
ATOM      4  C   UNL     1       0.187  14.404  18.928  0.00  0.00    +0.000 C 
ATOM      5  C   UNL     1       1.424  13.958  19.708  0.00  0.00    +0.000 C 
ATOM      6  C   UNL     1       1.064  12.809  20.637  0.00  0.00    +0.000 C 
ENDROOT
BRANCH   5   7
ATOM      7  C   UNL     1       2.631  13.622  18.806  0.00  0.00    +0.000 C 
ATOM      8  O   UNL     1       2.668  12.585  18.130  0.00  0.00    +0.000 OA
ATOM      9  N   UNL     1       3.670  14.542  18.748  0.00  0.00    +0.000 N 
ATOM     10  C   UNL     1       3.742  15.767  19.553  0.00  0.00    +0.000 C 
ATOM     11  C   UNL     1       4.539  16.868  18.865  0.00  0.00    +0.000 C 
ATOM     12  C   UNL     1       5.931  16.361  18.627  0.00  0.00    +0.000 A 
ATOM     13  C   UNL     1       7.046  17.182  18.818  0.00  0.00    +0.000 A 
ATOM     14  C   UNL     1       8.325  16.660  18.652  0.00  0.00    +0.000 A 
ATOM     15  C   UNL     1       8.491  15.326  18.280  0.00  0.00    +0.000 A 
ATOM     16  C   UNL     1       7.377  14.512  18.053  0.00  0.00    +0.000 A 
ATOM     17  C   UNL     1       6.086  15.022  18.230  0.00  0.00    +0.000 A 
ATOM     18  C   UNL     1       4.857  14.184  17.945  0.00  0.00    +0.000 C 
ENDBRANCH   5   7
BRANCH   1  19
ATOM     19  S   UNL     1       0.418  10.231  20.810  0.00  0.00    +0.000 S 
ATOM     20  O   UNL     1      -0.960   9.772  20.813  0.00  0.00    +0.000 OA
ATOM     21  O   UNL     1       1.146  10.417  22.047  0.00  0.00    +0.000 OA
BRANCH  19  29
ATOM     22  O   UNL     1       3.747   3.702  19.928  0.00  0.00    +0.000 OA
ATOM     23  C   UNL     1       3.365   4.758  19.432  0.00  0.00    +0.000 C 
ATOM     24  C   UNL     1       3.345   5.016  17.923  0.00  0.00    +0.000 C 
ATOM     25  O   UNL     1       3.342   6.356  17.450  0.00  0.00    +0.000 OA
ATOM     26  C   UNL     1       2.693   7.234  18.272  0.00  0.00    +0.000 A 
ATOM     27  C   UNL     1       2.322   8.460  17.715  0.00  0.00    +0.000 A 
ATOM     28  C   UNL     1       1.655   9.407  18.489  0.00  0.00    +0.000 A 
ATOM     29  C   UNL     1       1.387   9.119  19.832  0.00  0.00    +0.000 A 
ATOM     30  C   UNL     1       1.786   7.914  20.411  0.00  0.00    +0.000 A 
ATOM     31  C   UNL     1       2.436   6.972  19.622  0.00  0.00    +0.000 A 
ATOM     32  N   UNL     1       2.839   5.764  20.191  0.00  0.00    +0.000 N 
ATOM     33  H   UNL     1       2.750   5.603  21.187  0.00  0.00    +0.000 HD
ENDBRANCH  19  29
ENDBRANCH   1  19
TORSDOF 3
ENDMDL
MODEL 3
REMARK VINA RESULT:      -8.3      3.624      6.530
REMARK  Name = 
REMARK  3 active torsions:
REMARK  status: ('A' for Active; 'I' for Inactive)
REMARK    1  A    between atoms: C_8  and  S_9
REMARK    2  A    between atoms: S_9  and  N_12
REMARK    3  A    between atoms: C_16  and  C_17
REMARK                            x       y       z     vdW  Elec       q    Type
REMARK                         _______ _______ _______ _____ _____    ______ ____
ROOT
ATOM      1  N   UNL     1       4.010   4.924  18.670  0.00  0.00    +0.000 NA
ATOM      2  C   UNL     1       3.061   3.958  18.074  0.00  0.00    +0.000 C 
ATOM      3  C   UNL     1       1.666   4.551  17.863  0.00  0.00    +0.000 C 
ATOM      4  C   UNL     1       1.163   5.462  18.981  0.00  0.00    +0.000 C 
ATOM      5  C   UNL     1       2.225   6.435  19.493  0.00  0.00    +0.000 C 
ATOM      6  C   UNL     1       3.501   5.678  19.830  0.00  0.00    +0.000 C 
ENDROOT
BRANCH   5   7
ATOM      7  C   UNL     1       2.483   7.620  18.539  0.00  0.00    +0.000 C 
ATOM      8  O   UNL     1       3.219   7.508  17.549  0.00  0.00    +0.000 OA
ATOM      9  N   UNL     1       1.835   8.818  18.806  0.00  0.00    +0.000 N 
ATOM     10  C   UNL     1       0.992   9.064  19.983  0.00  0.00    +0.000 C 
ATOM     11  C   UNL     1      -0.084  10.109  19.718  0.00  0.00    +0.000 C 
ATOM     12  C   UNL     1       0.593  11.391  19.331  0.00  0.00    +0.000 A 
ATOM     13  C   UNL     1       0.133  12.625  19.799  0.00  0.00    +0.000 A 
ATOM     14  C   UNL     1       0.823  13.789  19.472  0.00  0.00    +0.000 A 
ATOM     15  C   UNL     1       1.961  13.721  18.666  0.00  0.00    +0.000 A 
ATOM     16  C   UNL     1       2.401  12.492  18.167  0.00  0.00    +0.000 A 
ATOM     17  C   UNL     1       1.723  11.314  18.500  0.00  0.00    +0.000 A 
ATOM     18  C   UNL     1       2.142   9.972  17.937  0.00  0.00    +0.000 C 
ENDBRANCH   5   7
BRANCH   1  19
ATOM     19  S   UNL     1       5.615   4.379  18.863  0.00  0.00    +0.000 S 
ATOM     20  O   UNL     1       5.566   2.956  19.149  0.00  0.00    +0.000 OA
ATOM     21  O   UNL     1       6.325   5.292  19.734  0.00  0.00    +0.000 OA
BRANCH  19  29
ATOM     22  O   UNL     1       5.946   2.549  11.720  0.00  0.00    +0.000 OA
ATOM     23  C   UNL     1       6.244   3.334  12.614  0.00  0.00    +0.000 C 
ATOM     24  C   UNL     1       6.858   4.712  12.349  0.00  0.00    +0.000 C 
ATOM     25  O   UNL     1       7.587   5.357  13.385  0.00  0.00    +0.000 OA
ATOM     26  C   UNL     1       7.129   5.075  14.642  0.00  0.00    +0.000 A 
ATOM     27  C   UNL     1       7.530   5.939  15.664  0.00  0.00    +0.000 A 
ATOM     28  C   UNL     1       7.105   5.721  16.972  0.00  0.00    +0.000 A 
ATOM     29  C   UNL     1       6.294   4.613  17.246  0.00  0.00    +0.000 A 
ATOM     30  C   UNL     1       5.918   3.721  16.241  0.00  0.00    +0.000 A 
ATOM     31  C   UNL     1       6.337   3.961  14.937  0.00  0.00    +0.000 A 
ATOM     32  N   UNL     1       5.967   3.075  13.926  0.00  0.00    +0.000 N 
ATOM     33  H   UNL     1       5.480   2.215  14.141  0.00  0.00    +0.000 HD
ENDBRANCH  19  29
ENDBRANCH   1  19
TORSDOF 3
ENDMDL
MODEL 4
REMARK VINA RESULT:      -8.1      3.631      6.743
REMARK  Name = 
REMARK  3 active torsions:
REMARK  status: ('A' for Active; 'I' for Inactive)
REMARK    1  A    between atoms: C_8  and  S_9
REMARK    2  A    between atoms: S_9  and  N_12
REMARK    3  A    between atoms: C_16  and  C_17
REMARK                            x       y       z     vdW  Elec       q    Type
REMARK                         _______ _______ _______ _____ _____    ______ ____
ROOT
ATOM      1  N   UNL     1       2.978   3.510  19.399  0.00  0.00    +0.000 NA
ATOM      2  C   UNL     1       1.622   2.920  19.481  0.00  0.00    +0.000 C 
ATOM      3  C   UNL     1       0.532   3.971  19.704  0.00  0.00    +0.000 C 
ATOM      4  C   UNL     1       0.891   5.095  20.675  0.00  0.00    +0.000 C 
ATOM      5  C   UNL     1       2.304   5.641  20.472  0.00  0.00    +0.000 C 
ATOM      6  C   UNL     1       3.303   4.495  20.447  0.00  0.00    +0.000 C 
ENDROOT
BRANCH   5   7
ATOM      7  C   UNL     1       2.437   6.559  19.239  0.00  0.00    +0.000 C 
ATOM      8  O   UNL     1       2.959   6.162  18.188  0.00  0.00    +0.000 OA
ATOM      9  N   UNL     1       1.921   7.845  19.331  0.00  0.00    +0.000 N 
ATOM     10  C   UNL     1       1.339   8.422  20.549  0.00  0.00    +0.000 C 
ATOM     11  C   UNL     1       0.292   9.485  20.244  0.00  0.00    +0.000 C 
ATOM     12  C   UNL     1       0.951  10.579  19.455  0.00  0.00    +0.000 A 
ATOM     13  C   UNL     1       0.661  11.925  19.698  0.00  0.00    +0.000 A 
ATOM     14  C   UNL     1       1.338  12.916  18.993  0.00  0.00    +0.000 A 
ATOM     15  C   UNL     1       2.291  12.563  18.036  0.00  0.00    +0.000 A 
ATOM     16  C   UNL     1       2.556  11.217  17.767  0.00  0.00    +0.000 A 
ATOM     17  C   UNL     1       1.891  10.212  18.478  0.00  0.00    +0.000 A 
ATOM     18  C   UNL     1       2.117   8.746  18.177  0.00  0.00    +0.000 C 
ENDBRANCH   5   7
BRANCH   1  19
ATOM     19  S   UNL     1       4.250   2.424  19.066  0.00  0.00    +0.000 S 
ATOM     20  O   UNL     1       3.693   1.304  18.327  0.00  0.00    +0.000 OA
ATOM     21  O   UNL     1       5.023   2.213  20.271  0.00  0.00    +0.000 OA
BRANCH  19  29
ATOM     22  O   UNL     1       6.760   3.903  12.283  0.00  0.00    +0.000 OA
ATOM     23  C   UNL     1       6.673   4.232  13.462  0.00  0.00    +0.000 C 
ATOM     24  C   UNL     1       7.090   5.612  13.979  0.00  0.00    +0.000 C 
ATOM     25  O   UNL     1       7.397   5.771  15.358  0.00  0.00    +0.000 OA
ATOM     26  C   UNL     1       6.680   4.952  16.184  0.00  0.00    +0.000 A 
ATOM     27  C   UNL     1       6.644   5.300  17.536  0.00  0.00    +0.000 A 
ATOM     28  C   UNL     1       5.932   4.516  18.442  0.00  0.00    +0.000 A 
ATOM     29  C   UNL     1       5.281   3.368  17.979  0.00  0.00    +0.000 A 
ATOM     30  C   UNL     1       5.342   2.987  16.638  0.00  0.00    +0.000 A 
ATOM     31  C   UNL     1       6.042   3.788  15.743  0.00  0.00    +0.000 A 
ATOM     32  N   UNL     1       6.109   3.416  14.401  0.00  0.00    +0.000 N 
ATOM     33  H   UNL     1       5.737   2.529  14.087  0.00  0.00    +0.000 HD
ENDBRANCH  19  29
ENDBRANCH   1  19
TORSDOF 3
ENDMDL
MODEL 5
REMARK VINA RESULT:      -8.1      5.454      7.931
REMARK  Name = 
REMARK  3 active torsions:
REMARK  status: ('A' for Active; 'I' for Inactive)
REMARK    1  A    between atoms: C_8  and  S_9
REMARK    2  A    between atoms: S_9  and  N_12
REMARK    3  A    between atoms: C_16  and  C_17
REMARK                            x       y       z     vdW  Elec       q    Type
REMARK                         _______ _______ _______ _____ _____    ______ ____
ROOT
ATOM      1  N   UNL     1      -4.761  13.865  22.156  0.00  0.00    +0.000 NA
ATOM      2  C   UNL     1      -5.190  15.226  22.548  0.00  0.00    +0.000 C 
ATOM      3  C   UNL     1      -4.178  15.928  23.456  0.00  0.00    +0.000 C 
ATOM      4  C   UNL     1      -3.524  15.044  24.516  0.00  0.00    +0.000 C 
ATOM      5  C   UNL     1      -3.097  13.676  23.984  0.00  0.00    +0.000 C 
ATOM      6  C   UNL     1      -4.259  13.020  23.255  0.00  0.00    +0.000 C 
ENDROOT
BRANCH   5   7
ATOM      7  C   UNL     1      -1.818  13.723  23.122  0.00  0.00    +0.000 C 
ATOM      8  O   UNL     1      -1.322  14.796  22.755  0.00  0.00    +0.000 OA
ATOM      9  N   UNL     1      -1.215  12.516  22.794  0.00  0.00    +0.000 N 
ATOM     10  C   UNL     1      -1.759  11.195  23.133  0.00  0.00    +0.000 C 
ATOM     11  C   UNL     1      -0.670  10.141  23.285  0.00  0.00    +0.000 C 
ATOM     12  C   UNL     1       0.070  10.041  21.983  0.00  0.00    +0.000 A 
ATOM     13  C   UNL     1       0.470   8.804  21.468  0.00  0.00    +0.000 A 
ATOM     14  C   UNL     1       1.097   8.743  20.227  0.00  0.00    +0.000 A 
ATOM     15  C   UNL     1       1.339   9.915  19.510  0.00  0.00    +0.000 A 
ATOM     16  C   UNL     1       0.973  11.156  20.040  0.00  0.00    +0.000 A 
ATOM     17  C   UNL     1       0.330  11.229  21.280  0.00  0.00    +0.000 A 
ATOM     18  C   UNL     1      -0.035  12.558  21.906  0.00  0.00    +0.000 C 
ENDBRANCH   5   7
BRANCH   1  19
ATOM     19  S   UNL     1      -5.786  13.037  21.073  0.00  0.00    +0.000 S 
ATOM     20  O   UNL     1      -6.620  14.025  20.411  0.00  0.00    +0.000 OA
ATOM     21  O   UNL     1      -6.370  11.898  21.748  0.00  0.00    +0.000 OA
BRANCH  19  29
ATOM     22  O   UNL     1      -4.391  10.008  14.487  0.00  0.00    +0.000 OA
ATOM     23  C   UNL     1      -3.962  10.533  15.510  0.00  0.00    +0.000 C 
ATOM     24  C   UNL     1      -2.510  10.994  15.669  0.00  0.00    +0.000 C 
ATOM     25  O   UNL     1      -1.974  11.155  16.975  0.00  0.00    +0.000 OA
ATOM     26  C   UNL     1      -2.892  11.551  17.907  0.00  0.00    +0.000 A 
ATOM     27  C   UNL     1      -2.390  12.086  19.096  0.00  0.00    +0.000 A 
ATOM     28  C   UNL     1      -3.262  12.514  20.094  0.00  0.00    +0.000 A 
ATOM     29  C   UNL     1      -4.641  12.376  19.895  0.00  0.00    +0.000 A 
ATOM     30  C   UNL     1      -5.155  11.808  18.729  0.00  0.00    +0.000 A 
ATOM     31  C   UNL     1      -4.272  11.400  17.735  0.00  0.00    +0.000 A 
ATOM     32  N   UNL     1      -4.775  10.831  16.566  0.00  0.00    +0.000 N 
ATOM     33  H   UNL     1      -5.762  10.625  16.470  0.00  0.00    +0.000 HD
ENDBRANCH  19  29
ENDBRANCH   1  19
TORSDOF 3
ENDMDL
MODEL 6
REMARK VINA RESULT:      -8.0      1.585      2.227
REMARK  Name = 
REMARK  3 active torsions:
REMARK  status: ('A' for Active; 'I' for Inactive)
REMARK    1  A    between atoms: C_8  and  S_9
REMARK    2  A    between atoms: S_9  and  N_12
REMARK    3  A    between atoms: C_16  and  C_17
REMARK                            x       y       z     vdW  Elec       q    Type
REMARK                         _______ _______ _______ _____ _____    ______ ____
ROOT
ATOM      1  N   UNL     1       0.408  12.812  19.980  0.00  0.00    +0.000 NA
ATOM      2  C   UNL     1      -0.649  13.588  19.294  0.00  0.00    +0.000 C 
ATOM      3  C   UNL     1      -0.112  14.853  18.620  0.00  0.00    +0.000 C 
ATOM      4  C   UNL     1       0.949  15.618  19.409  0.00  0.00    +0.000 C 
ATOM      5  C   UNL     1       2.001  14.711  20.046  0.00  0.00    +0.000 C 
ATOM      6  C   UNL     1       1.320  13.600  20.830  0.00  0.00    +0.000 C 
ENDROOT
BRANCH   5   7
ATOM      7  C   UNL     1       3.034  14.165  19.037  0.00  0.00    +0.000 C 
ATOM      8  O   UNL     1       2.802  13.163  18.348  0.00  0.00    +0.000 OA
ATOM      9  N   UNL     1       4.231  14.857  18.900  0.00  0.00    +0.000 N 
ATOM     10  C   UNL     1       4.619  16.016  19.711  0.00  0.00    +0.000 C 
ATOM     11  C   UNL     1       5.564  16.953  18.968  0.00  0.00    +0.000 C 
ATOM     12  C   UNL     1       6.798  16.182  18.603  0.00  0.00    +0.000 A 
ATOM     13  C   UNL     1       8.069  16.754  18.705  0.00  0.00    +0.000 A 
ATOM     14  C   UNL     1       9.196  15.989  18.420  0.00  0.00    +0.000 A 
ATOM     15  C   UNL     1       9.053  14.660  18.018  0.00  0.00    +0.000 A 
ATOM     16  C   UNL     1       7.781  14.097  17.880  0.00  0.00    +0.000 A 
ATOM     17  C   UNL     1       6.641  14.852  18.176  0.00  0.00    +0.000 A 
ATOM     18  C   UNL     1       5.248  14.290  17.990  0.00  0.00    +0.000 C 
ENDBRANCH   5   7
BRANCH   1  19
ATOM     19  S   UNL     1      -0.081  11.339  20.688  0.00  0.00    +0.000 S 
ATOM     20  O   UNL     1      -1.474  11.123  20.339  0.00  0.00    +0.000 OA
ATOM     21  O   UNL     1       0.358  11.306  22.067  0.00  0.00    +0.000 OA
BRANCH  19  29
ATOM     22  O   UNL     1       3.046   4.664  20.300  0.00  0.00    +0.000 OA
ATOM     23  C   UNL     1       2.743   5.712  19.739  0.00  0.00    +0.000 C 
ATOM     24  C   UNL     1       2.844   5.910  18.224  0.00  0.00    +0.000 C 
ATOM     25  O   UNL     1       2.928   7.229  17.702  0.00  0.00    +0.000 OA
ATOM     26  C   UNL     1       2.254   8.162  18.440  0.00  0.00    +0.000 A 
ATOM     27  C   UNL     1       1.974   9.378  17.812  0.00  0.00    +0.000 A 
ATOM     28  C   UNL     1       1.290  10.378  18.498  0.00  0.00    +0.000 A 
ATOM     29  C   UNL     1       0.913  10.154  19.827  0.00  0.00    +0.000 A 
ATOM     30  C   UNL     1       1.221   8.960  20.479  0.00  0.00    +0.000 A 
ATOM     31  C   UNL     1       1.890   7.964  19.776  0.00  0.00    +0.000 A 
ATOM     32  N   UNL     1       2.203   6.766  20.419  0.00  0.00    +0.000 N 
ATOM     33  H   UNL     1       2.035   6.648  21.410  0.00  0.00    +0.000 HD
ENDBRANCH  19  29
ENDBRANCH   1  19
TORSDOF 3
ENDMDL
MODEL 7
REMARK VINA RESULT:      -8.0      4.328      9.522
REMARK  Name = 
REMARK  3 active torsions:
REMARK  status: ('A' for Active; 'I' for Inactive)
REMARK    1  A    between atoms: C_8  and  S_9
REMARK    2  A    between atoms: S_9  and  N_12
REMARK    3  A    between atoms: C_16  and  C_17
REMARK                            x       y       z     vdW  Elec       q    Type
REMARK                         _______ _______ _______ _____ _____    ______ ____
ROOT
ATOM      1  N   UNL     1      -0.394  11.223  20.965  0.00  0.00    +0.000 NA
ATOM      2  C   UNL     1      -1.219  11.427  19.753  0.00  0.00    +0.000 C 
ATOM      3  C   UNL     1      -0.965  10.368  18.678  0.00  0.00    +0.000 C 
ATOM      4  C   UNL     1       0.494   9.953  18.496  0.00  0.00    +0.000 C 
ATOM      5  C   UNL     1       1.233   9.745  19.818  0.00  0.00    +0.000 C 
ATOM      6  C   UNL     1       1.035  10.954  20.718  0.00  0.00    +0.000 C 
ENDROOT
BRANCH   5   7
ATOM      7  C   UNL     1       0.865   8.424  20.526  0.00  0.00    +0.000 C 
ATOM      8  O   UNL     1       0.065   8.395  21.471  0.00  0.00    +0.000 OA
ATOM      9  N   UNL     1       1.436   7.252  20.047  0.00  0.00    +0.000 N 
ATOM     10  C   UNL     1       2.436   7.193  18.974  0.00  0.00    +0.000 C 
ATOM     11  C   UNL     1       2.386   5.878  18.207  0.00  0.00    +0.000 C 
ATOM     12  C   UNL     1       2.647   4.761  19.174  0.00  0.00    +0.000 A 
ATOM     13  C   UNL     1       3.451   3.671  18.826  0.00  0.00    +0.000 A 
ATOM     14  C   UNL     1       3.724   2.685  19.770  0.00  0.00    +0.000 A 
ATOM     15  C   UNL     1       3.184   2.779  21.053  0.00  0.00    +0.000 A 
ATOM     16  C   UNL     1       2.351   3.850  21.392  0.00  0.00    +0.000 A 
ATOM     17  C   UNL     1       2.079   4.854  20.456  0.00  0.00    +0.000 A 
ATOM     18  C   UNL     1       1.142   6.000  20.773  0.00  0.00    +0.000 C 
ENDBRANCH   5   7
BRANCH   1  19
ATOM     19  S   UNL     1      -0.671  12.306  22.253  0.00  0.00    +0.000 S 
ATOM     20  O   UNL     1       0.238  13.427  22.091  0.00  0.00    +0.000 OA
ATOM     21  O   UNL     1      -0.728  11.563  23.494  0.00  0.00    +0.000 OA
BRANCH  19  29
ATOM     22  O   UNL     1      -7.845  12.414  23.986  0.00  0.00    +0.000 OA
ATOM     23  C   UNL     1      -6.920  12.881  23.330  0.00  0.00    +0.000 C 
ATOM     24  C   UNL     1      -7.038  14.175  22.520  0.00  0.00    +0.000 C 
ATOM     25  O   UNL     1      -6.130  14.408  21.451  0.00  0.00    +0.000 OA
ATOM     26  C   UNL     1      -4.888  13.872  21.652  0.00  0.00    +0.000 A 
ATOM     27  C   UNL     1      -3.854  14.365  20.852  0.00  0.00    +0.000 A 
ATOM     28  C   UNL     1      -2.561  13.871  20.997  0.00  0.00    +0.000 A 
ATOM     29  C   UNL     1      -2.322  12.861  21.935  0.00  0.00    +0.000 A 
ATOM     30  C   UNL     1      -3.352  12.332  22.714  0.00  0.00    +0.000 A 
ATOM     31  C   UNL     1      -4.636  12.847  22.569  0.00  0.00    +0.000 A 
ATOM     32  N   UNL     1      -5.672  12.326  23.342  0.00  0.00    +0.000 N 
ATOM     33  H   UNL     1      -5.524  11.519  23.935  0.00  0.00    +0.000 HD
ENDBRANCH  19  29
ENDBRANCH   1  19
TORSDOF 3
ENDMDL
MODEL 8
REMARK VINA RESULT:      -8.0      2.610      8.248
REMARK  Name = 
REMARK  3 active torsions:
REMARK  status: ('A' for Active; 'I' for Inactive)
REMARK    1  A    between atoms: C_8  and  S_9
REMARK    2  A    between atoms: S_9  and  N_12
REMARK    3  A    between atoms: C_16  and  C_17
REMARK                            x       y       z     vdW  Elec       q    Type
REMARK                         _______ _______ _______ _____ _____    ______ ____
ROOT
ATOM      1  N   UNL     1      -0.170  11.223  19.701  0.00  0.00    +0.000 NA
ATOM      2  C   UNL     1       0.156  11.289  21.143  0.00  0.00    +0.000 C 
ATOM      3  C   UNL     1       1.037  10.127  21.605  0.00  0.00    +0.000 C 
ATOM      4  C   UNL     1       0.696   8.764  21.004  0.00  0.00    +0.000 C 
ATOM      5  C   UNL     1       0.408   8.820  19.504  0.00  0.00    +0.000 C 
ATOM      6  C   UNL     1      -0.617   9.905  19.214  0.00  0.00    +0.000 C 
ENDROOT
BRANCH   5   7
ATOM      7  C   UNL     1       1.677   8.970  18.640  0.00  0.00    +0.000 C 
ATOM      8  O   UNL     1       1.973  10.046  18.101  0.00  0.00    +0.000 OA
ATOM      9  N   UNL     1       2.505   7.862  18.508  0.00  0.00    +0.000 N 
ATOM     10  C   UNL     1       2.210   6.534  19.058  0.00  0.00    +0.000 C 
ATOM     11  C   UNL     1       3.473   5.743  19.373  0.00  0.00    +0.000 C 
ATOM     12  C   UNL     1       4.253   5.579  18.102  0.00  0.00    +0.000 A 
ATOM     13  C   UNL     1       4.891   4.374  17.791  0.00  0.00    +0.000 A 
ATOM     14  C   UNL     1       5.550   4.236  16.573  0.00  0.00    +0.000 A 
ATOM     15  C   UNL     1       5.587   5.303  15.675  0.00  0.00    +0.000 A 
ATOM     16  C   UNL     1       4.980   6.520  15.999  0.00  0.00    +0.000 A 
ATOM     17  C   UNL     1       4.303   6.668  17.215  0.00  0.00    +0.000 A 
ATOM     18  C   UNL     1       3.678   7.986  17.619  0.00  0.00    +0.000 C 
ENDBRANCH   5   7
BRANCH   1  19
ATOM     19  S   UNL     1      -1.077  12.525  19.075  0.00  0.00    +0.000 S 
ATOM     20  O   UNL     1      -2.076  12.884  20.067  0.00  0.00    +0.000 OA
ATOM     21  O   UNL     1      -1.454  12.229  17.709  0.00  0.00    +0.000 OA
BRANCH  19  29
ATOM     22  O   UNL     1       5.783  14.808  17.591  0.00  0.00    +0.000 OA
ATOM     23  C   UNL     1       4.616  15.093  17.836  0.00  0.00    +0.000 C 
ATOM     24  C   UNL     1       4.053  16.511  17.699  0.00  0.00    +0.000 C 
ATOM     25  O   UNL     1       2.875  16.861  18.414  0.00  0.00    +0.000 OA
ATOM     26  C   UNL     1       2.002  15.823  18.585  0.00  0.00    +0.000 A 
ATOM     27  C   UNL     1       0.690  16.157  18.930  0.00  0.00    +0.000 A 
ATOM     28  C   UNL     1      -0.260  15.157  19.120  0.00  0.00    +0.000 A 
ATOM     29  C   UNL     1       0.127  13.819  18.984  0.00  0.00    +0.000 A 
ATOM     30  C   UNL     1       1.443  13.470  18.678  0.00  0.00    +0.000 A 
ATOM     31  C   UNL     1       2.377  14.480  18.475  0.00  0.00    +0.000 A 
ATOM     32  N   UNL     1       3.694  14.142  18.169  0.00  0.00    +0.000 N 
ATOM     33  H   UNL     1       4.001  13.178  18.185  0.00  0.00    +0.000 HD
ENDBRANCH  19  29
ENDBRANCH   1  19
TORSDOF 3
ENDMDL
MODEL 9
REMARK VINA RESULT:      -7.9      1.120      1.786
REMARK  Name = 
REMARK  3 active torsions:
REMARK  status: ('A' for Active; 'I' for Inactive)
REMARK    1  A    between atoms: C_8  and  S_9
REMARK    2  A    between atoms: S_9  and  N_12
REMARK    3  A    between atoms: C_16  and  C_17
REMARK                            x       y       z     vdW  Elec       q    Type
REMARK                         _______ _______ _______ _____ _____    ______ ____
ROOT
ATOM      1  N   UNL     1       0.365  10.182  20.222  0.00  0.00    +0.000 NA
ATOM      2  C   UNL     1      -0.806   9.909  19.359  0.00  0.00    +0.000 C 
ATOM      3  C   UNL     1      -1.013  10.979  18.286  0.00  0.00    +0.000 C 
ATOM      4  C   UNL     1      -0.769  12.419  18.737  0.00  0.00    +0.000 C 
ATOM      5  C   UNL     1       0.484  12.578  19.597  0.00  0.00    +0.000 C 
ATOM      6  C   UNL     1       0.468  11.563  20.730  0.00  0.00    +0.000 C 
ENDROOT
BRANCH   5   7
ATOM      7  C   UNL     1       1.797  12.528  18.787  0.00  0.00    +0.000 C 
ATOM      8  O   UNL     1       2.144  11.508  18.176  0.00  0.00    +0.000 OA
ATOM      9  N   UNL     1       2.569  13.681  18.735  0.00  0.00    +0.000 N 
ATOM     10  C   UNL     1       2.271  14.915  19.471  0.00  0.00    +0.000 C 
ATOM     11  C   UNL     1       2.807  16.155  18.766  0.00  0.00    +0.000 C 
ATOM     12  C   UNL     1       4.296  16.014  18.638  0.00  0.00    +0.000 A 
ATOM     13  C   UNL     1       5.149  17.103  18.844  0.00  0.00    +0.000 A 
ATOM     14  C   UNL     1       6.527  16.922  18.781  0.00  0.00    +0.000 A 
ATOM     15  C   UNL     1       7.052  15.660  18.497  0.00  0.00    +0.000 A 
ATOM     16  C   UNL     1       6.200  14.579  18.255  0.00  0.00    +0.000 A 
ATOM     17  C   UNL     1       4.813  14.745  18.328  0.00  0.00    +0.000 A 
ATOM     18  C   UNL     1       3.861  13.608  18.023  0.00  0.00    +0.000 C 
ENDBRANCH   5   7
BRANCH   1  19
ATOM     19  S   UNL     1       0.726   8.997  21.395  0.00  0.00    +0.000 S 
ATOM     20  O   UNL     1      -0.532   8.494  21.917  0.00  0.00    +0.000 OA
ATOM     21  O   UNL     1       1.754   9.502  22.280  0.00  0.00    +0.000 OA
BRANCH  19  29
ATOM     22  O   UNL     1       5.089   6.938  15.808  0.00  0.00    +0.000 OA
ATOM     23  C   UNL     1       4.468   6.628  16.820  0.00  0.00    +0.000 C 
ATOM     24  C   UNL     1       4.619   5.271  17.513  0.00  0.00    +0.000 C 
ATOM     25  O   UNL     1       3.579   4.809  18.364  0.00  0.00    +0.000 OA
ATOM     26  C   UNL     1       2.913   5.807  19.018  0.00  0.00    +0.000 A 
ATOM     27  C   UNL     1       2.154   5.433  20.130  0.00  0.00    +0.000 A 
ATOM     28  C   UNL     1       1.448   6.393  20.851  0.00  0.00    +0.000 A 
ATOM     29  C   UNL     1       1.491   7.726  20.428  0.00  0.00    +0.000 A 
ATOM     30  C   UNL     1       2.213   8.108  19.297  0.00  0.00    +0.000 A 
ATOM     31  C   UNL     1       2.927   7.141  18.597  0.00  0.00    +0.000 A 
ATOM     32  N   UNL     1       3.651   7.512  17.465  0.00  0.00    +0.000 N 
ATOM     33  H   UNL     1       3.590   8.451  17.092  0.00  0.00    +0.000 HD
ENDBRANCH  19  29
ENDBRANCH   1  19
TORSDOF 3
ENDMDL
