MODEL 1
REMARK VINA RESULT:      -9.0      0.000      0.000
REMARK  Name = 
REMARK  5 active torsions:
REMARK  status: ('A' for Active; 'I' for Inactive)
REMARK    1  A    between atoms: C_1  and  C_2
REMARK    2  A    between atoms: N_4  and  C_5
REMARK    3  A    between atoms: C_16  and  N_17
REMARK    4  A    between atoms: C_18  and  C_20
REMARK    5  A    between atoms: C_20  and  C_21
REMARK                            x       y       z     vdW  Elec       q    Type
REMARK                         _______ _______ _______ _____ _____    ______ ____
ROOT
ATOM      1  C   UNL     1       2.190   9.124  17.878  0.00  0.00    +0.000 C 
ATOM      2  C   UNL     1       2.914   7.843  18.092  0.00  0.00    +0.000 A 
ATOM      3  N   UNL     1       3.804   7.358  17.189  0.00  0.00    +0.000 NA
ATOM      4  N   UNL     1       4.143   6.116  17.668  0.00  0.00    +0.000 N 
ATOM      5  C   UNL     1       3.438   5.858  18.829  0.00  0.00    +0.000 A 
ATOM      6  C   UNL     1       2.681   6.945  19.162  0.00  0.00    +0.000 A 
ATOM      7  C   UNL     1       1.674   6.881  20.270  0.00  0.00    +0.000 C 
ATOM      8  C   UNL     1       2.016   5.734  21.240  0.00  0.00    +0.000 C 
ATOM      9  C   UNL     1       2.550   4.481  20.562  0.00  0.00    +0.000 C 
ATOM     10  O   UNL     1       2.341   3.359  21.014  0.00  0.00    +0.000 OA
ATOM     11  N   UNL     1       3.389   4.653  19.489  0.00  0.00    +0.000 N 
ATOM     12  H   UNL     1       3.878   3.844  19.110  0.00  0.00    +0.000 HD
ENDROOT
BRANCH   4  13
ATOM     13  C   UNL     1       5.165   5.251  17.133  0.00  0.00    +0.000 A 
ATOM     14  N   UNL     1       6.034   4.710  18.036  0.00  0.00    +0.000 NA
ATOM     15  C   UNL     1       7.286   4.437  17.639  0.00  0.00    +0.000 A 
ATOM     16  N   UNL     1       7.810   4.665  16.438  0.00  0.00    +0.000 NA
ATOM     17  C   UNL     1       6.863   4.847  15.505  0.00  0.00    +0.000 A 
ATOM     18  N   UNL     1       7.083   4.520  14.204  0.00  0.00    +0.000 NA
ATOM     19  C   UNL     1       5.910   4.075  13.818  0.00  0.00    +0.000 A 
ATOM     20  N   UNL     1       4.928   4.356  14.741  0.00  0.00    +0.000 N 
ATOM     21  C   UNL     1       5.520   5.034  15.802  0.00  0.00    +0.000 A 
ATOM     22  H   UNL     1       4.054   3.850  14.790  0.00  0.00    +0.000 HD
ENDBRANCH   4  13
BRANCH   7  23
ATOM     23  N   UNL     1       1.528   8.144  21.012  0.00  0.00    +0.000 N 
ATOM     24  C   UNL     1       0.299   8.416  21.612  0.00  0.00    +0.000 C 
ATOM     25  O   UNL     1      -0.700   7.761  21.367  0.00  0.00    +0.000 OA
ATOM     26  H   UNL     1       2.351   8.612  21.348  0.00  0.00    +0.000 HD
BRANCH  24  27
ATOM     27  C   UNL     1       0.271   9.544  22.633  0.00  0.00    +0.000 C 
BRANCH  27  28
ATOM     28  C   UNL     1      -0.637  10.699  22.281  0.00  0.00    +0.000 A 
ATOM     29  C   UNL     1      -0.634  11.258  20.993  0.00  0.00    +0.000 A 
ATOM     30  C   UNL     1      -1.497  12.302  20.667  0.00  0.00    +0.000 A 
ATOM     31  C   UNL     1      -2.389  12.795  21.620  0.00  0.00    +0.000 A 
ATOM     32  C   UNL     1      -2.427  12.233  22.890  0.00  0.00    +0.000 A 
ATOM     33  C   UNL     1      -1.559  11.186  23.219  0.00  0.00    +0.000 A 
ENDBRANCH  27  28
ENDBRANCH  24  27
ENDBRANCH   7  23
TORSDOF 4
ENDMDL
MODEL 2
REMARK VINA RESULT:      -7.8      4.167     10.523
REMARK  Name = 
REMARK  5 active torsions:
REMARK  status: ('A' for Active; 'I' for Inactive)
REMARK    1  A    between atoms: C_1  and  C_2
REMARK    2  A    between atoms: N_4  and  C_5
REMARK    3  A    between atoms: C_16  and  N_17
REMARK    4  A    between atoms: C_18  and  C_20
REMARK    5  A    between atoms: C_20  and  C_21
REMARK                            x       y       z     vdW  Elec       q    Type
REMARK                         _______ _______ _______ _____ _____    ______ ____
ROOT
ATOM      1  C   UNL     1      -0.870  12.299  18.108  0.00  0.00    +0.000 C 
ATOM      2  C   UNL     1      -1.410  12.085  19.477  0.00  0.00    +0.000 A 
ATOM      3  N   UNL     1      -2.408  12.852  19.987  0.00  0.00    +0.000 NA
ATOM      4  N   UNL     1      -2.524  12.446  21.294  0.00  0.00    +0.000 N 
ATOM      5  C   UNL     1      -1.583  11.469  21.563  0.00  0.00    +0.000 A 
ATOM      6  C   UNL     1      -0.885  11.174  20.426  0.00  0.00    +0.000 A 
ATOM      7  C   UNL     1       0.321  10.285  20.463  0.00  0.00    +0.000 C 
ATOM      8  C   UNL     1       0.289   9.390  21.716  0.00  0.00    +0.000 C 
ATOM      9  C   UNL     1      -0.242  10.080  22.964  0.00  0.00    +0.000 C 
ATOM     10  O   UNL     1       0.160   9.792  24.088  0.00  0.00    +0.000 OA
ATOM     11  N   UNL     1      -1.288  10.956  22.804  0.00  0.00    +0.000 N 
ATOM     12  H   UNL     1      -1.761  11.317  23.630  0.00  0.00    +0.000 HD
ENDROOT
BRANCH   4  13
ATOM     13  C   UNL     1      -3.541  12.866  22.226  0.00  0.00    +0.000 A 
ATOM     14  N   UNL     1      -3.142  13.048  23.518  0.00  0.00    +0.000 NA
ATOM     15  C   UNL     1      -4.029  12.833  24.501  0.00  0.00    +0.000 A 
ATOM     16  N   UNL     1      -5.286  12.422  24.366  0.00  0.00    +0.000 NA
ATOM     17  C   UNL     1      -5.740  12.601  23.115  0.00  0.00    +0.000 A 
ATOM     18  N   UNL     1      -7.059  12.817  22.868  0.00  0.00    +0.000 NA
ATOM     19  C   UNL     1      -7.029  13.665  21.868  0.00  0.00    +0.000 A 
ATOM     20  N   UNL     1      -5.767  13.774  21.329  0.00  0.00    +0.000 N 
ATOM     21  C   UNL     1      -4.922  12.929  22.043  0.00  0.00    +0.000 A 
ATOM     22  H   UNL     1      -5.465  14.569  20.782  0.00  0.00    +0.000 HD
ENDBRANCH   4  13
BRANCH   7  23
ATOM     23  N   UNL     1       0.486   9.459  19.256  0.00  0.00    +0.000 N 
ATOM     24  C   UNL     1       1.614   9.669  18.463  0.00  0.00    +0.000 C 
ATOM     25  O   UNL     1       2.339  10.638  18.615  0.00  0.00    +0.000 OA
ATOM     26  H   UNL     1       0.002   8.581  19.194  0.00  0.00    +0.000 HD
BRANCH  24  27
ATOM     27  C   UNL     1       1.931   8.602  17.426  0.00  0.00    +0.000 C 
BRANCH  27  28
ATOM     28  C   UNL     1       2.840   7.496  17.908  0.00  0.00    +0.000 A 
ATOM     29  C   UNL     1       4.050   7.215  17.253  0.00  0.00    +0.000 A 
ATOM     30  C   UNL     1       4.898   6.215  17.723  0.00  0.00    +0.000 A 
ATOM     31  C   UNL     1       4.558   5.489  18.865  0.00  0.00    +0.000 A 
ATOM     32  C   UNL     1       3.380   5.775  19.543  0.00  0.00    +0.000 A 
ATOM     33  C   UNL     1       2.526   6.777  19.070  0.00  0.00    +0.000 A 
ENDBRANCH  27  28
ENDBRANCH  24  27
ENDBRANCH   7  23
TORSDOF 4
ENDMDL
MODEL 3
REMARK VINA RESULT:      -7.7      2.160      9.068
REMARK  Name = 
REMARK  5 active torsions:
REMARK  status: ('A' for Active; 'I' for Inactive)
REMARK    1  A    between atoms: C_1  and  C_2
REMARK    2  A    between atoms: N_4  and  C_5
REMARK    3  A    between atoms: C_16  and  N_17
REMARK    4  A    between atoms: C_18  and  C_20
REMARK    5  A    between atoms: C_20  and  C_21
REMARK                            x       y       z     vdW  Elec       q    Type
REMARK                         _______ _______ _______ _____ _____    ______ ____
ROOT
ATOM      1  C   UNL     1       4.642   7.582  16.483  0.00  0.00    +0.000 C 
ATOM      2  C   UNL     1       3.583   7.539  17.527  0.00  0.00    +0.000 A 
ATOM      3  N   UNL     1       2.882   8.643  17.888  0.00  0.00    +0.000 NA
ATOM      4  N   UNL     1       2.117   8.235  18.954  0.00  0.00    +0.000 N 
ATOM      5  C   UNL     1       2.385   6.909  19.238  0.00  0.00    +0.000 A 
ATOM      6  C   UNL     1       3.275   6.412  18.328  0.00  0.00    +0.000 A 
ATOM      7  C   UNL     1       3.888   5.055  18.500  0.00  0.00    +0.000 C 
ATOM      8  C   UNL     1       3.011   4.184  19.418  0.00  0.00    +0.000 C 
ATOM      9  C   UNL     1       2.380   4.937  20.580  0.00  0.00    +0.000 C 
ATOM     10  O   UNL     1       2.161   4.399  21.662  0.00  0.00    +0.000 OA
ATOM     11  N   UNL     1       1.941   6.215  20.339  0.00  0.00    +0.000 N 
ATOM     12  H   UNL     1       1.383   6.689  21.048  0.00  0.00    +0.000 HD
ENDROOT
BRANCH   4  13
ATOM     13  C   UNL     1       1.094   9.011  19.611  0.00  0.00    +0.000 A 
ATOM     14  N   UNL     1       0.249   9.709  18.798  0.00  0.00    +0.000 NA
ATOM     15  C   UNL     1      -0.280  10.856  19.254  0.00  0.00    +0.000 A 
ATOM     16  N   UNL     1      -0.048  11.429  20.430  0.00  0.00    +0.000 NA
ATOM     17  C   UNL     1       0.477  10.565  21.314  0.00  0.00    +0.000 A 
ATOM     18  N   UNL     1       0.264  10.705  22.649  0.00  0.00    +0.000 NA
ATOM     19  C   UNL     1       0.177   9.462  23.058  0.00  0.00    +0.000 A 
ATOM     20  N   UNL     1       0.582   8.575  22.086  0.00  0.00    +0.000 N 
ATOM     21  C   UNL     1       0.957   9.310  20.966  0.00  0.00    +0.000 A 
ATOM     22  H   UNL     1       0.309   7.601  22.077  0.00  0.00    +0.000 HD
ENDBRANCH   4  13
BRANCH   7  23
ATOM     23  N   UNL     1       4.145   4.355  17.232  0.00  0.00    +0.000 N 
ATOM     24  C   UNL     1       5.466   4.225  16.807  0.00  0.00    +0.000 C 
ATOM     25  O   UNL     1       6.377   4.846  17.328  0.00  0.00    +0.000 OA
ATOM     26  H   UNL     1       3.452   3.721  16.874  0.00  0.00    +0.000 HD
BRANCH  24  27
ATOM     27  C   UNL     1       5.732   3.228  15.688  0.00  0.00    +0.000 C 
BRANCH  27  28
ATOM     28  C   UNL     1       6.309   3.826  14.426  0.00  0.00    +0.000 A 
ATOM     29  C   UNL     1       7.240   4.875  14.480  0.00  0.00    +0.000 A 
ATOM     30  C   UNL     1       7.792   5.398  13.313  0.00  0.00    +0.000 A 
ATOM     31  C   UNL     1       7.433   4.871  12.072  0.00  0.00    +0.000 A 
ATOM     32  C   UNL     1       6.537   3.812  12.002  0.00  0.00    +0.000 A 
ATOM     33  C   UNL     1       5.980   3.287  13.174  0.00  0.00    +0.000 A 
ENDBRANCH  27  28
ENDBRANCH  24  27
ENDBRANCH   7  23
TORSDOF 4
ENDMDL
MODEL 4
REMARK VINA RESULT:      -7.6      4.701     10.457
REMARK  Name = 
REMARK  5 active torsions:
REMARK  status: ('A' for Active; 'I' for Inactive)
REMARK    1  A    between atoms: C_1  and  C_2
REMARK    2  A    between atoms: N_4  and  C_5
REMARK    3  A    between atoms: C_16  and  N_17
REMARK    4  A    between atoms: C_18  and  C_20
REMARK    5  A    between atoms: C_20  and  C_21
REMARK                            x       y       z     vdW  Elec       q    Type
REMARK                         _______ _______ _______ _____ _____    ______ ____
ROOT
ATOM      1  C   UNL     1      -2.273  10.653  16.353  0.00  0.00    +0.000 C 
ATOM      2  C   UNL     1      -2.523  11.172  17.725  0.00  0.00    +0.000 A 
ATOM      3  N   UNL     1      -3.734  11.651  18.105  0.00  0.00    +0.000 NA
ATOM      4  N   UNL     1      -3.528  12.155  19.367  0.00  0.00    +0.000 N 
ATOM      5  C   UNL     1      -2.200  11.999  19.717  0.00  0.00    +0.000 A 
ATOM      6  C   UNL     1      -1.533  11.337  18.725  0.00  0.00    +0.000 A 
ATOM      7  C   UNL     1      -0.042  11.193  18.752  0.00  0.00    +0.000 C 
ATOM      8  C   UNL     1       0.487  11.358  20.189  0.00  0.00    +0.000 C 
ATOM      9  C   UNL     1      -0.235  12.421  21.003  0.00  0.00    +0.000 C 
ATOM     10  O   UNL     1       0.337  13.078  21.868  0.00  0.00    +0.000 OA
ATOM     11  N   UNL     1      -1.592  12.537  20.827  0.00  0.00    +0.000 N 
ATOM     12  H   UNL     1      -2.124  13.131  21.461  0.00  0.00    +0.000 HD
ENDROOT
BRANCH   4  13
ATOM     13  C   UNL     1      -4.546  12.656  20.257  0.00  0.00    +0.000 A 
ATOM     14  N   UNL     1      -4.267  13.828  20.896  0.00  0.00    +0.000 NA
ATOM     15  C   UNL     1      -4.799  14.041  22.109  0.00  0.00    +0.000 A 
ATOM     16  N   UNL     1      -5.569  13.206  22.800  0.00  0.00    +0.000 NA
ATOM     17  C   UNL     1      -6.105  12.256  22.019  0.00  0.00    +0.000 A 
ATOM     18  N   UNL     1      -7.303  11.689  22.318  0.00  0.00    +0.000 NA
ATOM     19  C   UNL     1      -7.836  11.501  21.134  0.00  0.00    +0.000 A 
ATOM     20  N   UNL     1      -6.917  11.685  20.126  0.00  0.00    +0.000 N 
ATOM     21  C   UNL     1      -5.700  12.020  20.712  0.00  0.00    +0.000 A 
ATOM     22  H   UNL     1      -7.177  11.892  19.171  0.00  0.00    +0.000 HD
ENDBRANCH   4  13
BRANCH   7  23
ATOM     23  N   UNL     1       0.442   9.928  18.176  0.00  0.00    +0.000 N 
ATOM     24  C   UNL     1       1.788   9.836  17.825  0.00  0.00    +0.000 C 
ATOM     25  O   UNL     1       2.512  10.817  17.778  0.00  0.00    +0.000 OA
ATOM     26  H   UNL     1      -0.078   9.084  18.342  0.00  0.00    +0.000 HD
BRANCH  24  27
ATOM     27  C   UNL     1       2.331   8.442  17.549  0.00  0.00    +0.000 C 
BRANCH  27  28
ATOM     28  C   UNL     1       2.184   7.464  18.691  0.00  0.00    +0.000 A 
ATOM     29  C   UNL     1       1.796   7.894  19.969  0.00  0.00    +0.000 A 
ATOM     30  C   UNL     1       1.631   6.981  21.009  0.00  0.00    +0.000 A 
ATOM     31  C   UNL     1       1.836   5.619  20.782  0.00  0.00    +0.000 A 
ATOM     32  C   UNL     1       2.190   5.173  19.516  0.00  0.00    +0.000 A 
ATOM     33  C   UNL     1       2.359   6.090  18.472  0.00  0.00    +0.000 A 
ENDBRANCH  27  28
ENDBRANCH  24  27
ENDBRANCH   7  23
TORSDOF 4
ENDMDL
MODEL 5
REMARK VINA RESULT:      -7.6      3.528      8.454
REMARK  Name = 
REMARK  5 active torsions:
REMARK  status: ('A' for Active; 'I' for Inactive)
REMARK    1  A    between atoms: C_1  and  C_2
REMARK    2  A    between atoms: N_4  and  C_5
REMARK    3  A    between atoms: C_16  and  N_17
REMARK    4  A    between atoms: C_18  and  C_20
REMARK    5  A    between atoms: C_20  and  C_21
REMARK                            x       y       z     vdW  Elec       q    Type
REMARK                         _______ _______ _______ _____ _____    ______ ____
ROOT
ATOM      1  C   UNL     1       2.508   8.421  18.040  0.00  0.00    +0.000 C 
ATOM      2  C   UNL     1       1.305   9.107  18.583  0.00  0.00    +0.000 A 
ATOM      3  N   UNL     1       0.457   9.810  17.791  0.00  0.00    +0.000 NA
ATOM      4  N   UNL     1      -0.427  10.397  18.664  0.00  0.00    +0.000 N 
ATOM      5  C   UNL     1      -0.086  10.066  19.963  0.00  0.00    +0.000 A 
ATOM      6  C   UNL     1       0.979   9.211  19.958  0.00  0.00    +0.000 A 
ATOM      7  C   UNL     1       1.679   8.833  21.228  0.00  0.00    +0.000 C 
ATOM      8  C   UNL     1       0.752   9.054  22.437  0.00  0.00    +0.000 C 
ATOM      9  C   UNL     1      -0.122  10.295  22.337  0.00  0.00    +0.000 C 
ATOM     10  O   UNL     1      -0.459  10.935  23.329  0.00  0.00    +0.000 OA
ATOM     11  N   UNL     1      -0.633  10.608  21.101  0.00  0.00    +0.000 N 
ATOM     12  H   UNL     1      -1.338  11.340  21.029  0.00  0.00    +0.000 HD
ENDROOT
BRANCH   4  13
ATOM     13  C   UNL     1      -1.608  11.141  18.304  0.00  0.00    +0.000 A 
ATOM     14  N   UNL     1      -2.044  12.062  19.211  0.00  0.00    +0.000 NA
ATOM     15  C   UNL     1      -3.358  12.330  19.274  0.00  0.00    +0.000 A 
ATOM     16  N   UNL     1      -4.322  11.766  18.554  0.00  0.00    +0.000 NA
ATOM     17  C   UNL     1      -3.840  11.158  17.459  0.00  0.00    +0.000 A 
ATOM     18  N   UNL     1      -4.590  11.038  16.331  0.00  0.00    +0.000 NA
ATOM     19  C   UNL     1      -3.699  11.175  15.379  0.00  0.00    +0.000 A 
ATOM     20  N   UNL     1      -2.414  11.114  15.868  0.00  0.00    +0.000 N 
ATOM     21  C   UNL     1      -2.489  10.924  17.244  0.00  0.00    +0.000 A 
ATOM     22  H   UNL     1      -1.616  11.496  15.378  0.00  0.00    +0.000 HD
ENDBRANCH   4  13
BRANCH   7  23
ATOM     23  N   UNL     1       2.198   7.456  21.232  0.00  0.00    +0.000 N 
ATOM     24  C   UNL     1       1.312   6.416  20.956  0.00  0.00    +0.000 C 
ATOM     25  O   UNL     1       0.104   6.588  20.924  0.00  0.00    +0.000 OA
ATOM     26  H   UNL     1       3.184   7.304  21.107  0.00  0.00    +0.000 HD
BRANCH  24  27
ATOM     27  C   UNL     1       1.923   5.059  20.642  0.00  0.00    +0.000 C 
BRANCH  27  28
ATOM     28  C   UNL     1       2.812   5.027  19.421  0.00  0.00    +0.000 A 
ATOM     29  C   UNL     1       4.146   5.459  19.483  0.00  0.00    +0.000 A 
ATOM     30  C   UNL     1       4.969   5.396  18.361  0.00  0.00    +0.000 A 
ATOM     31  C   UNL     1       4.475   4.885  17.160  0.00  0.00    +0.000 A 
ATOM     32  C   UNL     1       3.166   4.424  17.089  0.00  0.00    +0.000 A 
ATOM     33  C   UNL     1       2.339   4.490  18.215  0.00  0.00    +0.000 A 
ENDBRANCH  27  28
ENDBRANCH  24  27
ENDBRANCH   7  23
TORSDOF 4
ENDMDL
MODEL 6
REMARK VINA RESULT:      -7.6      4.106     10.493
REMARK  Name = 
REMARK  5 active torsions:
REMARK  status: ('A' for Active; 'I' for Inactive)
REMARK    1  A    between atoms: C_1  and  C_2
REMARK    2  A    between atoms: N_4  and  C_5
REMARK    3  A    between atoms: C_16  and  N_17
REMARK    4  A    between atoms: C_18  and  C_20
REMARK    5  A    between atoms: C_20  and  C_21
REMARK                            x       y       z     vdW  Elec       q    Type
REMARK                         _______ _______ _______ _____ _____    ______ ____
ROOT
ATOM      1  C   UNL     1      -0.529  12.241  18.205  0.00  0.00    +0.000 C 
ATOM      2  C   UNL     1      -1.104  12.082  19.568  0.00  0.00    +0.000 A 
ATOM      3  N   UNL     1      -2.041  12.932  20.059  0.00  0.00    +0.000 NA
ATOM      4  N   UNL     1      -2.209  12.546  21.367  0.00  0.00    +0.000 N 
ATOM      5  C   UNL     1      -1.357  11.495  21.654  0.00  0.00    +0.000 A 
ATOM      6  C   UNL     1      -0.671  11.136  20.529  0.00  0.00    +0.000 A 
ATOM      7  C   UNL     1       0.455  10.149  20.587  0.00  0.00    +0.000 C 
ATOM      8  C   UNL     1       0.332   9.268  21.844  0.00  0.00    +0.000 C 
ATOM      9  C   UNL     1      -0.157  10.007  23.080  0.00  0.00    +0.000 C 
ATOM     10  O   UNL     1       0.204   9.693  24.211  0.00  0.00    +0.000 OA
ATOM     11  N   UNL     1      -1.123  10.966  22.901  0.00  0.00    +0.000 N 
ATOM     12  H   UNL     1      -1.575  11.371  23.719  0.00  0.00    +0.000 HD
ENDROOT
BRANCH   4  13
ATOM     13  C   UNL     1      -3.200  13.056  22.282  0.00  0.00    +0.000 A 
ATOM     14  N   UNL     1      -2.744  13.872  23.276  0.00  0.00    +0.000 NA
ATOM     15  C   UNL     1      -3.400  13.886  24.446  0.00  0.00    +0.000 A 
ATOM     16  N   UNL     1      -4.460  13.155  24.776  0.00  0.00    +0.000 NA
ATOM     17  C   UNL     1      -5.081  12.657  23.696  0.00  0.00    +0.000 A 
ATOM     18  N   UNL     1      -6.416  12.404  23.704  0.00  0.00    +0.000 NA
ATOM     19  C   UNL     1      -6.774  12.714  22.480  0.00  0.00    +0.000 A 
ATOM     20  N   UNL     1      -5.683  12.894  21.659  0.00  0.00    +0.000 N 
ATOM     21  C   UNL     1      -4.537  12.684  22.419  0.00  0.00    +0.000 A 
ATOM     22  H   UNL     1      -5.720  13.423  20.798  0.00  0.00    +0.000 HD
ENDBRANCH   4  13
BRANCH   7  23
ATOM     23  N   UNL     1       0.568   9.305  19.386  0.00  0.00    +0.000 N 
ATOM     24  C   UNL     1       1.666   9.493  18.548  0.00  0.00    +0.000 C 
ATOM     25  O   UNL     1       2.405  10.458  18.658  0.00  0.00    +0.000 OA
ATOM     26  H   UNL     1       0.074   8.430  19.355  0.00  0.00    +0.000 HD
BRANCH  24  27
ATOM     27  C   UNL     1       1.934   8.409  17.515  0.00  0.00    +0.000 C 
BRANCH  27  28
ATOM     28  C   UNL     1       2.955   7.375  17.927  0.00  0.00    +0.000 A 
ATOM     29  C   UNL     1       2.723   6.522  19.018  0.00  0.00    +0.000 A 
ATOM     30  C   UNL     1       3.655   5.549  19.372  0.00  0.00    +0.000 A 
ATOM     31  C   UNL     1       4.828   5.402  18.631  0.00  0.00    +0.000 A 
ATOM     32  C   UNL     1       5.059   6.216  17.530  0.00  0.00    +0.000 A 
ATOM     33  C   UNL     1       4.125   7.196  17.175  0.00  0.00    +0.000 A 
ENDBRANCH  27  28
ENDBRANCH  24  27
ENDBRANCH   7  23
TORSDOF 4
ENDMDL
MODEL 7
REMARK VINA RESULT:      -7.5      4.161     10.732
REMARK  Name = 
REMARK  5 active torsions:
REMARK  status: ('A' for Active; 'I' for Inactive)
REMARK    1  A    between atoms: C_1  and  C_2
REMARK    2  A    between atoms: N_4  and  C_5
REMARK    3  A    between atoms: C_16  and  N_17
REMARK    4  A    between atoms: C_18  and  C_20
REMARK    5  A    between atoms: C_20  and  C_21
REMARK                            x       y       z     vdW  Elec       q    Type
REMARK                         _______ _______ _______ _____ _____    ______ ____
ROOT
ATOM      1  C   UNL     1      -0.770  12.236  18.262  0.00  0.00    +0.000 C 
ATOM      2  C   UNL     1      -1.313  12.049  19.634  0.00  0.00    +0.000 A 
ATOM      3  N   UNL     1      -2.272  12.861  20.147  0.00  0.00    +0.000 NA
ATOM      4  N   UNL     1      -2.401  12.464  21.456  0.00  0.00    +0.000 N 
ATOM      5  C   UNL     1      -1.505  11.444  21.722  0.00  0.00    +0.000 A 
ATOM      6  C   UNL     1      -0.827  11.116  20.582  0.00  0.00    +0.000 A 
ATOM      7  C   UNL     1       0.337  10.171  20.615  0.00  0.00    +0.000 C 
ATOM      8  C   UNL     1       0.270   9.281  21.870  0.00  0.00    +0.000 C 
ATOM      9  C   UNL     1      -0.224   9.996  23.118  0.00  0.00    +0.000 C 
ATOM     10  O   UNL     1       0.169   9.691  24.241  0.00  0.00    +0.000 OA
ATOM     11  N   UNL     1      -1.228  10.919  22.962  0.00  0.00    +0.000 N 
ATOM     12  H   UNL     1      -1.680  11.303  23.790  0.00  0.00    +0.000 HD
ENDROOT
BRANCH   4  13
ATOM     13  C   UNL     1      -3.394  12.932  22.391  0.00  0.00    +0.000 A 
ATOM     14  N   UNL     1      -4.626  12.351  22.306  0.00  0.00    +0.000 NA
ATOM     15  C   UNL     1      -5.702  13.076  22.650  0.00  0.00    +0.000 A 
ATOM     16  N   UNL     1      -5.716  14.344  23.048  0.00  0.00    +0.000 NA
ATOM     17  C   UNL     1      -4.505  14.754  23.458  0.00  0.00    +0.000 A 
ATOM     18  N   UNL     1      -4.371  15.722  24.402  0.00  0.00    +0.000 NA
ATOM     19  C   UNL     1      -3.316  15.325  25.073  0.00  0.00    +0.000 A 
ATOM     20  N   UNL     1      -2.653  14.308  24.425  0.00  0.00    +0.000 N 
ATOM     21  C   UNL     1      -3.340  14.031  23.247  0.00  0.00    +0.000 A 
ATOM     22  H   UNL     1      -2.025  13.668  24.895  0.00  0.00    +0.000 HD
ENDBRANCH   4  13
BRANCH   7  23
ATOM     23  N   UNL     1       0.458   9.338  19.409  0.00  0.00    +0.000 N 
ATOM     24  C   UNL     1       1.554   9.544  18.572  0.00  0.00    +0.000 C 
ATOM     25  O   UNL     1       2.283  10.516  18.690  0.00  0.00    +0.000 OA
ATOM     26  H   UNL     1      -0.026   8.458  19.371  0.00  0.00    +0.000 HD
BRANCH  24  27
ATOM     27  C   UNL     1       1.835   8.470  17.532  0.00  0.00    +0.000 C 
BRANCH  27  28
ATOM     28  C   UNL     1       2.845   7.427  17.948  0.00  0.00    +0.000 A 
ATOM     29  C   UNL     1       2.586   6.552  19.015  0.00  0.00    +0.000 A 
ATOM     30  C   UNL     1       3.509   5.572  19.373  0.00  0.00    +0.000 A 
ATOM     31  C   UNL     1       4.700   5.439  18.658  0.00  0.00    +0.000 A 
ATOM     32  C   UNL     1       4.959   6.276  17.580  0.00  0.00    +0.000 A 
ATOM     33  C   UNL     1       4.033   7.263  17.222  0.00  0.00    +0.000 A 
ENDBRANCH  27  28
ENDBRANCH  24  27
ENDBRANCH   7  23
TORSDOF 4
ENDMDL
MODEL 8
REMARK VINA RESULT:      -7.5      1.512      1.925
REMARK  Name = 
REMARK  5 active torsions:
REMARK  status: ('A' for Active; 'I' for Inactive)
REMARK    1  A    between atoms: C_1  and  C_2
REMARK    2  A    between atoms: N_4  and  C_5
REMARK    3  A    between atoms: C_16  and  N_17
REMARK    4  A    between atoms: C_18  and  C_20
REMARK    5  A    between atoms: C_20  and  C_21
REMARK                            x       y       z     vdW  Elec       q    Type
REMARK                         _______ _______ _______ _____ _____    ______ ____
ROOT
ATOM      1  C   UNL     1       2.094   9.694  17.752  0.00  0.00    +0.000 C 
ATOM      2  C   UNL     1       2.748   8.400  18.084  0.00  0.00    +0.000 A 
ATOM      3  N   UNL     1       3.695   7.845  17.286  0.00  0.00    +0.000 NA
ATOM      4  N   UNL     1       3.944   6.615  17.846  0.00  0.00    +0.000 N 
ATOM      5  C   UNL     1       3.130   6.434  18.949  0.00  0.00    +0.000 A 
ATOM      6  C   UNL     1       2.388   7.560  19.167  0.00  0.00    +0.000 A 
ATOM      7  C   UNL     1       1.287   7.582  20.182  0.00  0.00    +0.000 C 
ATOM      8  C   UNL     1       1.498   6.470  21.226  0.00  0.00    +0.000 C 
ATOM      9  C   UNL     1       2.042   5.169  20.654  0.00  0.00    +0.000 C 
ATOM     10  O   UNL     1       1.753   4.076  21.132  0.00  0.00    +0.000 OA
ATOM     11  N   UNL     1       2.978   5.263  19.653  0.00  0.00    +0.000 N 
ATOM     12  H   UNL     1       3.468   4.422  19.354  0.00  0.00    +0.000 HD
ENDROOT
BRANCH   4  13
ATOM     13  C   UNL     1       4.975   5.692  17.442  0.00  0.00    +0.000 A 
ATOM     14  N   UNL     1       5.592   4.998  18.442  0.00  0.00    +0.000 NA
ATOM     15  C   UNL     1       6.871   4.629  18.274  0.00  0.00    +0.000 A 
ATOM     16  N   UNL     1       7.646   4.892  17.227  0.00  0.00    +0.000 NA
ATOM     17  C   UNL     1       6.929   5.240  16.147  0.00  0.00    +0.000 A 
ATOM     18  N   UNL     1       7.381   4.993  14.890  0.00  0.00    +0.000 NA
ATOM     19  C   UNL     1       6.278   4.701  14.241  0.00  0.00    +0.000 A 
ATOM     20  N   UNL     1       5.156   5.011  14.976  0.00  0.00    +0.000 N 
ATOM     21  C   UNL     1       5.575   5.542  16.192  0.00  0.00    +0.000 A 
ATOM     22  H   UNL     1       4.250   4.596  14.805  0.00  0.00    +0.000 HD
ENDBRANCH   4  13
BRANCH   7  23
ATOM     23  N   UNL     1       1.123   8.881  20.853  0.00  0.00    +0.000 N 
ATOM     24  C   UNL     1      -0.012   9.636  20.560  0.00  0.00    +0.000 C 
ATOM     25  O   UNL     1      -0.748   9.361  19.626  0.00  0.00    +0.000 OA
ATOM     26  H   UNL     1       1.617   9.054  21.711  0.00  0.00    +0.000 HD
BRANCH  24  27
ATOM     27  C   UNL     1      -0.324  10.796  21.494  0.00  0.00    +0.000 C 
BRANCH  27  28
ATOM     28  C   UNL     1       0.305  12.113  21.104  0.00  0.00    +0.000 A 
ATOM     29  C   UNL     1       0.041  13.286  21.830  0.00  0.00    +0.000 A 
ATOM     30  C   UNL     1       0.650  14.490  21.484  0.00  0.00    +0.000 A 
ATOM     31  C   UNL     1       1.546  14.539  20.416  0.00  0.00    +0.000 A 
ATOM     32  C   UNL     1       1.842  13.382  19.707  0.00  0.00    +0.000 A 
ATOM     33  C   UNL     1       1.229  12.173  20.051  0.00  0.00    +0.000 A 
ENDBRANCH  27  28
ENDBRANCH  24  27
ENDBRANCH   7  23
TORSDOF 4
ENDMDL
MODEL 9
REMARK VINA RESULT:      -7.4      4.246     10.526
REMARK  Name = 
REMARK  5 active torsions:
REMARK  status: ('A' for Active; 'I' for Inactive)
REMARK    1  A    between atoms: C_1  and  C_2
REMARK    2  A    between atoms: N_4  and  C_5
REMARK    3  A    between atoms: C_16  and  N_17
REMARK    4  A    between atoms: C_18  and  C_20
REMARK    5  A    between atoms: C_20  and  C_21
REMARK                            x       y       z     vdW  Elec       q    Type
REMARK                         _______ _______ _______ _____ _____    ______ ____
ROOT
ATOM      1  C   UNL     1      -0.735   9.025  22.447  0.00  0.00    +0.000 C 
ATOM      2  C   UNL     1      -0.475  10.469  22.201  0.00  0.00    +0.000 A 
ATOM      3  N   UNL     1      -0.931  11.437  23.035  0.00  0.00    +0.000 NA
ATOM      4  N   UNL     1      -0.617  12.616  22.405  0.00  0.00    +0.000 N 
ATOM      5  C   UNL     1      -0.005  12.347  21.194  0.00  0.00    +0.000 A 
ATOM      6  C   UNL     1       0.150  10.998  21.044  0.00  0.00    +0.000 A 
ATOM      7  C   UNL     1       0.615  10.407  19.747  0.00  0.00    +0.000 C 
ATOM      8  C   UNL     1       1.371  11.462  18.919  0.00  0.00    +0.000 C 
ATOM      9  C   UNL     1       0.783  12.863  19.003  0.00  0.00    +0.000 C 
ATOM     10  O   UNL     1       0.841  13.650  18.062  0.00  0.00    +0.000 OA
ATOM     11  N   UNL     1       0.291  13.269  20.219  0.00  0.00    +0.000 N 
ATOM     12  H   UNL     1       0.029  14.245  20.345  0.00  0.00    +0.000 HD
ENDROOT
BRANCH   4  13
ATOM     13  C   UNL     1      -0.773  13.940  22.954  0.00  0.00    +0.000 A 
ATOM     14  N   UNL     1       0.149  14.869  22.567  0.00  0.00    +0.000 NA
ATOM     15  C   UNL     1       0.460  15.858  23.419  0.00  0.00    +0.000 A 
ATOM     16  N   UNL     1      -0.015  16.032  24.648  0.00  0.00    +0.000 NA
ATOM     17  C   UNL     1      -1.148  15.341  24.849  0.00  0.00    +0.000 A 
ATOM     18  N   UNL     1      -2.091  15.774  25.727  0.00  0.00    +0.000 NA
ATOM     19  C   UNL     1      -3.211  15.427  25.138  0.00  0.00    +0.000 A 
ATOM     20  N   UNL     1      -2.989  14.580  24.077  0.00  0.00    +0.000 N 
ATOM     21  C   UNL     1      -1.617  14.368  23.978  0.00  0.00    +0.000 A 
ATOM     22  H   UNL     1      -3.652  14.449  23.324  0.00  0.00    +0.000 HD
ENDBRANCH   4  13
BRANCH   7  23
ATOM     23  N   UNL     1       1.442   9.201  19.907  0.00  0.00    +0.000 N 
ATOM     24  C   UNL     1       1.697   8.422  18.780  0.00  0.00    +0.000 C 
ATOM     25  O   UNL     1       1.092   8.584  17.732  0.00  0.00    +0.000 OA
ATOM     26  H   UNL     1       2.058   9.132  20.698  0.00  0.00    +0.000 HD
BRANCH  24  27
ATOM     27  C   UNL     1       2.805   7.387  18.897  0.00  0.00    +0.000 C 
BRANCH  27  28
ATOM     28  C   UNL     1       2.332   5.967  19.102  0.00  0.00    +0.000 A 
ATOM     29  C   UNL     1       1.928   5.513  20.368  0.00  0.00    +0.000 A 
ATOM     30  C   UNL     1       1.462   4.212  20.543  0.00  0.00    +0.000 A 
ATOM     31  C   UNL     1       1.378   3.347  19.451  0.00  0.00    +0.000 A 
ATOM     32  C   UNL     1       1.744   3.789  18.186  0.00  0.00    +0.000 A 
ATOM     33  C   UNL     1       2.214   5.095  18.010  0.00  0.00    +0.000 A 
ENDBRANCH  27  28
ENDBRANCH  24  27
ENDBRANCH   7  23
TORSDOF 4
ENDMDL
