MODEL 1
REMARK VINA RESULT:      -7.8      0.000      0.000
REMARK  Name = 
REMARK  7 active torsions:
REMARK  status: ('A' for Active; 'I' for Inactive)
REMARK    1  A    between atoms: C_1  and  O_2
REMARK    2  A    between atoms: O_2  and  C_3
REMARK    3  A    between atoms: C_3  and  C_5
REMARK    4  A    between atoms: N_9  and  C_10
REMARK    5  A    between atoms: C_17  and  C_18
REMARK    6  A    between atoms: C_21  and  S_22
REMARK    7  A    between atoms: S_22  and  N_23
REMARK                            x       y       z     vdW  Elec       q    Type
REMARK                         _______ _______ _______ _____ _____    ______ ____
ROOT
ATOM      1  C   UNL     1       2.852   3.638  19.926  0.00  0.00    +0.000 C 
ATOM      2  C   UNL     1       1.964   2.930  18.912  0.00  0.00    +0.000 C 
ATOM      3  C   UNL     1       2.776   2.954  17.641  0.00  0.00    +0.000 C 
ATOM      4  O   UNL     1       2.499   2.262  16.675  0.00  0.00    +0.000 OA
ATOM      5  N   UNL     1       3.819   3.875  17.797  0.00  0.00    +0.000 N 
ATOM      6  C   UNL     1       3.728   4.561  19.077  0.00  0.00    +0.000 C 
ENDROOT
BRANCH   5   7
ATOM      7  C   UNL     1       4.798   4.190  16.814  0.00  0.00    +0.000 A 
ATOM      8  C   UNL     1       6.120   4.483  17.178  0.00  0.00    +0.000 A 
ATOM      9  C   UNL     1       7.084   4.807  16.217  0.00  0.00    +0.000 A 
ATOM     10  C   UNL     1       6.729   4.861  14.875  0.00  0.00    +0.000 A 
ATOM     11 BR   UNL     1       8.017   5.338  13.579  0.00  0.00    +0.000 Br
ATOM     12  C   UNL     1       5.427   4.569  14.486  0.00  0.00    +0.000 A 
ATOM     13  C   UNL     1       4.472   4.221  15.450  0.00  0.00    +0.000 A 
ENDBRANCH   5   7
BRANCH   6  14
ATOM     14  C   UNL     1       3.115   5.959  18.955  0.00  0.00    +0.000 A 
ATOM     15  C   UNL     1       3.275   6.749  17.801  0.00  0.00    +0.000 A 
ATOM     16  C   UNL     1       2.684   8.008  17.705  0.00  0.00    +0.000 A 
ATOM     17  C   UNL     1       1.915   8.489  18.764  0.00  0.00    +0.000 A 
ATOM     18  C   UNL     1       1.761   7.738  19.930  0.00  0.00    +0.000 A 
ATOM     19  C   UNL     1       2.354   6.474  20.019  0.00  0.00    +0.000 A 
BRANCH  17  20
ATOM     20  S   UNL     1       1.153  10.077  18.619  0.00  0.00    +0.000 S 
ATOM     21  O   UNL     1      -0.086   9.947  17.885  0.00  0.00    +0.000 OA
ATOM     22  O   UNL     1       1.242  10.768  19.882  0.00  0.00    +0.000 OA
BRANCH  20  23
ATOM     23  N   UNL     1       2.222  10.860  17.587  0.00  0.00    +0.000 NA
ATOM     24  H   UNL     1       3.180  10.706  17.902  0.00  0.00    +0.000 HD
ATOM     25  H   UNL     1       2.050  10.573  16.624  0.00  0.00    +0.000 HD
ENDBRANCH  20  23
ENDBRANCH  17  20
ENDBRANCH   6  14
BRANCH   1  26
ATOM     26  C   UNL     1       3.704   2.642  20.684  0.00  0.00    +0.000 C 
ATOM     27  O   UNL     1       4.807   2.247  20.331  0.00  0.00    +0.000 OA
BRANCH  26  29
ATOM     28  C   UNL     1       1.836   2.926  22.065  0.00  0.00    +0.000 C 
ATOM     29  O   UNL     1       3.093   2.282  21.848  0.00  0.00    +0.000 OA
ENDBRANCH  26  29
ENDBRANCH   1  26
TORSDOF 6
ENDMDL
MODEL 2
REMARK VINA RESULT:      -7.7      1.143      1.834
REMARK  Name = 
REMARK  7 active torsions:
REMARK  status: ('A' for Active; 'I' for Inactive)
REMARK    1  A    between atoms: C_1  and  O_2
REMARK    2  A    between atoms: O_2  and  C_3
REMARK    3  A    between atoms: C_3  and  C_5
REMARK    4  A    between atoms: N_9  and  C_10
REMARK    5  A    between atoms: C_17  and  C_18
REMARK    6  A    between atoms: C_21  and  S_22
REMARK    7  A    between atoms: S_22  and  N_23
REMARK                            x       y       z     vdW  Elec       q    Type
REMARK                         _______ _______ _______ _____ _____    ______ ____
ROOT
ATOM      1  C   UNL     1       1.557   4.238  20.762  0.00  0.00    +0.000 C 
ATOM      2  C   UNL     1       0.714   3.615  19.658  0.00  0.00    +0.000 C 
ATOM      3  C   UNL     1       1.668   3.504  18.494  0.00  0.00    +0.000 C 
ATOM      4  O   UNL     1       1.423   2.824  17.511  0.00  0.00    +0.000 OA
ATOM      5  N   UNL     1       2.791   4.295  18.762  0.00  0.00    +0.000 N 
ATOM      6  C   UNL     1       2.635   5.024  20.013  0.00  0.00    +0.000 C 
ENDROOT
BRANCH   5   7
ATOM      7  C   UNL     1       3.911   4.461  17.902  0.00  0.00    +0.000 A 
ATOM      8  C   UNL     1       3.785   4.317  16.513  0.00  0.00    +0.000 A 
ATOM      9  C   UNL     1       4.886   4.466  15.663  0.00  0.00    +0.000 A 
ATOM     10  C   UNL     1       6.138   4.742  16.198  0.00  0.00    +0.000 A 
ATOM     11 BR   UNL     1       7.635   4.902  15.058  0.00  0.00    +0.000 Br
ATOM     12  C   UNL     1       6.291   4.896  17.571  0.00  0.00    +0.000 A 
ATOM     13  C   UNL     1       5.180   4.770  18.415  0.00  0.00    +0.000 A 
ENDBRANCH   5   7
BRANCH   6  14
ATOM     14  C   UNL     1       2.219   6.482  19.799  0.00  0.00    +0.000 A 
ATOM     15  C   UNL     1       2.440   7.153  18.581  0.00  0.00    +0.000 A 
ATOM     16  C   UNL     1       2.027   8.472  18.403  0.00  0.00    +0.000 A 
ATOM     17  C   UNL     1       1.378   9.135  19.443  0.00  0.00    +0.000 A 
ATOM     18  C   UNL     1       1.169   8.503  20.670  0.00  0.00    +0.000 A 
ATOM     19  C   UNL     1       1.582   7.177  20.841  0.00  0.00    +0.000 A 
BRANCH  17  20
ATOM     20  S   UNL     1       0.840  10.800  19.196  0.00  0.00    +0.000 S 
ATOM     21  O   UNL     1      -0.450  10.793  18.542  0.00  0.00    +0.000 OA
ATOM     22  O   UNL     1       1.107  11.572  20.386  0.00  0.00    +0.000 OA
BRANCH  20  23
ATOM     23  N   UNL     1       1.940  11.332  18.044  0.00  0.00    +0.000 NA
ATOM     24  H   UNL     1       2.667  11.890  18.492  0.00  0.00    +0.000 HD
ATOM     25  H   UNL     1       2.296  10.539  17.510  0.00  0.00    +0.000 HD
ENDBRANCH  20  23
ENDBRANCH  17  20
ENDBRANCH   6  14
BRANCH   1  26
ATOM     26  C   UNL     1       2.183   3.167  21.631  0.00  0.00    +0.000 C 
ATOM     27  O   UNL     1       1.566   2.401  22.358  0.00  0.00    +0.000 OA
BRANCH  26  29
ATOM     28  C   UNL     1       4.020   1.906  20.913  0.00  0.00    +0.000 C 
ATOM     29  O   UNL     1       3.533   3.138  21.449  0.00  0.00    +0.000 OA
ENDBRANCH  26  29
ENDBRANCH   1  26
TORSDOF 6
ENDMDL
MODEL 3
REMARK VINA RESULT:      -7.6      1.258      1.925
REMARK  Name = 
REMARK  7 active torsions:
REMARK  status: ('A' for Active; 'I' for Inactive)
REMARK    1  A    between atoms: C_1  and  O_2
REMARK    2  A    between atoms: O_2  and  C_3
REMARK    3  A    between atoms: C_3  and  C_5
REMARK    4  A    between atoms: N_9  and  C_10
REMARK    5  A    between atoms: C_17  and  C_18
REMARK    6  A    between atoms: C_21  and  S_22
REMARK    7  A    between atoms: S_22  and  N_23
REMARK                            x       y       z     vdW  Elec       q    Type
REMARK                         _______ _______ _______ _____ _____    ______ ____
ROOT
ATOM      1  C   UNL     1       1.615   4.079  20.756  0.00  0.00    +0.000 C 
ATOM      2  C   UNL     1       0.787   3.426  19.657  0.00  0.00    +0.000 C 
ATOM      3  C   UNL     1       1.747   3.314  18.499  0.00  0.00    +0.000 C 
ATOM      4  O   UNL     1       1.517   2.616  17.524  0.00  0.00    +0.000 OA
ATOM      5  N   UNL     1       2.856   4.127  18.759  0.00  0.00    +0.000 N 
ATOM      6  C   UNL     1       2.684   4.871  19.999  0.00  0.00    +0.000 C 
ENDROOT
BRANCH   5   7
ATOM      7  C   UNL     1       3.976   4.299  17.900  0.00  0.00    +0.000 A 
ATOM      8  C   UNL     1       5.260   4.515  18.420  0.00  0.00    +0.000 A 
ATOM      9  C   UNL     1       6.363   4.699  17.579  0.00  0.00    +0.000 A 
ATOM     10  C   UNL     1       6.191   4.687  16.201  0.00  0.00    +0.000 A 
ATOM     11 BR   UNL     1       7.670   4.975  15.063  0.00  0.00    +0.000 Br
ATOM     12  C   UNL     1       4.929   4.468  15.659  0.00  0.00    +0.000 A 
ATOM     13  C   UNL     1       3.833   4.261  16.505  0.00  0.00    +0.000 A 
ENDBRANCH   5   7
BRANCH   6  14
ATOM     14  C   UNL     1       2.244   6.319  19.762  0.00  0.00    +0.000 A 
ATOM     15  C   UNL     1       1.662   7.100  20.778  0.00  0.00    +0.000 A 
ATOM     16  C   UNL     1       1.295   8.424  20.544  0.00  0.00    +0.000 A 
ATOM     17  C   UNL     1       1.516   8.987  19.288  0.00  0.00    +0.000 A 
ATOM     18  C   UNL     1       2.068   8.228  18.255  0.00  0.00    +0.000 A 
ATOM     19  C   UNL     1       2.437   6.900  18.497  0.00  0.00    +0.000 A 
BRANCH  17  20
ATOM     20  S   UNL     1       1.067  10.674  19.012  0.00  0.00    +0.000 S 
ATOM     21  O   UNL     1       0.502  11.222  20.225  0.00  0.00    +0.000 OA
ATOM     22  O   UNL     1       2.115  11.334  18.272  0.00  0.00    +0.000 OA
BRANCH  20  23
ATOM     23  N   UNL     1      -0.216  10.501  17.941  0.00  0.00    +0.000 NA
ATOM     24  H   UNL     1      -0.714  11.386  17.853  0.00  0.00    +0.000 HD
ATOM     25  H   UNL     1       0.120  10.123  17.055  0.00  0.00    +0.000 HD
ENDBRANCH  20  23
ENDBRANCH  17  20
ENDBRANCH   6  14
BRANCH   1  26
ATOM     26  C   UNL     1       2.256   3.031  21.642  0.00  0.00    +0.000 C 
ATOM     27  O   UNL     1       1.648   2.259  22.370  0.00  0.00    +0.000 OA
BRANCH  26  29
ATOM     28  C   UNL     1       4.121   1.825  20.902  0.00  0.00    +0.000 C 
ATOM     29  O   UNL     1       3.608   3.030  21.474  0.00  0.00    +0.000 OA
ENDBRANCH  26  29
ENDBRANCH   1  26
TORSDOF 6
ENDMDL
MODEL 4
REMARK VINA RESULT:      -7.6      1.366      1.828
REMARK  Name = 
REMARK  7 active torsions:
REMARK  status: ('A' for Active; 'I' for Inactive)
REMARK    1  A    between atoms: C_1  and  O_2
REMARK    2  A    between atoms: O_2  and  C_3
REMARK    3  A    between atoms: C_3  and  C_5
REMARK    4  A    between atoms: N_9  and  C_10
REMARK    5  A    between atoms: C_17  and  C_18
REMARK    6  A    between atoms: C_21  and  S_22
REMARK    7  A    between atoms: S_22  and  N_23
REMARK                            x       y       z     vdW  Elec       q    Type
REMARK                         _______ _______ _______ _____ _____    ______ ____
ROOT
ATOM      1  C   UNL     1       1.531   4.135  20.821  0.00  0.00    +0.000 C 
ATOM      2  C   UNL     1       0.689   3.538  19.701  0.00  0.00    +0.000 C 
ATOM      3  C   UNL     1       1.649   3.436  18.542  0.00  0.00    +0.000 C 
ATOM      4  O   UNL     1       1.404   2.773  17.546  0.00  0.00    +0.000 OA
ATOM      5  N   UNL     1       2.778   4.211  18.830  0.00  0.00    +0.000 N 
ATOM      6  C   UNL     1       2.622   4.921  20.091  0.00  0.00    +0.000 C 
ENDROOT
BRANCH   5   7
ATOM      7  C   UNL     1       3.906   4.379  17.979  0.00  0.00    +0.000 A 
ATOM      8  C   UNL     1       5.169   4.686  18.504  0.00  0.00    +0.000 A 
ATOM      9  C   UNL     1       6.278   4.866  17.671  0.00  0.00    +0.000 A 
ATOM     10  C   UNL     1       6.132   4.759  16.294  0.00  0.00    +0.000 A 
ATOM     11 BR   UNL     1       7.617   5.042  15.163  0.00  0.00    +0.000 Br
ATOM     12  C   UNL     1       4.892   4.450  15.746  0.00  0.00    +0.000 A 
ATOM     13  C   UNL     1       3.790   4.246  16.587  0.00  0.00    +0.000 A 
ENDBRANCH   5   7
BRANCH   6  14
ATOM     14  C   UNL     1       2.222   6.386  19.898  0.00  0.00    +0.000 A 
ATOM     15  C   UNL     1       2.468   7.078  18.697  0.00  0.00    +0.000 A 
ATOM     16  C   UNL     1       2.070   8.404  18.537  0.00  0.00    +0.000 A 
ATOM     17  C   UNL     1       1.410   9.053  19.579  0.00  0.00    +0.000 A 
ATOM     18  C   UNL     1       1.176   8.401  20.790  0.00  0.00    +0.000 A 
ATOM     19  C   UNL     1       1.575   7.068  20.943  0.00  0.00    +0.000 A 
BRANCH  17  20
ATOM     20  S   UNL     1       0.890  10.728  19.355  0.00  0.00    +0.000 S 
ATOM     21  O   UNL     1       1.840  11.413  18.507  0.00  0.00    +0.000 OA
ATOM     22  O   UNL     1      -0.533  10.760  19.116  0.00  0.00    +0.000 OA
BRANCH  20  23
ATOM     23  N   UNL     1       1.114  11.350  20.899  0.00  0.00    +0.000 NA
ATOM     24  H   UNL     1       1.617  12.235  20.845  0.00  0.00    +0.000 HD
ATOM     25  H   UNL     1       0.217  11.411  21.382  0.00  0.00    +0.000 HD
ENDBRANCH  20  23
ENDBRANCH  17  20
ENDBRANCH   6  14
BRANCH   1  26
ATOM     26  C   UNL     1       2.140   3.043  21.676  0.00  0.00    +0.000 C 
ATOM     27  O   UNL     1       1.509   2.252  22.362  0.00  0.00    +0.000 OA
BRANCH  26  29
ATOM     28  C   UNL     1       4.008   1.818  20.973  0.00  0.00    +0.000 C 
ATOM     29  O   UNL     1       3.496   3.030  21.533  0.00  0.00    +0.000 OA
ENDBRANCH  26  29
ENDBRANCH   1  26
TORSDOF 6
ENDMDL
MODEL 5
REMARK VINA RESULT:      -7.6      0.662      1.222
REMARK  Name = 
REMARK  7 active torsions:
REMARK  status: ('A' for Active; 'I' for Inactive)
REMARK    1  A    between atoms: C_1  and  O_2
REMARK    2  A    between atoms: O_2  and  C_3
REMARK    3  A    between atoms: C_3  and  C_5
REMARK    4  A    between atoms: N_9  and  C_10
REMARK    5  A    between atoms: C_17  and  C_18
REMARK    6  A    between atoms: C_21  and  S_22
REMARK    7  A    between atoms: S_22  and  N_23
REMARK                            x       y       z     vdW  Elec       q    Type
REMARK                         _______ _______ _______ _____ _____    ______ ____
ROOT
ATOM      1  C   UNL     1       2.783   3.650  19.978  0.00  0.00    +0.000 C 
ATOM      2  C   UNL     1       1.892   2.958  18.955  0.00  0.00    +0.000 C 
ATOM      3  C   UNL     1       2.710   2.983  17.688  0.00  0.00    +0.000 C 
ATOM      4  O   UNL     1       2.430   2.300  16.715  0.00  0.00    +0.000 OA
ATOM      5  N   UNL     1       3.761   3.892  17.854  0.00  0.00    +0.000 N 
ATOM      6  C   UNL     1       3.672   4.570  19.139  0.00  0.00    +0.000 C 
ENDROOT
BRANCH   5   7
ATOM      7  C   UNL     1       4.747   4.205  16.878  0.00  0.00    +0.000 A 
ATOM      8  C   UNL     1       6.070   4.483  17.249  0.00  0.00    +0.000 A 
ATOM      9  C   UNL     1       7.041   4.805  16.295  0.00  0.00    +0.000 A 
ATOM     10  C   UNL     1       6.693   4.871  14.952  0.00  0.00    +0.000 A 
ATOM     11 BR   UNL     1       7.990   5.345  13.665  0.00  0.00    +0.000 Br
ATOM     12  C   UNL     1       5.390   4.593  14.555  0.00  0.00    +0.000 A 
ATOM     13  C   UNL     1       4.428   4.247  15.512  0.00  0.00    +0.000 A 
ENDBRANCH   5   7
BRANCH   6  14
ATOM     14  C   UNL     1       3.072   5.975  19.025  0.00  0.00    +0.000 A 
ATOM     15  C   UNL     1       2.279   6.536  20.043  0.00  0.00    +0.000 A 
ATOM     16  C   UNL     1       1.768   7.827  19.926  0.00  0.00    +0.000 A 
ATOM     17  C   UNL     1       2.052   8.578  18.787  0.00  0.00    +0.000 A 
ATOM     18  C   UNL     1       2.814   8.038  17.750  0.00  0.00    +0.000 A 
ATOM     19  C   UNL     1       3.328   6.743  17.875  0.00  0.00    +0.000 A 
BRANCH  17  20
ATOM     20  S   UNL     1       1.416  10.222  18.662  0.00  0.00    +0.000 S 
ATOM     21  O   UNL     1       0.917  10.641  19.953  0.00  0.00    +0.000 OA
ATOM     22  O   UNL     1       2.319  11.028  17.876  0.00  0.00    +0.000 OA
BRANCH  20  23
ATOM     23  N   UNL     1       0.061   9.976  17.700  0.00  0.00    +0.000 NA
ATOM     24  H   UNL     1      -0.733   9.712  18.283  0.00  0.00    +0.000 HD
ATOM     25  H   UNL     1      -0.107  10.798  17.119  0.00  0.00    +0.000 HD
ENDBRANCH  20  23
ENDBRANCH  17  20
ENDBRANCH   6  14
BRANCH   1  26
ATOM     26  C   UNL     1       3.622   2.639  20.732  0.00  0.00    +0.000 C 
ATOM     27  O   UNL     1       4.694   2.190  20.350  0.00  0.00    +0.000 OA
BRANCH  26  29
ATOM     28  C   UNL     1       1.635   2.587  21.969  0.00  0.00    +0.000 C 
ATOM     29  O   UNL     1       3.042   2.337  21.927  0.00  0.00    +0.000 OA
ENDBRANCH  26  29
ENDBRANCH   1  26
TORSDOF 6
ENDMDL
MODEL 6
REMARK VINA RESULT:      -7.5      5.145      7.622
REMARK  Name = 
REMARK  7 active torsions:
REMARK  status: ('A' for Active; 'I' for Inactive)
REMARK    1  A    between atoms: C_1  and  O_2
REMARK    2  A    between atoms: O_2  and  C_3
REMARK    3  A    between atoms: C_3  and  C_5
REMARK    4  A    between atoms: N_9  and  C_10
REMARK    5  A    between atoms: C_17  and  C_18
REMARK    6  A    between atoms: C_21  and  S_22
REMARK    7  A    between atoms: S_22  and  N_23
REMARK                            x       y       z     vdW  Elec       q    Type
REMARK                         _______ _______ _______ _____ _____    ______ ____
ROOT
ATOM      1  C   UNL     1      -0.544  12.211  21.314  0.00  0.00    +0.000 C 
ATOM      2  C   UNL     1      -1.547  12.035  20.181  0.00  0.00    +0.000 C 
ATOM      3  C   UNL     1      -1.067  10.800  19.462  0.00  0.00    +0.000 C 
ATOM      4  O   UNL     1      -1.760  10.205  18.651  0.00  0.00    +0.000 OA
ATOM      5  N   UNL     1       0.237  10.518  19.882  0.00  0.00    +0.000 N 
ATOM      6  C   UNL     1       0.729  11.541  20.793  0.00  0.00    +0.000 C 
ENDROOT
BRANCH   5   7
ATOM      7  C   UNL     1       1.038   9.435  19.426  0.00  0.00    +0.000 A 
ATOM      8  C   UNL     1       1.409   8.395  20.289  0.00  0.00    +0.000 A 
ATOM      9  C   UNL     1       2.209   7.334  19.849  0.00  0.00    +0.000 A 
ATOM     10  C   UNL     1       2.665   7.312  18.537  0.00  0.00    +0.000 A 
ATOM     11 BR   UNL     1       3.778   5.904  17.950  0.00  0.00    +0.000 Br
ATOM     12  C   UNL     1       2.307   8.327  17.657  0.00  0.00    +0.000 A 
ATOM     13  C   UNL     1       1.486   9.374  18.097  0.00  0.00    +0.000 A 
ENDBRANCH   5   7
BRANCH   6  14
ATOM     14  C   UNL     1       1.651  12.551  20.104  0.00  0.00    +0.000 A 
ATOM     15  C   UNL     1       1.805  12.592  18.706  0.00  0.00    +0.000 A 
ATOM     16  C   UNL     1       2.630  13.539  18.101  0.00  0.00    +0.000 A 
ATOM     17  C   UNL     1       3.308  14.465  18.893  0.00  0.00    +0.000 A 
ATOM     18  C   UNL     1       3.195  14.431  20.283  0.00  0.00    +0.000 A 
ATOM     19  C   UNL     1       2.361  13.480  20.883  0.00  0.00    +0.000 A 
BRANCH  17  20
ATOM     20  S   UNL     1       4.333  15.675  18.112  0.00  0.00    +0.000 S 
ATOM     21  O   UNL     1       4.230  16.924  18.831  0.00  0.00    +0.000 OA
ATOM     22  O   UNL     1       5.599  15.076  17.763  0.00  0.00    +0.000 OA
BRANCH  20  23
ATOM     23  N   UNL     1       3.518  15.907  16.661  0.00  0.00    +0.000 NA
ATOM     24  H   UNL     1       2.521  16.025  16.841  0.00  0.00    +0.000 HD
ATOM     25  H   UNL     1       3.940  16.678  16.145  0.00  0.00    +0.000 HD
ENDBRANCH  20  23
ENDBRANCH  17  20
ENDBRANCH   6  14
BRANCH   1  26
ATOM     26  C   UNL     1      -1.030  11.526  22.574  0.00  0.00    +0.000 C 
ATOM     27  O   UNL     1      -2.165  11.605  23.025  0.00  0.00    +0.000 OA
BRANCH  26  29
ATOM     28  C   UNL     1      -0.410   9.397  23.325  0.00  0.00    +0.000 C 
ATOM     29  O   UNL     1      -0.039  10.761  23.111  0.00  0.00    +0.000 OA
ENDBRANCH  26  29
ENDBRANCH   1  26
TORSDOF 6
ENDMDL
MODEL 7
REMARK VINA RESULT:      -7.4      5.171      7.659
REMARK  Name = 
REMARK  7 active torsions:
REMARK  status: ('A' for Active; 'I' for Inactive)
REMARK    1  A    between atoms: C_1  and  O_2
REMARK    2  A    between atoms: O_2  and  C_3
REMARK    3  A    between atoms: C_3  and  C_5
REMARK    4  A    between atoms: N_9  and  C_10
REMARK    5  A    between atoms: C_17  and  C_18
REMARK    6  A    between atoms: C_21  and  S_22
REMARK    7  A    between atoms: S_22  and  N_23
REMARK                            x       y       z     vdW  Elec       q    Type
REMARK                         _______ _______ _______ _____ _____    ______ ____
ROOT
ATOM      1  C   UNL     1      -0.629  12.218  21.317  0.00  0.00    +0.000 C 
ATOM      2  C   UNL     1      -1.631  12.001  20.192  0.00  0.00    +0.000 C 
ATOM      3  C   UNL     1      -1.127  10.764  19.491  0.00  0.00    +0.000 C 
ATOM      4  O   UNL     1      -1.808  10.141  18.693  0.00  0.00    +0.000 OA
ATOM      5  N   UNL     1       0.186  10.519  19.911  0.00  0.00    +0.000 N 
ATOM      6  C   UNL     1       0.658  11.568  20.803  0.00  0.00    +0.000 C 
ENDROOT
BRANCH   5   7
ATOM      7  C   UNL     1       1.009   9.447  19.470  0.00  0.00    +0.000 A 
ATOM      8  C   UNL     1       1.466   9.383  18.146  0.00  0.00    +0.000 A 
ATOM      9  C   UNL     1       2.265   8.324  17.702  0.00  0.00    +0.000 A 
ATOM     10  C   UNL     1       2.602   7.300  18.579  0.00  0.00    +0.000 A 
ATOM     11 BR   UNL     1       3.646   5.847  17.974  0.00  0.00    +0.000 Br
ATOM     12  C   UNL     1       2.168   7.341  19.899  0.00  0.00    +0.000 A 
ATOM     13  C   UNL     1       1.389   8.417  20.344  0.00  0.00    +0.000 A 
ENDBRANCH   5   7
BRANCH   6  14
ATOM     14  C   UNL     1       1.554  12.587  20.094  0.00  0.00    +0.000 A 
ATOM     15  C   UNL     1       1.571  12.723  18.693  0.00  0.00    +0.000 A 
ATOM     16  C   UNL     1       2.376  13.676  18.073  0.00  0.00    +0.000 A 
ATOM     17  C   UNL     1       3.172  14.515  18.853  0.00  0.00    +0.000 A 
ATOM     18  C   UNL     1       3.195  14.385  20.242  0.00  0.00    +0.000 A 
ATOM     19  C   UNL     1       2.381  13.428  20.858  0.00  0.00    +0.000 A 
BRANCH  17  20
ATOM     20  S   UNL     1       4.172  15.735  18.055  0.00  0.00    +0.000 S 
ATOM     21  O   UNL     1       3.506  16.186  16.854  0.00  0.00    +0.000 OA
ATOM     22  O   UNL     1       4.698  16.645  19.044  0.00  0.00    +0.000 OA
BRANCH  20  23
ATOM     23  N   UNL     1       5.474  14.806  17.542  0.00  0.00    +0.000 NA
ATOM     24  H   UNL     1       5.248  13.816  17.631  0.00  0.00    +0.000 HD
ATOM     25  H   UNL     1       5.751  15.086  16.600  0.00  0.00    +0.000 HD
ENDBRANCH  20  23
ENDBRANCH  17  20
ENDBRANCH   6  14
BRANCH   1  26
ATOM     26  C   UNL     1      -1.095  11.543  22.591  0.00  0.00    +0.000 C 
ATOM     27  O   UNL     1      -2.227  11.611  23.049  0.00  0.00    +0.000 OA
BRANCH  26  29
ATOM     28  C   UNL     1      -0.428   9.430  23.345  0.00  0.00    +0.000 C 
ATOM     29  O   UNL     1      -0.088  10.802  23.132  0.00  0.00    +0.000 OA
ENDBRANCH  26  29
ENDBRANCH   1  26
TORSDOF 6
ENDMDL
MODEL 8
REMARK VINA RESULT:      -7.4      1.373      2.255
REMARK  Name = 
REMARK  7 active torsions:
REMARK  status: ('A' for Active; 'I' for Inactive)
REMARK    1  A    between atoms: C_1  and  O_2
REMARK    2  A    between atoms: O_2  and  C_3
REMARK    3  A    between atoms: C_3  and  C_5
REMARK    4  A    between atoms: N_9  and  C_10
REMARK    5  A    between atoms: C_17  and  C_18
REMARK    6  A    between atoms: C_21  and  S_22
REMARK    7  A    between atoms: S_22  and  N_23
REMARK                            x       y       z     vdW  Elec       q    Type
REMARK                         _______ _______ _______ _____ _____    ______ ____
ROOT
ATOM      1  C   UNL     1       1.533   4.110  20.834  0.00  0.00    +0.000 C 
ATOM      2  C   UNL     1       0.709   3.496  19.710  0.00  0.00    +0.000 C 
ATOM      3  C   UNL     1       1.671   3.434  18.549  0.00  0.00    +0.000 C 
ATOM      4  O   UNL     1       1.445   2.773  17.548  0.00  0.00    +0.000 OA
ATOM      5  N   UNL     1       2.775   4.243  18.843  0.00  0.00    +0.000 N 
ATOM      6  C   UNL     1       2.598   4.937  20.110  0.00  0.00    +0.000 C 
ENDROOT
BRANCH   5   7
ATOM      7  C   UNL     1       3.895   4.454  17.992  0.00  0.00    +0.000 A 
ATOM      8  C   UNL     1       3.772   4.371  16.599  0.00  0.00    +0.000 A 
ATOM      9  C   UNL     1       4.874   4.564  15.758  0.00  0.00    +0.000 A 
ATOM     10  C   UNL     1       6.123   4.825  16.307  0.00  0.00    +0.000 A 
ATOM     11 BR   UNL     1       7.621   5.045  15.178  0.00  0.00    +0.000 Br
ATOM     12  C   UNL     1       6.273   4.919  17.686  0.00  0.00    +0.000 A 
ATOM     13  C   UNL     1       5.161   4.749  18.521  0.00  0.00    +0.000 A 
ENDBRANCH   5   7
BRANCH   6  14
ATOM     14  C   UNL     1       2.150   6.390  19.929  0.00  0.00    +0.000 A 
ATOM     15  C   UNL     1       1.498   7.105  20.951  0.00  0.00    +0.000 A 
ATOM     16  C   UNL     1       1.125   8.436  20.771  0.00  0.00    +0.000 A 
ATOM     17  C   UNL     1       1.410   9.072  19.563  0.00  0.00    +0.000 A 
ATOM     18  C   UNL     1       2.033   8.380  18.524  0.00  0.00    +0.000 A 
ATOM     19  C   UNL     1       2.408   7.045  18.713  0.00  0.00    +0.000 A 
BRANCH  17  20
ATOM     20  S   UNL     1       0.952  10.767  19.357  0.00  0.00    +0.000 S 
ATOM     21  O   UNL     1       1.934  11.430  18.530  0.00  0.00    +0.000 OA
ATOM     22  O   UNL     1      -0.467  10.852  19.104  0.00  0.00    +0.000 OA
BRANCH  20  23
ATOM     23  N   UNL     1       1.179  11.359  20.912  0.00  0.00    +0.000 NA
ATOM     24  H   UNL     1       0.425  12.003  21.150  0.00  0.00    +0.000 HD
ATOM     25  H   UNL     1       1.285  10.584  21.568  0.00  0.00    +0.000 HD
ENDBRANCH  20  23
ENDBRANCH  17  20
ENDBRANCH   6  14
BRANCH   1  26
ATOM     26  C   UNL     1       2.178   3.031  21.679  0.00  0.00    +0.000 C 
ATOM     27  O   UNL     1       1.574   2.224  22.371  0.00  0.00    +0.000 OA
BRANCH  26  29
ATOM     28  C   UNL     1       4.066   1.849  20.958  0.00  0.00    +0.000 C 
ATOM     29  O   UNL     1       3.531   3.050  21.520  0.00  0.00    +0.000 OA
ENDBRANCH  26  29
ENDBRANCH   1  26
TORSDOF 6
ENDMDL
MODEL 9
REMARK VINA RESULT:      -7.4      1.405      1.860
REMARK  Name = 
REMARK  7 active torsions:
REMARK  status: ('A' for Active; 'I' for Inactive)
REMARK    1  A    between atoms: C_1  and  O_2
REMARK    2  A    between atoms: O_2  and  C_3
REMARK    3  A    between atoms: C_3  and  C_5
REMARK    4  A    between atoms: N_9  and  C_10
REMARK    5  A    between atoms: C_17  and  C_18
REMARK    6  A    between atoms: C_21  and  S_22
REMARK    7  A    between atoms: S_22  and  N_23
REMARK                            x       y       z     vdW  Elec       q    Type
REMARK                         _______ _______ _______ _____ _____    ______ ____
ROOT
ATOM      1  C   UNL     1       1.723   4.471  20.691  0.00  0.00    +0.000 C 
ATOM      2  C   UNL     1       0.774   3.820  19.693  0.00  0.00    +0.000 C 
ATOM      3  C   UNL     1       1.596   3.703  18.434  0.00  0.00    +0.000 C 
ATOM      4  O   UNL     1       1.255   3.005  17.493  0.00  0.00    +0.000 OA
ATOM      5  N   UNL     1       2.731   4.512  18.567  0.00  0.00    +0.000 N 
ATOM      6  C   UNL     1       2.702   5.258  19.817  0.00  0.00    +0.000 C 
ENDROOT
BRANCH   5   7
ATOM      7  C   UNL     1       3.748   4.679  17.588  0.00  0.00    +0.000 A 
ATOM      8  C   UNL     1       4.405   3.572  17.032  0.00  0.00    +0.000 A 
ATOM      9  C   UNL     1       5.416   3.731  16.078  0.00  0.00    +0.000 A 
ATOM     10  C   UNL     1       5.797   5.007  15.681  0.00  0.00    +0.000 A 
ATOM     11 BR   UNL     1       7.189   5.227  14.424  0.00  0.00    +0.000 Br
ATOM     12  C   UNL     1       5.158   6.121  16.211  0.00  0.00    +0.000 A 
ATOM     13  C   UNL     1       4.129   5.956  17.148  0.00  0.00    +0.000 A 
ENDBRANCH   5   7
BRANCH   6  14
ATOM     14  C   UNL     1       2.244   6.707  19.630  0.00  0.00    +0.000 A 
ATOM     15  C   UNL     1       2.354   7.373  18.395  0.00  0.00    +0.000 A 
ATOM     16  C   UNL     1       1.906   8.684  18.244  0.00  0.00    +0.000 A 
ATOM     17  C   UNL     1       1.331   9.343  19.329  0.00  0.00    +0.000 A 
ATOM     18  C   UNL     1       1.233   8.716  20.572  0.00  0.00    +0.000 A 
ATOM     19  C   UNL     1       1.682   7.399  20.716  0.00  0.00    +0.000 A 
BRANCH  17  20
ATOM     20  S   UNL     1       0.746  10.997  19.117  0.00  0.00    +0.000 S 
ATOM     21  O   UNL     1      -0.008  11.391  20.286  0.00  0.00    +0.000 OA
ATOM     22  O   UNL     1       1.799  11.811  18.558  0.00  0.00    +0.000 OA
BRANCH  20  23
ATOM     23  N   UNL     1      -0.380  10.791  17.888  0.00  0.00    +0.000 NA
ATOM     24  H   UNL     1      -0.894   9.922  18.033  0.00  0.00    +0.000 HD
ATOM     25  H   UNL     1      -0.974  11.618  17.818  0.00  0.00    +0.000 HD
ENDBRANCH  20  23
ENDBRANCH  17  20
ENDBRANCH   6  14
BRANCH   1  26
ATOM     26  C   UNL     1       2.455   3.420  21.500  0.00  0.00    +0.000 C 
ATOM     27  O   UNL     1       1.946   2.713  22.359  0.00  0.00    +0.000 OA
BRANCH  26  29
ATOM     28  C   UNL     1       4.125   2.047  20.603  0.00  0.00    +0.000 C 
ATOM     29  O   UNL     1       3.755   3.335  21.102  0.00  0.00    +0.000 OA
ENDBRANCH  26  29
ENDBRANCH   1  26
TORSDOF 6
ENDMDL
