MODEL 1
REMARK VINA RESULT:      -6.9      0.000      0.000
REMARK  Name = 
REMARK  5 active torsions:
REMARK  status: ('A' for Active; 'I' for Inactive)
REMARK    1  A    between atoms: C_1  and  O_2
REMARK    2  A    between atoms: O_2  and  C_3
REMARK    3  A    between atoms: C_6  and  C_7
REMARK    4  A    between atoms: N_9  and  C_10
REMARK    5  A    between atoms: N_19  and  C_20
REMARK                            x       y       z     vdW  Elec       q    Type
REMARK                         _______ _______ _______ _____ _____    ______ ____
ROOT
ATOM      1  C   UNL     1       0.254  13.479  18.977  0.00  0.00    +0.000 C 
ATOM      2  N   UNL     1      -0.610  13.234  18.036  0.00  0.00    +0.000 NA
ATOM      3  N   UNL     1      -1.518  12.348  18.534  0.00  0.00    +0.000 N 
ATOM      4  C   UNL     1      -1.204  11.911  19.891  0.00  0.00    +0.000 C 
ATOM      5  C   UNL     1      -0.740  10.477  19.914  0.00  0.00    +0.000 C 
ATOM      6  O   UNL     1      -1.489   9.506  19.991  0.00  0.00    +0.000 OA
ATOM      7  N   UNL     1       0.633  10.463  19.935  0.00  0.00    +0.000 N 
ATOM      8  C   UNL     1       1.083  11.641  20.462  0.00  0.00    +0.000 C 
ATOM      9  O   UNL     1       2.145  11.872  21.033  0.00  0.00    +0.000 OA
ATOM     10  C   UNL     1       0.044  12.696  20.245  0.00  0.00    +0.000 C 
ENDROOT
BRANCH   1  14
ATOM     11  C   UNL     1       3.502  16.268  18.575  0.00  0.00    +0.000 A 
ATOM     12  C   UNL     1       2.327  16.632  19.234  0.00  0.00    +0.000 A 
ATOM     13  C   UNL     1       1.269  15.724  19.360  0.00  0.00    +0.000 A 
ATOM     14  C   UNL     1       1.378  14.439  18.816  0.00  0.00    +0.000 A 
ATOM     15  C   UNL     1       2.550  14.085  18.140  0.00  0.00    +0.000 A 
ATOM     16  C   UNL     1       3.600  14.999  18.009  0.00  0.00    +0.000 A 
BRANCH  11  18
ATOM     17  C   UNL     1       5.761  16.826  18.977  0.00  0.00    +0.000 C 
ATOM     18  O   UNL     1       4.474  17.228  18.513  0.00  0.00    +0.000 OA
ENDBRANCH  11  18
ENDBRANCH   1  14
BRANCH   3  19
ATOM     19  C   UNL     1      -2.504  11.772  17.730  0.00  0.00    +0.000 A 
ATOM     20  C   UNL     1      -3.850  11.762  18.126  0.00  0.00    +0.000 A 
ATOM     21  C   UNL     1      -4.853  11.211  17.315  0.00  0.00    +0.000 A 
ATOM     22  C   UNL     1      -4.525  10.652  16.083  0.00  0.00    +0.000 A 
ATOM     23  C   UNL     1      -3.200  10.635  15.671  0.00  0.00    +0.000 A 
ATOM     24  C   UNL     1      -2.205  11.181  16.491  0.00  0.00    +0.000 A 
ENDBRANCH   3  19
BRANCH   7  25
ATOM     25  C   UNL     1       1.432   9.367  19.517  0.00  0.00    +0.000 A 
ATOM     26  C   UNL     1       1.600   8.265  20.376  0.00  0.00    +0.000 A 
ATOM     27  C   UNL     1       2.228   7.100  19.947  0.00  0.00    +0.000 A 
ATOM     28  C   UNL     1       2.713   7.011  18.644  0.00  0.00    +0.000 A 
ATOM     29  C   UNL     1       2.570   8.097  17.783  0.00  0.00    +0.000 A 
ATOM     30  C   UNL     1       1.928   9.262  18.212  0.00  0.00    +0.000 A 
ENDBRANCH   7  25
TORSDOF 4
ENDMDL
MODEL 2
REMARK VINA RESULT:      -6.8      0.140      1.247
REMARK  Name = 
REMARK  5 active torsions:
REMARK  status: ('A' for Active; 'I' for Inactive)
REMARK    1  A    between atoms: C_1  and  O_2
REMARK    2  A    between atoms: O_2  and  C_3
REMARK    3  A    between atoms: C_6  and  C_7
REMARK    4  A    between atoms: N_9  and  C_10
REMARK    5  A    between atoms: N_19  and  C_20
REMARK                            x       y       z     vdW  Elec       q    Type
REMARK                         _______ _______ _______ _____ _____    ______ ____
ROOT
ATOM      1  C   UNL     1       0.224  13.484  19.061  0.00  0.00    +0.000 C 
ATOM      2  N   UNL     1      -0.630  13.256  18.107  0.00  0.00    +0.000 NA
ATOM      3  N   UNL     1      -1.535  12.351  18.575  0.00  0.00    +0.000 N 
ATOM      4  C   UNL     1      -1.230  11.883  19.924  0.00  0.00    +0.000 C 
ATOM      5  C   UNL     1      -0.754  10.452  19.916  0.00  0.00    +0.000 C 
ATOM      6  O   UNL     1      -1.495   9.474  19.963  0.00  0.00    +0.000 OA
ATOM      7  N   UNL     1       0.619  10.449  19.949  0.00  0.00    +0.000 N 
ATOM      8  C   UNL     1       1.054  11.618  20.509  0.00  0.00    +0.000 C 
ATOM      9  O   UNL     1       2.109  11.843  21.096  0.00  0.00    +0.000 OA
ATOM     10  C   UNL     1       0.008  12.670  20.309  0.00  0.00    +0.000 C 
ENDROOT
BRANCH   1  14
ATOM     11  C   UNL     1       3.454  16.290  18.629  0.00  0.00    +0.000 A 
ATOM     12  C   UNL     1       3.516  15.033  18.025  0.00  0.00    +0.000 A 
ATOM     13  C   UNL     1       2.465  14.120  18.170  0.00  0.00    +0.000 A 
ATOM     14  C   UNL     1       1.341  14.457  18.934  0.00  0.00    +0.000 A 
ATOM     15  C   UNL     1       1.293  15.710  19.553  0.00  0.00    +0.000 A 
ATOM     16  C   UNL     1       2.349  16.614  19.413  0.00  0.00    +0.000 A 
BRANCH  11  18
ATOM     17  C   UNL     1       5.506  17.110  19.460  0.00  0.00    +0.000 C 
ATOM     18  O   UNL     1       4.531  17.107  18.420  0.00  0.00    +0.000 OA
ENDBRANCH  11  18
ENDBRANCH   1  14
BRANCH   3  19
ATOM     19  C   UNL     1      -2.509  11.787  17.749  0.00  0.00    +0.000 A 
ATOM     20  C   UNL     1      -2.174  11.222  16.509  0.00  0.00    +0.000 A 
ATOM     21  C   UNL     1      -3.140  10.629  15.683  0.00  0.00    +0.000 A 
ATOM     22  C   UNL     1      -4.472  10.592  16.085  0.00  0.00    +0.000 A 
ATOM     23  C   UNL     1      -4.837  11.156  17.298  0.00  0.00    +0.000 A 
ATOM     24  C   UNL     1      -3.867  11.752  18.113  0.00  0.00    +0.000 A 
ENDBRANCH   3  19
BRANCH   7  25
ATOM     25  C   UNL     1       1.431   9.371  19.512  0.00  0.00    +0.000 A 
ATOM     26  C   UNL     1       1.598   8.248  20.345  0.00  0.00    +0.000 A 
ATOM     27  C   UNL     1       2.240   7.099  19.893  0.00  0.00    +0.000 A 
ATOM     28  C   UNL     1       2.739   7.047  18.594  0.00  0.00    +0.000 A 
ATOM     29  C   UNL     1       2.597   8.153  17.759  0.00  0.00    +0.000 A 
ATOM     30  C   UNL     1       1.942   9.302  18.211  0.00  0.00    +0.000 A 
ENDBRANCH   7  25
TORSDOF 4
ENDMDL
MODEL 3
REMARK VINA RESULT:      -6.8      2.698      6.536
REMARK  Name = 
REMARK  5 active torsions:
REMARK  status: ('A' for Active; 'I' for Inactive)
REMARK    1  A    between atoms: C_1  and  O_2
REMARK    2  A    between atoms: O_2  and  C_3
REMARK    3  A    between atoms: C_6  and  C_7
REMARK    4  A    between atoms: N_9  and  C_10
REMARK    5  A    between atoms: N_19  and  C_20
REMARK                            x       y       z     vdW  Elec       q    Type
REMARK                         _______ _______ _______ _____ _____    ______ ____
ROOT
ATOM      1  C   UNL     1      -0.730  13.224  20.526  0.00  0.00    +0.000 C 
ATOM      2  N   UNL     1       0.329  13.823  20.983  0.00  0.00    +0.000 NA
ATOM      3  N   UNL     1       1.222  13.915  19.958  0.00  0.00    +0.000 N 
ATOM      4  C   UNL     1       0.756  13.271  18.734  0.00  0.00    +0.000 C 
ATOM      5  C   UNL     1       1.525  12.005  18.451  0.00  0.00    +0.000 C 
ATOM      6  O   UNL     1       2.584  11.961  17.830  0.00  0.00    +0.000 OA
ATOM      7  N   UNL     1       0.794  10.938  18.912  0.00  0.00    +0.000 N 
ATOM      8  C   UNL     1      -0.527  11.287  18.953  0.00  0.00    +0.000 C 
ATOM      9  O   UNL     1      -1.516  10.562  18.889  0.00  0.00    +0.000 OA
ATOM     10  C   UNL     1      -0.631  12.773  19.093  0.00  0.00    +0.000 C 
ENDROOT
BRANCH   1  14
ATOM     11  C   UNL     1      -4.212  12.552  22.959  0.00  0.00    +0.000 A 
ATOM     12  C   UNL     1      -2.938  12.239  23.435  0.00  0.00    +0.000 A 
ATOM     13  C   UNL     1      -1.807  12.455  22.640  0.00  0.00    +0.000 A 
ATOM     14  C   UNL     1      -1.944  12.981  21.350  0.00  0.00    +0.000 A 
ATOM     15  C   UNL     1      -3.224  13.275  20.870  0.00  0.00    +0.000 A 
ATOM     16  C   UNL     1      -4.352  13.049  21.664  0.00  0.00    +0.000 A 
BRANCH  11  18
ATOM     17  C   UNL     1      -6.444  13.037  23.555  0.00  0.00    +0.000 C 
ATOM     18  O   UNL     1      -5.248  12.308  23.817  0.00  0.00    +0.000 OA
ENDBRANCH  11  18
ENDBRANCH   1  14
BRANCH   3  19
ATOM     19  C   UNL     1       2.523  14.386  20.153  0.00  0.00    +0.000 A 
ATOM     20  C   UNL     1       3.124  15.261  19.236  0.00  0.00    +0.000 A 
ATOM     21  C   UNL     1       4.419  15.762  19.435  0.00  0.00    +0.000 A 
ATOM     22  C   UNL     1       5.144  15.390  20.563  0.00  0.00    +0.000 A 
ATOM     23  C   UNL     1       4.582  14.514  21.480  0.00  0.00    +0.000 A 
ATOM     24  C   UNL     1       3.291  14.014  21.270  0.00  0.00    +0.000 A 
ENDBRANCH   3  19
BRANCH   7  25
ATOM     25  C   UNL     1       1.341   9.670  19.239  0.00  0.00    +0.000 A 
ATOM     26  C   UNL     1       1.121   9.129  20.520  0.00  0.00    +0.000 A 
ATOM     27  C   UNL     1       1.488   7.823  20.828  0.00  0.00    +0.000 A 
ATOM     28  C   UNL     1       2.094   7.025  19.861  0.00  0.00    +0.000 A 
ATOM     29  C   UNL     1       2.334   7.546  18.592  0.00  0.00    +0.000 A 
ATOM     30  C   UNL     1       1.954   8.854  18.280  0.00  0.00    +0.000 A 
ENDBRANCH   7  25
TORSDOF 4
ENDMDL
MODEL 4
REMARK VINA RESULT:      -6.7      2.590      6.497
REMARK  Name = 
REMARK  5 active torsions:
REMARK  status: ('A' for Active; 'I' for Inactive)
REMARK    1  A    between atoms: C_1  and  O_2
REMARK    2  A    between atoms: O_2  and  C_3
REMARK    3  A    between atoms: C_6  and  C_7
REMARK    4  A    between atoms: N_9  and  C_10
REMARK    5  A    between atoms: N_19  and  C_20
REMARK                            x       y       z     vdW  Elec       q    Type
REMARK                         _______ _______ _______ _____ _____    ______ ____
ROOT
ATOM      1  C   UNL     1      -0.779  13.265  20.362  0.00  0.00    +0.000 C 
ATOM      2  N   UNL     1       0.261  13.866  20.861  0.00  0.00    +0.000 NA
ATOM      3  N   UNL     1       1.206  13.930  19.881  0.00  0.00    +0.000 N 
ATOM      4  C   UNL     1       0.797  13.262  18.649  0.00  0.00    +0.000 C 
ATOM      5  C   UNL     1       1.570  11.985  18.433  0.00  0.00    +0.000 C 
ATOM      6  O   UNL     1       2.660  11.920  17.869  0.00  0.00    +0.000 OA
ATOM      7  N   UNL     1       0.808  10.934  18.879  0.00  0.00    +0.000 N 
ATOM      8  C   UNL     1      -0.510  11.292  18.844  0.00  0.00    +0.000 C 
ATOM      9  O   UNL     1      -1.501  10.573  18.744  0.00  0.00    +0.000 OA
ATOM     10  C   UNL     1      -0.610  12.782  18.947  0.00  0.00    +0.000 C 
ENDROOT
BRANCH   1  14
ATOM     11  C   UNL     1      -4.435  12.602  22.528  0.00  0.00    +0.000 A 
ATOM     12  C   UNL     1      -4.460  13.033  21.201  0.00  0.00    +0.000 A 
ATOM     13  C   UNL     1      -3.269  13.253  20.499  0.00  0.00    +0.000 A 
ATOM     14  C   UNL     1      -2.035  13.049  21.128  0.00  0.00    +0.000 A 
ATOM     15  C   UNL     1      -2.015  12.635  22.463  0.00  0.00    +0.000 A 
ATOM     16  C   UNL     1      -3.207  12.427  23.163  0.00  0.00    +0.000 A 
BRANCH  11  18
ATOM     17  C   UNL     1      -6.782  12.701  22.297  0.00  0.00    +0.000 C 
ATOM     18  O   UNL     1      -5.653  12.413  23.118  0.00  0.00    +0.000 OA
ENDBRANCH  11  18
ENDBRANCH   1  14
BRANCH   3  19
ATOM     19  C   UNL     1       2.498  14.396  20.132  0.00  0.00    +0.000 A 
ATOM     20  C   UNL     1       3.201  14.008  21.282  0.00  0.00    +0.000 A 
ATOM     21  C   UNL     1       4.510  14.448  21.531  0.00  0.00    +0.000 A 
ATOM     22  C   UNL     1       5.144  15.295  20.627  0.00  0.00    +0.000 A 
ATOM     23  C   UNL     1       4.468  15.708  19.488  0.00  0.00    +0.000 A 
ATOM     24  C   UNL     1       3.160  15.269  19.251  0.00  0.00    +0.000 A 
ENDBRANCH   3  19
BRANCH   7  25
ATOM     25  C   UNL     1       1.328   9.669  19.260  0.00  0.00    +0.000 A 
ATOM     26  C   UNL     1       1.074   9.178  20.555  0.00  0.00    +0.000 A 
ATOM     27  C   UNL     1       1.413   7.879  20.917  0.00  0.00    +0.000 A 
ATOM     28  C   UNL     1       2.023   7.036  19.991  0.00  0.00    +0.000 A 
ATOM     29  C   UNL     1       2.296   7.508  18.709  0.00  0.00    +0.000 A 
ATOM     30  C   UNL     1       1.944   8.810  18.343  0.00  0.00    +0.000 A 
ENDBRANCH   7  25
TORSDOF 4
ENDMDL
MODEL 5
REMARK VINA RESULT:      -6.6      2.808      6.616
REMARK  Name = 
REMARK  5 active torsions:
REMARK  status: ('A' for Active; 'I' for Inactive)
REMARK    1  A    between atoms: C_1  and  O_2
REMARK    2  A    between atoms: O_2  and  C_3
REMARK    3  A    between atoms: C_6  and  C_7
REMARK    4  A    between atoms: N_9  and  C_10
REMARK    5  A    between atoms: N_19  and  C_20
REMARK                            x       y       z     vdW  Elec       q    Type
REMARK                         _______ _______ _______ _____ _____    ______ ____
ROOT
ATOM      1  C   UNL     1      -0.634  13.395  20.691  0.00  0.00    +0.000 C 
ATOM      2  N   UNL     1       0.475  13.854  21.189  0.00  0.00    +0.000 NA
ATOM      3  N   UNL     1       1.369  13.964  20.167  0.00  0.00    +0.000 N 
ATOM      4  C   UNL     1       0.843  13.480  18.894  0.00  0.00    +0.000 C 
ATOM      5  C   UNL     1       1.498  12.185  18.485  0.00  0.00    +0.000 C 
ATOM      6  O   UNL     1       2.547  12.107  17.849  0.00  0.00    +0.000 OA
ATOM      7  N   UNL     1       0.678  11.147  18.854  0.00  0.00    +0.000 N 
ATOM      8  C   UNL     1      -0.607  11.603  18.943  0.00  0.00    +0.000 C 
ATOM      9  O   UNL     1      -1.656  10.975  18.823  0.00  0.00    +0.000 OA
ATOM     10  C   UNL     1      -0.580  13.073  19.222  0.00  0.00    +0.000 C 
ENDROOT
BRANCH   1  14
ATOM     11  C   UNL     1      -4.148  12.789  23.096  0.00  0.00    +0.000 A 
ATOM     12  C   UNL     1      -2.955  12.131  23.398  0.00  0.00    +0.000 A 
ATOM     13  C   UNL     1      -1.814  12.326  22.612  0.00  0.00    +0.000 A 
ATOM     14  C   UNL     1      -1.861  13.181  21.504  0.00  0.00    +0.000 A 
ATOM     15  C   UNL     1      -3.064  13.823  21.194  0.00  0.00    +0.000 A 
ATOM     16  C   UNL     1      -4.204  13.617  21.976  0.00  0.00    +0.000 A 
BRANCH  11  18
ATOM     17  C   UNL     1      -6.492  12.787  23.381  0.00  0.00    +0.000 C 
ATOM     18  O   UNL     1      -5.201  12.532  23.930  0.00  0.00    +0.000 OA
ENDBRANCH  11  18
ENDBRANCH   1  14
BRANCH   3  19
ATOM     19  C   UNL     1       2.706  14.301  20.388  0.00  0.00    +0.000 A 
ATOM     20  C   UNL     1       3.378  13.886  21.548  0.00  0.00    +0.000 A 
ATOM     21  C   UNL     1       4.729  14.195  21.768  0.00  0.00    +0.000 A 
ATOM     22  C   UNL     1       5.437  14.934  20.825  0.00  0.00    +0.000 A 
ATOM     23  C   UNL     1       4.795  15.371  19.675  0.00  0.00    +0.000 A 
ATOM     24  C   UNL     1       3.446  15.063  19.467  0.00  0.00    +0.000 A 
ENDBRANCH   3  19
BRANCH   7  25
ATOM     25  C   UNL     1       1.114   9.811  19.054  0.00  0.00    +0.000 A 
ATOM     26  C   UNL     1       1.759   9.128  18.005  0.00  0.00    +0.000 A 
ATOM     27  C   UNL     1       2.354   7.886  18.206  0.00  0.00    +0.000 A 
ATOM     28  C   UNL     1       2.313   7.292  19.465  0.00  0.00    +0.000 A 
ATOM     29  C   UNL     1       1.667   7.944  20.512  0.00  0.00    +0.000 A 
ATOM     30  C   UNL     1       1.079   9.197  20.312  0.00  0.00    +0.000 A 
ENDBRANCH   7  25
TORSDOF 4
ENDMDL
MODEL 6
REMARK VINA RESULT:      -6.6      3.556      4.672
REMARK  Name = 
REMARK  5 active torsions:
REMARK  status: ('A' for Active; 'I' for Inactive)
REMARK    1  A    between atoms: C_1  and  O_2
REMARK    2  A    between atoms: O_2  and  C_3
REMARK    3  A    between atoms: C_6  and  C_7
REMARK    4  A    between atoms: N_9  and  C_10
REMARK    5  A    between atoms: N_19  and  C_20
REMARK                            x       y       z     vdW  Elec       q    Type
REMARK                         _______ _______ _______ _____ _____    ______ ____
ROOT
ATOM      1  C   UNL     1      -2.248  15.384  21.313  0.00  0.00    +0.000 C 
ATOM      2  N   UNL     1      -3.419  15.043  20.861  0.00  0.00    +0.000 NA
ATOM      3  N   UNL     1      -4.059  14.363  21.853  0.00  0.00    +0.000 N 
ATOM      4  C   UNL     1      -3.231  14.172  23.041  0.00  0.00    +0.000 C 
ATOM      5  C   UNL     1      -2.810  12.733  23.192  0.00  0.00    +0.000 C 
ATOM      6  O   UNL     1      -3.473  11.871  23.764  0.00  0.00    +0.000 OA
ATOM      7  N   UNL     1      -1.544  12.593  22.679  0.00  0.00    +0.000 N 
ATOM      8  C   UNL     1      -0.910  13.803  22.719  0.00  0.00    +0.000 C 
ATOM      9  O   UNL     1       0.294  14.039  22.767  0.00  0.00    +0.000 OA
ATOM     10  C   UNL     1      -1.940  14.889  22.700  0.00  0.00    +0.000 C 
ENDROOT
BRANCH   1  14
ATOM     11  C   UNL     1       0.534  17.680  18.971  0.00  0.00    +0.000 A 
ATOM     12  C   UNL     1       0.190  16.380  18.597  0.00  0.00    +0.000 A 
ATOM     13  C   UNL     1      -0.713  15.633  19.363  0.00  0.00    +0.000 A 
ATOM     14  C   UNL     1      -1.275  16.182  20.522  0.00  0.00    +0.000 A 
ATOM     15  C   UNL     1      -0.912  17.478  20.903  0.00  0.00    +0.000 A 
ATOM     16  C   UNL     1      -0.002  18.216  20.140  0.00  0.00    +0.000 A 
BRANCH  11  18
ATOM     17  C   UNL     1       1.055  18.369  16.774  0.00  0.00    +0.000 C 
ATOM     18  O   UNL     1       1.420  18.323  18.152  0.00  0.00    +0.000 OA
ENDBRANCH  11  18
ENDBRANCH   1  14
BRANCH   3  19
ATOM     19  C   UNL     1      -5.290  13.737  21.643  0.00  0.00    +0.000 A 
ATOM     20  C   UNL     1      -5.501  12.898  20.540  0.00  0.00    +0.000 A 
ATOM     21  C   UNL     1      -6.724  12.243  20.334  0.00  0.00    +0.000 A 
ATOM     22  C   UNL     1      -7.770  12.421  21.235  0.00  0.00    +0.000 A 
ATOM     23  C   UNL     1      -7.596  13.257  22.328  0.00  0.00    +0.000 A 
ATOM     24  C   UNL     1      -6.374  13.911  22.522  0.00  0.00    +0.000 A 
ENDBRANCH   3  19
BRANCH   7  25
ATOM     25  C   UNL     1      -0.989  11.365  22.232  0.00  0.00    +0.000 A 
ATOM     26  C   UNL     1      -0.636  11.217  20.877  0.00  0.00    +0.000 A 
ATOM     27  C   UNL     1       0.065  10.102  20.429  0.00  0.00    +0.000 A 
ATOM     28  C   UNL     1       0.426   9.101  21.327  0.00  0.00    +0.000 A 
ATOM     29  C   UNL     1       0.074   9.222  22.669  0.00  0.00    +0.000 A 
ATOM     30  C   UNL     1      -0.621  10.347  23.120  0.00  0.00    +0.000 A 
ENDBRANCH   7  25
TORSDOF 4
ENDMDL
MODEL 7
REMARK VINA RESULT:      -6.6      7.227     10.839
REMARK  Name = 
REMARK  5 active torsions:
REMARK  status: ('A' for Active; 'I' for Inactive)
REMARK    1  A    between atoms: C_1  and  O_2
REMARK    2  A    between atoms: O_2  and  C_3
REMARK    3  A    between atoms: C_6  and  C_7
REMARK    4  A    between atoms: N_9  and  C_10
REMARK    5  A    between atoms: N_19  and  C_20
REMARK                            x       y       z     vdW  Elec       q    Type
REMARK                         _______ _______ _______ _____ _____    ______ ____
ROOT
ATOM      1  C   UNL     1       8.506  12.877  23.344  0.00  0.00    +0.000 C 
ATOM      2  N   UNL     1       8.876  12.138  22.341  0.00  0.00    +0.000 NA
ATOM      3  N   UNL     1       9.672  12.902  21.541  0.00  0.00    +0.000 N 
ATOM      4  C   UNL     1       9.794  14.281  22.007  0.00  0.00    +0.000 C 
ATOM      5  C   UNL     1       9.053  15.233  21.103  0.00  0.00    +0.000 C 
ATOM      6  O   UNL     1       9.530  15.746  20.093  0.00  0.00    +0.000 OA
ATOM      7  N   UNL     1       7.823  15.492  21.656  0.00  0.00    +0.000 N 
ATOM      8  C   UNL     1       7.888  15.279  23.005  0.00  0.00    +0.000 C 
ATOM      9  O   UNL     1       7.198  15.770  23.895  0.00  0.00    +0.000 OA
ATOM     10  C   UNL     1       8.985  14.302  23.289  0.00  0.00    +0.000 C 
ENDROOT
BRANCH   1  14
ATOM     11  C   UNL     1       6.055  11.350  26.531  0.00  0.00    +0.000 A 
ATOM     12  C   UNL     1       5.725  11.104  25.198  0.00  0.00    +0.000 A 
ATOM     13  C   UNL     1       6.522  11.605  24.162  0.00  0.00    +0.000 A 
ATOM     14  C   UNL     1       7.658  12.369  24.455  0.00  0.00    +0.000 A 
ATOM     15  C   UNL     1       7.973  12.629  25.793  0.00  0.00    +0.000 A 
ATOM     16  C   UNL     1       7.169  12.134  26.823  0.00  0.00    +0.000 A 
BRANCH  11  18
ATOM     17  C   UNL     1       4.085  10.114  26.940  0.00  0.00    +0.000 C 
ATOM     18  O   UNL     1       5.213  10.811  27.465  0.00  0.00    +0.000 OA
ENDBRANCH  11  18
ENDBRANCH   1  14
BRANCH   3  19
ATOM     19  C   UNL     1      10.128  12.447  20.302  0.00  0.00    +0.000 A 
ATOM     20  C   UNL     1      11.488  12.193  20.075  0.00  0.00    +0.000 A 
ATOM     21  C   UNL     1      11.953  11.710  18.843  0.00  0.00    +0.000 A 
ATOM     22  C   UNL     1      11.057  11.473  17.804  0.00  0.00    +0.000 A 
ATOM     23  C   UNL     1       9.707  11.730  17.994  0.00  0.00    +0.000 A 
ATOM     24  C   UNL     1       9.253  12.218  19.225  0.00  0.00    +0.000 A 
ENDBRANCH   3  19
BRANCH   7  25
ATOM     25  C   UNL     1       6.696  15.954  20.929  0.00  0.00    +0.000 A 
ATOM     26  C   UNL     1       5.770  15.023  20.419  0.00  0.00    +0.000 A 
ATOM     27  C   UNL     1       4.568  15.433  19.853  0.00  0.00    +0.000 A 
ATOM     28  C   UNL     1       4.262  16.789  19.774  0.00  0.00    +0.000 A 
ATOM     29  C   UNL     1       5.171  17.727  20.259  0.00  0.00    +0.000 A 
ATOM     30  C   UNL     1       6.374  17.314  20.839  0.00  0.00    +0.000 A 
ENDBRANCH   7  25
TORSDOF 4
ENDMDL
MODEL 8
REMARK VINA RESULT:      -6.6      7.355     10.821
REMARK  Name = 
REMARK  5 active torsions:
REMARK  status: ('A' for Active; 'I' for Inactive)
REMARK    1  A    between atoms: C_1  and  O_2
REMARK    2  A    between atoms: O_2  and  C_3
REMARK    3  A    between atoms: C_6  and  C_7
REMARK    4  A    between atoms: N_9  and  C_10
REMARK    5  A    between atoms: N_19  and  C_20
REMARK                            x       y       z     vdW  Elec       q    Type
REMARK                         _______ _______ _______ _____ _____    ______ ____
ROOT
ATOM      1  C   UNL     1       8.449  12.764  23.299  0.00  0.00    +0.000 C 
ATOM      2  N   UNL     1       8.863  12.032  22.308  0.00  0.00    +0.000 NA
ATOM      3  N   UNL     1       9.676  12.809  21.537  0.00  0.00    +0.000 N 
ATOM      4  C   UNL     1       9.762  14.188  22.008  0.00  0.00    +0.000 C 
ATOM      5  C   UNL     1       9.039  15.132  21.080  0.00  0.00    +0.000 C 
ATOM      6  O   UNL     1       9.543  15.652  20.088  0.00  0.00    +0.000 OA
ATOM      7  N   UNL     1       7.787  15.372  21.592  0.00  0.00    +0.000 N 
ATOM      8  C   UNL     1       7.809  15.158  22.942  0.00  0.00    +0.000 C 
ATOM      9  O   UNL     1       7.083  15.639  23.808  0.00  0.00    +0.000 OA
ATOM     10  C   UNL     1       8.910  14.196  23.262  0.00  0.00    +0.000 C 
ENDROOT
BRANCH   1  14
ATOM     11  C   UNL     1       5.910  11.316  26.454  0.00  0.00    +0.000 A 
ATOM     12  C   UNL     1       7.091  11.999  26.746  0.00  0.00    +0.000 A 
ATOM     13  C   UNL     1       7.918  12.466  25.718  0.00  0.00    +0.000 A 
ATOM     14  C   UNL     1       7.571  12.243  24.380  0.00  0.00    +0.000 A 
ATOM     15  C   UNL     1       6.396  11.542  24.093  0.00  0.00    +0.000 A 
ATOM     16  C   UNL     1       5.578  11.069  25.123  0.00  0.00    +0.000 A 
BRANCH  11  18
ATOM     17  C   UNL     1       4.091  10.029  27.234  0.00  0.00    +0.000 C 
ATOM     18  O   UNL     1       5.173  10.908  27.531  0.00  0.00    +0.000 OA
ENDBRANCH  11  18
ENDBRANCH   1  14
BRANCH   3  19
ATOM     19  C   UNL     1      10.179  12.362  20.313  0.00  0.00    +0.000 A 
ATOM     20  C   UNL     1       9.328  12.093  19.231  0.00  0.00    +0.000 A 
ATOM     21  C   UNL     1       9.824  11.671  17.989  0.00  0.00    +0.000 A 
ATOM     22  C   UNL     1      11.194  11.505  17.806  0.00  0.00    +0.000 A 
ATOM     23  C   UNL     1      12.060  11.748  18.863  0.00  0.00    +0.000 A 
ATOM     24  C   UNL     1      11.554  12.164  20.100  0.00  0.00    +0.000 A 
ENDBRANCH   3  19
BRANCH   7  25
ATOM     25  C   UNL     1       6.679  15.820  20.827  0.00  0.00    +0.000 A 
ATOM     26  C   UNL     1       6.316  17.180  20.864  0.00  0.00    +0.000 A 
ATOM     27  C   UNL     1       5.351  17.696  20.005  0.00  0.00    +0.000 A 
ATOM     28  C   UNL     1       4.717  16.860  19.089  0.00  0.00    +0.000 A 
ATOM     29  C   UNL     1       5.051  15.509  19.047  0.00  0.00    +0.000 A 
ATOM     30  C   UNL     1       6.029  14.994  19.903  0.00  0.00    +0.000 A 
ENDBRANCH   7  25
TORSDOF 4
ENDMDL
MODEL 9
REMARK VINA RESULT:      -6.6      2.676      6.556
REMARK  Name = 
REMARK  5 active torsions:
REMARK  status: ('A' for Active; 'I' for Inactive)
REMARK    1  A    between atoms: C_1  and  O_2
REMARK    2  A    between atoms: O_2  and  C_3
REMARK    3  A    between atoms: C_6  and  C_7
REMARK    4  A    between atoms: N_9  and  C_10
REMARK    5  A    between atoms: N_19  and  C_20
REMARK                            x       y       z     vdW  Elec       q    Type
REMARK                         _______ _______ _______ _____ _____    ______ ____
ROOT
ATOM      1  C   UNL     1      -1.128  13.272  20.103  0.00  0.00    +0.000 C 
ATOM      2  N   UNL     1      -0.127  13.829  20.718  0.00  0.00    +0.000 NA
ATOM      3  N   UNL     1       0.897  13.933  19.825  0.00  0.00    +0.000 N 
ATOM      4  C   UNL     1       0.585  13.341  18.527  0.00  0.00    +0.000 C 
ATOM      5  C   UNL     1       1.359  12.066  18.303  0.00  0.00    +0.000 C 
ATOM      6  O   UNL     1       2.491  12.016  17.827  0.00  0.00    +0.000 OA
ATOM      7  N   UNL     1       0.552  11.003  18.625  0.00  0.00    +0.000 N 
ATOM      8  C   UNL     1      -0.756  11.383  18.502  0.00  0.00    +0.000 C 
ATOM      9  O   UNL     1      -1.742  10.686  18.281  0.00  0.00    +0.000 OA
ATOM     10  C   UNL     1      -0.847  12.867  18.681  0.00  0.00    +0.000 C 
ENDROOT
BRANCH   1  14
ATOM     11  C   UNL     1      -4.927  12.627  22.013  0.00  0.00    +0.000 A 
ATOM     12  C   UNL     1      -3.755  12.718  22.767  0.00  0.00    +0.000 A 
ATOM     13  C   UNL     1      -2.520  12.924  22.143  0.00  0.00    +0.000 A 
ATOM     14  C   UNL     1      -2.445  13.032  20.749  0.00  0.00    +0.000 A 
ATOM     15  C   UNL     1      -3.619  12.921  19.997  0.00  0.00    +0.000 A 
ATOM     16  C   UNL     1      -4.849  12.706  20.624  0.00  0.00    +0.000 A 
BRANCH  11  18
ATOM     17  C   UNL     1      -6.028  12.817  24.093  0.00  0.00    +0.000 C 
ATOM     18  O   UNL     1      -6.080  12.431  22.721  0.00  0.00    +0.000 OA
ENDBRANCH  11  18
ENDBRANCH   1  14
BRANCH   3  19
ATOM     19  C   UNL     1       2.169  14.364  20.207  0.00  0.00    +0.000 A 
ATOM     20  C   UNL     1       2.806  15.425  19.547  0.00  0.00    +0.000 A 
ATOM     21  C   UNL     1       4.072  15.885  19.940  0.00  0.00    +0.000 A 
ATOM     22  C   UNL     1       4.731  15.283  21.008  0.00  0.00    +0.000 A 
ATOM     23  C   UNL     1       4.133  14.222  21.671  0.00  0.00    +0.000 A 
ATOM     24  C   UNL     1       2.872  13.766  21.268  0.00  0.00    +0.000 A 
ENDBRANCH   3  19
BRANCH   7  25
ATOM     25  C   UNL     1       1.024   9.712  18.975  0.00  0.00    +0.000 A 
ATOM     26  C   UNL     1       1.720   8.946  18.020  0.00  0.00    +0.000 A 
ATOM     27  C   UNL     1       2.348   7.754  18.365  0.00  0.00    +0.000 A 
ATOM     28  C   UNL     1       2.291   7.292  19.677  0.00  0.00    +0.000 A 
ATOM     29  C   UNL     1       1.595   8.028  20.634  0.00  0.00    +0.000 A 
ATOM     30  C   UNL     1       0.974   9.231  20.289  0.00  0.00    +0.000 A 
ENDBRANCH   7  25
TORSDOF 4
ENDMDL
