MODEL 1
REMARK VINA RESULT:      -7.2      0.000      0.000
REMARK  Name = 
REMARK  4 active torsions:
REMARK  status: ('A' for Active; 'I' for Inactive)
REMARK    1  A    between atoms: C_1  and  O_2
REMARK    2  A    between atoms: O_2  and  C_3
REMARK    3  A    between atoms: C_6  and  C_7
REMARK    4  A    between atoms: C_7  and  N_9
REMARK                            x       y       z     vdW  Elec       q    Type
REMARK                         _______ _______ _______ _____ _____    ______ ____
ROOT
ATOM      1  C   UNL     1       2.848   7.314  17.889  0.00  0.00    +0.000 C 
ATOM      2  O   UNL     1       2.698   8.443  18.346  0.00  0.00    +0.000 OA
ENDROOT
BRANCH   1   3
ATOM      3  N   UNL     1       3.562   7.013  16.755  0.00  0.00    +0.000 NA
ATOM      4  C   UNL     1       4.762   6.531  16.833  0.00  0.00    +0.000 C 
ATOM      5  C   UNL     1       5.618   6.392  18.036  0.00  0.00    +0.000 C 
ATOM      6  C   UNL     1       6.753   5.684  18.021  0.00  0.00    +0.000 C 
ATOM      7 BR   UNL     1       7.808   5.525  19.558  0.00  0.00    +0.000 Br
ATOM      8  C   UNL     1       7.215   5.000  16.780  0.00  0.00    +0.000 C 
ATOM      9  O   UNL     1       8.142   4.197  16.790  0.00  0.00    +0.000 OA
ATOM     10  C   UNL     1       6.498   5.361  15.525  0.00  0.00    +0.000 C 
ATOM     11 BR   UNL     1       7.205   4.754  13.901  0.00  0.00    +0.000 Br
ATOM     12  C   UNL     1       5.373   6.080  15.561  0.00  0.00    +0.000 C 
ENDBRANCH   1   3
BRANCH   1  16
ATOM     13  C   UNL     1       1.306   3.917  20.012  0.00  0.00    +0.000 A 
ATOM     14  C   UNL     1       1.769   5.032  20.717  0.00  0.00    +0.000 A 
ATOM     15  C   UNL     1       2.256   6.151  20.039  0.00  0.00    +0.000 A 
ATOM     16  C   UNL     1       2.312   6.145  18.641  0.00  0.00    +0.000 A 
ATOM     17  C   UNL     1       1.870   5.021  17.934  0.00  0.00    +0.000 A 
ATOM     18  C   UNL     1       1.361   3.912  18.618  0.00  0.00    +0.000 A 
BRANCH  13  20
ATOM     19  C   UNL     1       1.707   2.534  21.889  0.00  0.00    +0.000 C 
ATOM     20  O   UNL     1       0.870   2.882  20.791  0.00  0.00    +0.000 OA
ENDBRANCH  13  20
ENDBRANCH   1  16
TORSDOF 3
ENDMDL
MODEL 2
REMARK VINA RESULT:      -7.1      2.126      3.827
REMARK  Name = 
REMARK  4 active torsions:
REMARK  status: ('A' for Active; 'I' for Inactive)
REMARK    1  A    between atoms: C_1  and  O_2
REMARK    2  A    between atoms: O_2  and  C_3
REMARK    3  A    between atoms: C_6  and  C_7
REMARK    4  A    between atoms: C_7  and  N_9
REMARK                            x       y       z     vdW  Elec       q    Type
REMARK                         _______ _______ _______ _____ _____    ______ ____
ROOT
ATOM      1  C   UNL     1       2.511   5.583  19.205  0.00  0.00    +0.000 C 
ATOM      2  O   UNL     1       2.430   4.734  20.087  0.00  0.00    +0.000 OA
ENDROOT
BRANCH   1   3
ATOM      3  N   UNL     1       2.960   5.350  17.927  0.00  0.00    +0.000 NA
ATOM      4  C   UNL     1       4.228   5.298  17.667  0.00  0.00    +0.000 C 
ATOM      5  C   UNL     1       5.362   5.637  18.560  0.00  0.00    +0.000 C 
ATOM      6  C   UNL     1       6.627   5.338  18.244  0.00  0.00    +0.000 C 
ATOM      7 BR   UNL     1       8.036   5.776  19.396  0.00  0.00    +0.000 Br
ATOM      8  C   UNL     1       6.957   4.650  16.964  0.00  0.00    +0.000 C 
ATOM      9  O   UNL     1       8.076   4.199  16.740  0.00  0.00    +0.000 OA
ATOM     10  C   UNL     1       5.855   4.554  15.966  0.00  0.00    +0.000 C 
ATOM     11 BR   UNL     1       6.277   3.955  14.244  0.00  0.00    +0.000 Br
ATOM     12  C   UNL     1       4.601   4.869  16.299  0.00  0.00    +0.000 C 
ENDBRANCH   1   3
BRANCH   1  16
ATOM     13  C   UNL     1       1.057   9.540  20.015  0.00  0.00    +0.000 A 
ATOM     14  C   UNL     1       1.553   9.221  18.747  0.00  0.00    +0.000 A 
ATOM     15  C   UNL     1       2.012   7.934  18.465  0.00  0.00    +0.000 A 
ATOM     16  C   UNL     1       2.007   6.960  19.468  0.00  0.00    +0.000 A 
ATOM     17  C   UNL     1       1.533   7.282  20.745  0.00  0.00    +0.000 A 
ATOM     18  C   UNL     1       1.051   8.567  21.016  0.00  0.00    +0.000 A 
BRANCH  13  20
ATOM     19  C   UNL     1       0.883  11.696  19.057  0.00  0.00    +0.000 C 
ATOM     20  O   UNL     1       0.655  10.837  20.169  0.00  0.00    +0.000 OA
ENDBRANCH  13  20
ENDBRANCH   1  16
TORSDOF 3
ENDMDL
MODEL 3
REMARK VINA RESULT:      -7.1      2.259      3.746
REMARK  Name = 
REMARK  4 active torsions:
REMARK  status: ('A' for Active; 'I' for Inactive)
REMARK    1  A    between atoms: C_1  and  O_2
REMARK    2  A    between atoms: O_2  and  C_3
REMARK    3  A    between atoms: C_6  and  C_7
REMARK    4  A    between atoms: C_7  and  N_9
REMARK                            x       y       z     vdW  Elec       q    Type
REMARK                         _______ _______ _______ _____ _____    ______ ____
ROOT
ATOM      1  C   UNL     1       2.573   5.759  19.326  0.00  0.00    +0.000 C 
ATOM      2  O   UNL     1       2.547   4.940  20.240  0.00  0.00    +0.000 OA
ENDROOT
BRANCH   1   3
ATOM      3  N   UNL     1       2.997   5.496  18.046  0.00  0.00    +0.000 NA
ATOM      4  C   UNL     1       4.259   5.408  17.770  0.00  0.00    +0.000 C 
ATOM      5  C   UNL     1       5.414   5.730  18.641  0.00  0.00    +0.000 C 
ATOM      6  C   UNL     1       6.667   5.395  18.313  0.00  0.00    +0.000 C 
ATOM      7 BR   UNL     1       8.102   5.813  19.438  0.00  0.00    +0.000 Br
ATOM      8  C   UNL     1       6.961   4.680  17.039  0.00  0.00    +0.000 C 
ATOM      9  O   UNL     1       8.065   4.198  16.806  0.00  0.00    +0.000 OA
ATOM     10  C   UNL     1       5.843   4.598  16.057  0.00  0.00    +0.000 C 
ATOM     11 BR   UNL     1       6.225   3.963  14.338  0.00  0.00    +0.000 Br
ATOM     12  C   UNL     1       4.602   4.950  16.402  0.00  0.00    +0.000 C 
ENDBRANCH   1   3
BRANCH   1  16
ATOM     13  C   UNL     1       0.987   9.702  19.930  0.00  0.00    +0.000 A 
ATOM     14  C   UNL     1       0.976   8.775  20.976  0.00  0.00    +0.000 A 
ATOM     15  C   UNL     1       1.505   7.495  20.799  0.00  0.00    +0.000 A 
ATOM     16  C   UNL     1       2.022   7.124  19.553  0.00  0.00    +0.000 A 
ATOM     17  C   UNL     1       2.014   8.043  18.497  0.00  0.00    +0.000 A 
ATOM     18  C   UNL     1       1.504   9.332  18.688  0.00  0.00    +0.000 A 
BRANCH  13  20
ATOM     19  C   UNL     1      -0.621  11.341  19.360  0.00  0.00    +0.000 C 
ATOM     20  O   UNL     1       0.425  10.913  20.225  0.00  0.00    +0.000 OA
ENDBRANCH  13  20
ENDBRANCH   1  16
TORSDOF 3
ENDMDL
MODEL 4
REMARK VINA RESULT:      -7.0      0.344      1.123
REMARK  Name = 
REMARK  4 active torsions:
REMARK  status: ('A' for Active; 'I' for Inactive)
REMARK    1  A    between atoms: C_1  and  O_2
REMARK    2  A    between atoms: O_2  and  C_3
REMARK    3  A    between atoms: C_6  and  C_7
REMARK    4  A    between atoms: C_7  and  N_9
REMARK                            x       y       z     vdW  Elec       q    Type
REMARK                         _______ _______ _______ _____ _____    ______ ____
ROOT
ATOM      1  C   UNL     1       2.929   7.572  17.792  0.00  0.00    +0.000 C 
ATOM      2  O   UNL     1       2.802   8.733  18.167  0.00  0.00    +0.000 OA
ENDROOT
BRANCH   1   3
ATOM      3  N   UNL     1       3.604   7.180  16.661  0.00  0.00    +0.000 NA
ATOM      4  C   UNL     1       4.783   6.651  16.741  0.00  0.00    +0.000 C 
ATOM      5  C   UNL     1       5.661   6.540  17.931  0.00  0.00    +0.000 C 
ATOM      6  C   UNL     1       6.764   5.785  17.932  0.00  0.00    +0.000 C 
ATOM      7 BR   UNL     1       7.847   5.663  19.453  0.00  0.00    +0.000 Br
ATOM      8  C   UNL     1       7.169   5.016  16.721  0.00  0.00    +0.000 C 
ATOM      9  O   UNL     1       8.061   4.174  16.755  0.00  0.00    +0.000 OA
ATOM     10  C   UNL     1       6.439   5.338  15.463  0.00  0.00    +0.000 C 
ATOM     11 BR   UNL     1       7.082   4.615  13.861  0.00  0.00    +0.000 Br
ATOM     12  C   UNL     1       5.346   6.106  15.483  0.00  0.00    +0.000 C 
ENDBRANCH   1   3
BRANCH   1  16
ATOM     13  C   UNL     1       1.424   4.424  20.293  0.00  0.00    +0.000 A 
ATOM     14  C   UNL     1       1.608   4.205  18.924  0.00  0.00    +0.000 A 
ATOM     15  C   UNL     1       2.114   5.214  18.102  0.00  0.00    +0.000 A 
ATOM     16  C   UNL     1       2.410   6.468  18.646  0.00  0.00    +0.000 A 
ATOM     17  C   UNL     1       2.206   6.698  20.012  0.00  0.00    +0.000 A 
ATOM     18  C   UNL     1       1.721   5.675  20.835  0.00  0.00    +0.000 A 
BRANCH  13  20
ATOM     19  C   UNL     1       1.857   2.495  21.591  0.00  0.00    +0.000 C 
ATOM     20  O   UNL     1       0.908   3.364  20.984  0.00  0.00    +0.000 OA
ENDBRANCH  13  20
ENDBRANCH   1  16
TORSDOF 3
ENDMDL
MODEL 5
REMARK VINA RESULT:      -6.8      3.383      4.496
REMARK  Name = 
REMARK  4 active torsions:
REMARK  status: ('A' for Active; 'I' for Inactive)
REMARK    1  A    between atoms: C_1  and  O_2
REMARK    2  A    between atoms: O_2  and  C_3
REMARK    3  A    between atoms: C_6  and  C_7
REMARK    4  A    between atoms: C_7  and  N_9
REMARK                            x       y       z     vdW  Elec       q    Type
REMARK                         _______ _______ _______ _____ _____    ______ ____
ROOT
ATOM      1  C   UNL     1       1.905   8.475  18.150  0.00  0.00    +0.000 C 
ATOM      2  O   UNL     1       2.371   9.246  17.316  0.00  0.00    +0.000 OA
ENDROOT
BRANCH   1   3
ATOM      3  N   UNL     1       1.875   7.107  18.027  0.00  0.00    +0.000 NA
ATOM      4  C   UNL     1       2.970   6.427  17.903  0.00  0.00    +0.000 C 
ATOM      5  C   UNL     1       4.347   6.936  17.691  0.00  0.00    +0.000 C 
ATOM      6  C   UNL     1       5.420   6.143  17.791  0.00  0.00    +0.000 C 
ATOM      7 BR   UNL     1       7.144   6.818  17.522  0.00  0.00    +0.000 Br
ATOM      8  C   UNL     1       5.277   4.696  18.118  0.00  0.00    +0.000 C 
ATOM      9  O   UNL     1       6.244   3.997  18.401  0.00  0.00    +0.000 OA
ATOM     10  C   UNL     1       3.894   4.143  18.067  0.00  0.00    +0.000 C 
ATOM     11 BR   UNL     1       3.682   2.288  18.193  0.00  0.00    +0.000 Br
ATOM     12  C   UNL     1       2.838   4.952  17.954  0.00  0.00    +0.000 C 
ENDBRANCH   1   3
BRANCH   1  16
ATOM     13  C   UNL     1       0.459  10.071  21.864  0.00  0.00    +0.000 A 
ATOM     14  C   UNL     1       1.000   8.783  21.818  0.00  0.00    +0.000 A 
ATOM     15  C   UNL     1       1.491   8.258  20.621  0.00  0.00    +0.000 A 
ATOM     16  C   UNL     1       1.411   9.016  19.448  0.00  0.00    +0.000 A 
ATOM     17  C   UNL     1       0.849  10.297  19.486  0.00  0.00    +0.000 A 
ATOM     18  C   UNL     1       0.380  10.827  20.693  0.00  0.00    +0.000 A 
BRANCH  13  20
ATOM     19  C   UNL     1      -1.290  11.065  23.108  0.00  0.00    +0.000 C 
ATOM     20  O   UNL     1      -0.001  10.461  23.090  0.00  0.00    +0.000 OA
ENDBRANCH  13  20
ENDBRANCH   1  16
TORSDOF 3
ENDMDL
MODEL 6
REMARK VINA RESULT:      -6.8      3.399      4.527
REMARK  Name = 
REMARK  4 active torsions:
REMARK  status: ('A' for Active; 'I' for Inactive)
REMARK    1  A    between atoms: C_1  and  O_2
REMARK    2  A    between atoms: O_2  and  C_3
REMARK    3  A    between atoms: C_6  and  C_7
REMARK    4  A    between atoms: C_7  and  N_9
REMARK                            x       y       z     vdW  Elec       q    Type
REMARK                         _______ _______ _______ _____ _____    ______ ____
ROOT
ATOM      1  C   UNL     1       1.881   8.503  18.173  0.00  0.00    +0.000 C 
ATOM      2  O   UNL     1       2.363   9.286  17.361  0.00  0.00    +0.000 OA
ENDROOT
BRANCH   1   3
ATOM      3  N   UNL     1       1.854   7.137  18.028  0.00  0.00    +0.000 NA
ATOM      4  C   UNL     1       2.951   6.462  17.891  0.00  0.00    +0.000 C 
ATOM      5  C   UNL     1       4.326   6.976  17.685  0.00  0.00    +0.000 C 
ATOM      6  C   UNL     1       5.400   6.184  17.770  0.00  0.00    +0.000 C 
ATOM      7 BR   UNL     1       7.123   6.867  17.510  0.00  0.00    +0.000 Br
ATOM      8  C   UNL     1       5.261   4.732  18.074  0.00  0.00    +0.000 C 
ATOM      9  O   UNL     1       6.231   4.030  18.343  0.00  0.00    +0.000 OA
ATOM     10  C   UNL     1       3.880   4.177  18.016  0.00  0.00    +0.000 C 
ATOM     11 BR   UNL     1       3.671   2.320  18.111  0.00  0.00    +0.000 Br
ATOM     12  C   UNL     1       2.821   4.986  17.917  0.00  0.00    +0.000 C 
ENDBRANCH   1   3
BRANCH   1  16
ATOM     13  C   UNL     1       0.410   9.962  21.932  0.00  0.00    +0.000 A 
ATOM     14  C   UNL     1       0.255  10.729  20.774  0.00  0.00    +0.000 A 
ATOM     15  C   UNL     1       0.712  10.259  19.542  0.00  0.00    +0.000 A 
ATOM     16  C   UNL     1       1.361   9.022  19.469  0.00  0.00    +0.000 A 
ATOM     17  C   UNL     1       1.539   8.262  20.631  0.00  0.00    +0.000 A 
ATOM     18  C   UNL     1       1.057   8.728  21.859  0.00  0.00    +0.000 A 
BRANCH  13  20
ATOM     19  C   UNL     1      -1.133  11.466  22.909  0.00  0.00    +0.000 C 
ATOM     20  O   UNL     1      -0.064  10.541  23.077  0.00  0.00    +0.000 OA
ENDBRANCH  13  20
ENDBRANCH   1  16
TORSDOF 3
ENDMDL
MODEL 7
REMARK VINA RESULT:      -6.7      2.300      3.808
REMARK  Name = 
REMARK  4 active torsions:
REMARK  status: ('A' for Active; 'I' for Inactive)
REMARK    1  A    between atoms: C_1  and  O_2
REMARK    2  A    between atoms: O_2  and  C_3
REMARK    3  A    between atoms: C_6  and  C_7
REMARK    4  A    between atoms: C_7  and  N_9
REMARK                            x       y       z     vdW  Elec       q    Type
REMARK                         _______ _______ _______ _____ _____    ______ ____
ROOT
ATOM      1  C   UNL     1       2.940   5.557  19.301  0.00  0.00    +0.000 C 
ATOM      2  O   UNL     1       3.183   4.927  20.325  0.00  0.00    +0.000 OA
ENDROOT
BRANCH   1   3
ATOM      3  N   UNL     1       3.141   5.090  18.024  0.00  0.00    +0.000 NA
ATOM      4  C   UNL     1       4.211   5.401  17.364  0.00  0.00    +0.000 C 
ATOM      5  C   UNL     1       5.258   6.387  17.725  0.00  0.00    +0.000 C 
ATOM      6  C   UNL     1       6.419   6.463  17.065  0.00  0.00    +0.000 C 
ATOM      7 BR   UNL     1       7.722   7.715  17.550  0.00  0.00    +0.000 Br
ATOM      8  C   UNL     1       6.713   5.554  15.920  0.00  0.00    +0.000 C 
ATOM      9  O   UNL     1       7.833   5.475  15.426  0.00  0.00    +0.000 OA
ATOM     10  C   UNL     1       5.565   4.758  15.401  0.00  0.00    +0.000 C 
ATOM     11 BR   UNL     1       5.799   3.815  13.802  0.00  0.00    +0.000 Br
ATOM     12  C   UNL     1       4.410   4.707  16.070  0.00  0.00    +0.000 C 
ENDBRANCH   1   3
BRANCH   1  16
ATOM     13  C   UNL     1       1.065   9.402  19.644  0.00  0.00    +0.000 A 
ATOM     14  C   UNL     1       1.615   8.998  18.425  0.00  0.00    +0.000 A 
ATOM     15  C   UNL     1       2.212   7.743  18.294  0.00  0.00    +0.000 A 
ATOM     16  C   UNL     1       2.290   6.893  19.402  0.00  0.00    +0.000 A 
ATOM     17  C   UNL     1       1.759   7.304  20.631  0.00  0.00    +0.000 A 
ATOM     18  C   UNL     1       1.141   8.554  20.749  0.00  0.00    +0.000 A 
BRANCH  13  20
ATOM     19  C   UNL     1      -0.884  10.731  19.465  0.00  0.00    +0.000 C 
ATOM     20  O   UNL     1       0.526  10.659  19.647  0.00  0.00    +0.000 OA
ENDBRANCH  13  20
ENDBRANCH   1  16
TORSDOF 3
ENDMDL
MODEL 8
REMARK VINA RESULT:      -6.7      3.319      6.628
REMARK  Name = 
REMARK  4 active torsions:
REMARK  status: ('A' for Active; 'I' for Inactive)
REMARK    1  A    between atoms: C_1  and  O_2
REMARK    2  A    between atoms: O_2  and  C_3
REMARK    3  A    between atoms: C_6  and  C_7
REMARK    4  A    between atoms: C_7  and  N_9
REMARK                            x       y       z     vdW  Elec       q    Type
REMARK                         _______ _______ _______ _____ _____    ______ ____
ROOT
ATOM      1  C   UNL     1       6.983   5.306  16.363  0.00  0.00    +0.000 C 
ATOM      2  O   UNL     1       7.593   6.369  16.429  0.00  0.00    +0.000 OA
ENDROOT
BRANCH   1   3
ATOM      3  N   UNL     1       6.527   4.592  17.445  0.00  0.00    +0.000 NA
ATOM      4  C   UNL     1       5.439   4.935  18.057  0.00  0.00    +0.000 C 
ATOM      5  C   UNL     1       4.629   6.162  17.869  0.00  0.00    +0.000 C 
ATOM      6  C   UNL     1       3.413   6.299  18.410  0.00  0.00    +0.000 C 
ATOM      7 BR   UNL     1       2.414   7.860  18.149  0.00  0.00    +0.000 Br
ATOM      8  C   UNL     1       2.814   5.215  19.238  0.00  0.00    +0.000 C 
ATOM      9  O   UNL     1       1.637   5.237  19.583  0.00  0.00    +0.000 OA
ATOM     10  C   UNL     1       3.731   4.110  19.638  0.00  0.00    +0.000 C 
ATOM     11 BR   UNL     1       3.119   2.871  20.900  0.00  0.00    +0.000 Br
ATOM     12  C   UNL     1       4.946   3.999  19.095  0.00  0.00    +0.000 C 
ENDBRANCH   1   3
BRANCH   1  16
ATOM     13  C   UNL     1       5.943   3.748  12.501  0.00  0.00    +0.000 A 
ATOM     14  C   UNL     1       5.052   3.620  13.571  0.00  0.00    +0.000 A 
ATOM     15  C   UNL     1       5.370   4.138  14.828  0.00  0.00    +0.000 A 
ATOM     16  C   UNL     1       6.605   4.763  15.028  0.00  0.00    +0.000 A 
ATOM     17  C   UNL     1       7.508   4.873  13.964  0.00  0.00    +0.000 A 
ATOM     18  C   UNL     1       7.174   4.373  12.701  0.00  0.00    +0.000 A 
BRANCH  13  20
ATOM     19  C   UNL     1       4.112   3.085  11.156  0.00  0.00    +0.000 C 
ATOM     20  O   UNL     1       5.522   3.185  11.328  0.00  0.00    +0.000 OA
ENDBRANCH  13  20
ENDBRANCH   1  16
TORSDOF 3
ENDMDL
MODEL 9
REMARK VINA RESULT:      -6.6      2.257      3.770
REMARK  Name = 
REMARK  4 active torsions:
REMARK  status: ('A' for Active; 'I' for Inactive)
REMARK    1  A    between atoms: C_1  and  O_2
REMARK    2  A    between atoms: O_2  and  C_3
REMARK    3  A    between atoms: C_6  and  C_7
REMARK    4  A    between atoms: C_7  and  N_9
REMARK                            x       y       z     vdW  Elec       q    Type
REMARK                         _______ _______ _______ _____ _____    ______ ____
ROOT
ATOM      1  C   UNL     1       2.939   5.576  19.267  0.00  0.00    +0.000 C 
ATOM      2  O   UNL     1       3.190   4.933  20.282  0.00  0.00    +0.000 OA
ENDROOT
BRANCH   1   3
ATOM      3  N   UNL     1       3.135   5.128  17.983  0.00  0.00    +0.000 NA
ATOM      4  C   UNL     1       4.213   5.427  17.332  0.00  0.00    +0.000 C 
ATOM      5  C   UNL     1       5.280   6.384  17.715  0.00  0.00    +0.000 C 
ATOM      6  C   UNL     1       6.445   6.447  17.060  0.00  0.00    +0.000 C 
ATOM      7 BR   UNL     1       7.772   7.662  17.572  0.00  0.00    +0.000 Br
ATOM      8  C   UNL     1       6.723   5.553  15.901  0.00  0.00    +0.000 C 
ATOM      9  O   UNL     1       7.843   5.459  15.409  0.00  0.00    +0.000 OA
ATOM     10  C   UNL     1       5.561   4.791  15.363  0.00  0.00    +0.000 C 
ATOM     11 BR   UNL     1       5.781   3.872  13.748  0.00  0.00    +0.000 Br
ATOM     12  C   UNL     1       4.402   4.752  16.027  0.00  0.00    +0.000 C 
ENDBRANCH   1   3
BRANCH   1  16
ATOM     13  C   UNL     1       1.046   9.416  19.571  0.00  0.00    +0.000 A 
ATOM     14  C   UNL     1       1.135   8.588  20.694  0.00  0.00    +0.000 A 
ATOM     15  C   UNL     1       1.764   7.345  20.614  0.00  0.00    +0.000 A 
ATOM     16  C   UNL     1       2.282   6.907  19.391  0.00  0.00    +0.000 A 
ATOM     17  C   UNL     1       2.174   7.724  18.259  0.00  0.00    +0.000 A 
ATOM     18  C   UNL     1       1.564   8.980  18.351  0.00  0.00    +0.000 A 
BRANCH  13  20
ATOM     19  C   UNL     1       0.543  11.579  18.755  0.00  0.00    +0.000 C 
ATOM     20  O   UNL     1       0.392  10.599  19.776  0.00  0.00    +0.000 OA
ENDBRANCH  13  20
ENDBRANCH   1  16
TORSDOF 3
ENDMDL
