MODEL 1
REMARK VINA RESULT:      -6.4      0.000      0.000
REMARK  Name = 
REMARK  11 active torsions:
REMARK  status: ('A' for Active; 'I' for Inactive)
REMARK    1  A    between atoms: C_1  and  O_2
REMARK    2  A    between atoms: O_2  and  C_3
REMARK    3  A    between atoms: C_7  and  C_8
REMARK    4  A    between atoms: N_10  and  C_11
REMARK    5  A    between atoms: N_10  and  C_12
REMARK    6  A    between atoms: C_12  and  C_13
REMARK    7  A    between atoms: C_13  and  O_15
REMARK    8  A    between atoms: C_16  and  C_17
REMARK    9  A    between atoms: C_17  and  O_18
REMARK   10  A    between atoms: O_18  and  C_19
REMARK   11  A    between atoms: C_19  and  C_20
REMARK                            x       y       z     vdW  Elec       q    Type
REMARK                         _______ _______ _______ _____ _____    ______ ____
ROOT
ATOM      1  C   UNL     1       6.552   4.417  18.014  0.00  0.00    +0.000 C 
ATOM      2  C   UNL     1       5.394   4.037  19.033  0.00  0.00    +0.000 C 
ATOM      3  O   UNL     1       5.204   3.113  19.795  0.00  0.00    +0.000 OA
ATOM      4  N   UNL     1       4.711   5.157  18.673  0.00  0.00    +0.000 N 
ATOM      5  C   UNL     1       3.481   5.794  18.913  0.00  0.00    +0.000 C 
ATOM      6  C   UNL     1       3.220   6.914  18.164  0.00  0.00    +0.000 C 
ATOM      7  C   UNL     1       4.127   7.474  17.057  0.00  0.00    +0.000 C 
ATOM      8  S   UNL     1       5.330   6.349  16.460  0.00  0.00    +0.000 S 
ATOM      9  O   UNL     1       4.645   5.309  15.715  0.00  0.00    +0.000 OA
ATOM     10  O   UNL     1       6.368   7.138  15.820  0.00  0.00    +0.000 OA
ATOM     11  C   UNL     1       5.870   5.785  18.020  0.00  0.00    +0.000 C 
ENDROOT
BRANCH   5  12
ATOM     12  C   UNL     1       2.531   4.961  19.903  0.00  0.00    +0.000 C 
ATOM     13  O   UNL     1       2.448   5.356  21.072  0.00  0.00    +0.000 OA
ATOM     14  N   UNL     1       1.815   3.800  19.615  0.00  0.00    +0.000 N 
ATOM     15  C   UNL     1       2.030   2.905  18.518  0.00  0.00    +0.000 C 
BRANCH  14  16
ATOM     16  C   UNL     1       0.835   3.239  20.600  0.00  0.00    +0.000 C 
BRANCH  16  17
ATOM     17  C   UNL     1       1.498   2.542  21.792  0.00  0.00    +0.000 C 
ATOM     18  O   UNL     1       0.884   2.038  22.726  0.00  0.00    +0.000 OA
BRANCH  17  19
ATOM     19  O   UNL     1       2.849   2.591  21.761  0.00  0.00    +0.000 OA
ATOM     20  H   UNL     1       3.172   3.312  22.344  0.00  0.00    +0.000 HD
ENDBRANCH  17  19
ENDBRANCH  16  17
ENDBRANCH  14  16
ENDBRANCH   5  12
BRANCH   1  22
ATOM     21  C   UNL     1       8.248   5.485  19.391  0.00  0.00    +0.000 C 
ATOM     22  O   UNL     1       7.916   4.425  18.508  0.00  0.00    +0.000 OA
ENDBRANCH   1  22
BRANCH   6  23
ATOM     23  C   UNL     1       1.982   7.791  18.208  0.00  0.00    +0.000 C 
BRANCH  23  24
ATOM     24  O   UNL     1       1.697   8.412  19.486  0.00  0.00    +0.000 OA
BRANCH  24  25
ATOM     25  C   UNL     1       1.000   9.581  19.426  0.00  0.00    +0.000 C 
ATOM     26  C   UNL     1       0.447   9.830  18.058  0.00  0.00    +0.000 C 
ATOM     27  O   UNL     1       0.842  10.346  20.367  0.00  0.00    +0.000 OA
ENDBRANCH  24  25
ENDBRANCH  23  24
ENDBRANCH   6  23
TORSDOF 8
ENDMDL
MODEL 2
REMARK VINA RESULT:      -6.3      2.629      7.055
REMARK  Name = 
REMARK  11 active torsions:
REMARK  status: ('A' for Active; 'I' for Inactive)
REMARK    1  A    between atoms: C_1  and  O_2
REMARK    2  A    between atoms: O_2  and  C_3
REMARK    3  A    between atoms: C_7  and  C_8
REMARK    4  A    between atoms: N_10  and  C_11
REMARK    5  A    between atoms: N_10  and  C_12
REMARK    6  A    between atoms: C_12  and  C_13
REMARK    7  A    between atoms: C_13  and  O_15
REMARK    8  A    between atoms: C_16  and  C_17
REMARK    9  A    between atoms: C_17  and  O_18
REMARK   10  A    between atoms: O_18  and  C_19
REMARK   11  A    between atoms: C_19  and  C_20
REMARK                            x       y       z     vdW  Elec       q    Type
REMARK                         _______ _______ _______ _____ _____    ______ ____
ROOT
ATOM      1  C   UNL     1       2.133   6.597  18.743  0.00  0.00    +0.000 C 
ATOM      2  C   UNL     1       3.591   6.394  18.147  0.00  0.00    +0.000 C 
ATOM      3  O   UNL     1       4.289   7.022  17.379  0.00  0.00    +0.000 OA
ATOM      4  N   UNL     1       3.709   5.227  18.835  0.00  0.00    +0.000 N 
ATOM      5  C   UNL     1       4.600   4.150  18.989  0.00  0.00    +0.000 C 
ATOM      6  C   UNL     1       4.164   3.105  19.765  0.00  0.00    +0.000 C 
ATOM      7  C   UNL     1       2.774   2.999  20.412  0.00  0.00    +0.000 C 
ATOM      8  S   UNL     1       1.571   4.081  19.739  0.00  0.00    +0.000 S 
ATOM      9  O   UNL     1       1.255   3.626  18.398  0.00  0.00    +0.000 OA
ATOM     10  O   UNL     1       0.517   4.212  20.731  0.00  0.00    +0.000 OA
ATOM     11  C   UNL     1       2.571   5.510  19.724  0.00  0.00    +0.000 C 
ENDROOT
BRANCH   5  12
ATOM     12  C   UNL     1       5.900   4.280  18.057  0.00  0.00    +0.000 C 
ATOM     13  O   UNL     1       6.954   4.628  18.602  0.00  0.00    +0.000 OA
ATOM     14  N   UNL     1       5.977   4.093  16.678  0.00  0.00    +0.000 N 
ATOM     15  C   UNL     1       4.890   4.094  15.745  0.00  0.00    +0.000 C 
BRANCH  14  16
ATOM     16  C   UNL     1       7.303   4.081  15.978  0.00  0.00    +0.000 C 
BRANCH  16  17
ATOM     17  C   UNL     1       7.615   5.387  15.239  0.00  0.00    +0.000 C 
ATOM     18  O   UNL     1       7.844   5.461  14.036  0.00  0.00    +0.000 OA
BRANCH  17  19
ATOM     19  O   UNL     1       7.685   6.463  16.054  0.00  0.00    +0.000 OA
ATOM     20  H   UNL     1       8.204   6.241  16.857  0.00  0.00    +0.000 HD
ENDBRANCH  17  19
ENDBRANCH  16  17
ENDBRANCH  14  16
ENDBRANCH   5  12
BRANCH   1  22
ATOM     21  C   UNL     1       1.640   8.963  18.472  0.00  0.00    +0.000 C 
ATOM     22  O   UNL     1       1.823   7.873  19.361  0.00  0.00    +0.000 OA
ENDBRANCH   1  22
BRANCH   6  23
ATOM     23  C   UNL     1       4.906   1.824  20.097  0.00  0.00    +0.000 C 
BRANCH  23  24
ATOM     24  O   UNL     1       4.951   1.470  21.501  0.00  0.00    +0.000 OA
BRANCH  24  25
ATOM     25  C   UNL     1       6.006   0.692  21.874  0.00  0.00    +0.000 C 
ATOM     26  C   UNL     1       6.071  -0.576  21.081  0.00  0.00    +0.000 C 
ATOM     27  O   UNL     1       6.806   0.980  22.754  0.00  0.00    +0.000 OA
ENDBRANCH  24  25
ENDBRANCH  23  24
ENDBRANCH   6  23
TORSDOF 8
ENDMDL
MODEL 3
REMARK VINA RESULT:      -6.2      2.897      7.308
REMARK  Name = 
REMARK  11 active torsions:
REMARK  status: ('A' for Active; 'I' for Inactive)
REMARK    1  A    between atoms: C_1  and  O_2
REMARK    2  A    between atoms: O_2  and  C_3
REMARK    3  A    between atoms: C_7  and  C_8
REMARK    4  A    between atoms: N_10  and  C_11
REMARK    5  A    between atoms: N_10  and  C_12
REMARK    6  A    between atoms: C_12  and  C_13
REMARK    7  A    between atoms: C_13  and  O_15
REMARK    8  A    between atoms: C_16  and  C_17
REMARK    9  A    between atoms: C_17  and  O_18
REMARK   10  A    between atoms: O_18  and  C_19
REMARK   11  A    between atoms: C_19  and  C_20
REMARK                            x       y       z     vdW  Elec       q    Type
REMARK                         _______ _______ _______ _____ _____    ______ ____
ROOT
ATOM      1  C   UNL     1       1.581   5.587  20.389  0.00  0.00    +0.000 C 
ATOM      2  C   UNL     1       2.878   5.693  19.480  0.00  0.00    +0.000 C 
ATOM      3  O   UNL     1       3.277   6.495  18.661  0.00  0.00    +0.000 OA
ATOM      4  N   UNL     1       3.329   4.514  19.985  0.00  0.00    +0.000 N 
ATOM      5  C   UNL     1       4.387   3.603  19.820  0.00  0.00    +0.000 C 
ATOM      6  C   UNL     1       4.306   2.438  20.542  0.00  0.00    +0.000 C 
ATOM      7  C   UNL     1       3.134   2.037  21.451  0.00  0.00    +0.000 C 
ATOM      8  S   UNL     1       1.657   2.939  21.179  0.00  0.00    +0.000 S 
ATOM      9  O   UNL     1       1.118   2.544  19.891  0.00  0.00    +0.000 OA
ATOM     10  O   UNL     1       0.850   2.802  22.379  0.00  0.00    +0.000 OA
ATOM     11  C   UNL     1       2.394   4.519  21.121  0.00  0.00    +0.000 C 
ENDROOT
BRANCH   5  12
ATOM     12  C   UNL     1       5.404   4.035  18.656  0.00  0.00    +0.000 C 
ATOM     13  O   UNL     1       6.450   4.601  18.999  0.00  0.00    +0.000 OA
ATOM     14  N   UNL     1       5.229   3.894  17.280  0.00  0.00    +0.000 N 
ATOM     15  C   UNL     1       3.997   3.668  16.587  0.00  0.00    +0.000 C 
BRANCH  14  16
ATOM     16  C   UNL     1       6.350   4.190  16.330  0.00  0.00    +0.000 C 
BRANCH  16  17
ATOM     17  C   UNL     1       6.447   5.669  15.942  0.00  0.00    +0.000 C 
ATOM     18  O   UNL     1       5.700   6.224  15.143  0.00  0.00    +0.000 OA
BRANCH  17  19
ATOM     19  O   UNL     1       7.493   6.308  16.515  0.00  0.00    +0.000 OA
ATOM     20  H   UNL     1       7.952   6.863  15.848  0.00  0.00    +0.000 HD
ENDBRANCH  17  19
ENDBRANCH  16  17
ENDBRANCH  14  16
ENDBRANCH   5  12
BRANCH   1  22
ATOM     21  C   UNL     1       1.547   8.003  20.658  0.00  0.00    +0.000 C 
ATOM     22  O   UNL     1       1.227   6.734  21.204  0.00  0.00    +0.000 OA
ENDBRANCH   1  22
BRANCH   6  23
ATOM     23  C   UNL     1       5.294   1.287  20.557  0.00  0.00    +0.000 C 
BRANCH  23  24
ATOM     24  O   UNL     1       5.804   0.913  21.860  0.00  0.00    +0.000 OA
BRANCH  24  25
ATOM     25  C   UNL     1       6.401  -0.310  21.926  0.00  0.00    +0.000 C 
ATOM     26  C   UNL     1       6.131  -1.128  20.702  0.00  0.00    +0.000 C 
ATOM     27  O   UNL     1       7.073  -0.707  22.868  0.00  0.00    +0.000 OA
ENDBRANCH  24  25
ENDBRANCH  23  24
ENDBRANCH   6  23
TORSDOF 8
ENDMDL
MODEL 4
REMARK VINA RESULT:      -6.2      1.555      1.743
REMARK  Name = 
REMARK  11 active torsions:
REMARK  status: ('A' for Active; 'I' for Inactive)
REMARK    1  A    between atoms: C_1  and  O_2
REMARK    2  A    between atoms: O_2  and  C_3
REMARK    3  A    between atoms: C_7  and  C_8
REMARK    4  A    between atoms: N_10  and  C_11
REMARK    5  A    between atoms: N_10  and  C_12
REMARK    6  A    between atoms: C_12  and  C_13
REMARK    7  A    between atoms: C_13  and  O_15
REMARK    8  A    between atoms: C_16  and  C_17
REMARK    9  A    between atoms: C_17  and  O_18
REMARK   10  A    between atoms: O_18  and  C_19
REMARK   11  A    between atoms: C_19  and  C_20
REMARK                            x       y       z     vdW  Elec       q    Type
REMARK                         _______ _______ _______ _____ _____    ______ ____
ROOT
ATOM      1  C   UNL     1       6.495   4.692  17.825  0.00  0.00    +0.000 C 
ATOM      2  C   UNL     1       5.088   4.111  18.280  0.00  0.00    +0.000 C 
ATOM      3  O   UNL     1       4.683   3.008  18.582  0.00  0.00    +0.000 OA
ATOM      4  N   UNL     1       4.541   5.351  18.165  0.00  0.00    +0.000 N 
ATOM      5  C   UNL     1       3.293   5.993  18.263  0.00  0.00    +0.000 C 
ATOM      6  C   UNL     1       3.263   7.320  17.917  0.00  0.00    +0.000 C 
ATOM      7  C   UNL     1       4.457   8.125  17.378  0.00  0.00    +0.000 C 
ATOM      8  S   UNL     1       5.784   7.150  16.781  0.00  0.00    +0.000 S 
ATOM      9  O   UNL     1       5.352   6.500  15.557  0.00  0.00    +0.000 OA
ATOM     10  O   UNL     1       6.964   7.997  16.776  0.00  0.00    +0.000 OA
ATOM     11  C   UNL     1       5.840   6.039  18.125  0.00  0.00    +0.000 C 
ENDROOT
BRANCH   5  12
ATOM     12  C   UNL     1       2.095   4.977  18.590  0.00  0.00    +0.000 C 
ATOM     13  O   UNL     1       1.291   4.739  17.680  0.00  0.00    +0.000 OA
ATOM     14  N   UNL     1       1.816   4.356  19.807  0.00  0.00    +0.000 N 
ATOM     15  C   UNL     1       2.297   4.740  21.100  0.00  0.00    +0.000 C 
BRANCH  14  16
ATOM     16  C   UNL     1       0.760   3.297  19.904  0.00  0.00    +0.000 C 
BRANCH  16  17
ATOM     17  C   UNL     1       0.975   2.129  18.935  0.00  0.00    +0.000 C 
ATOM     18  O   UNL     1       0.127   1.719  18.150  0.00  0.00    +0.000 OA
BRANCH  17  19
ATOM     19  O   UNL     1       2.181   1.533  19.071  0.00  0.00    +0.000 OA
ATOM     20  H   UNL     1       2.245   1.104  19.951  0.00  0.00    +0.000 HD
ENDBRANCH  17  19
ENDBRANCH  16  17
ENDBRANCH  14  16
ENDBRANCH   5  12
BRANCH   1  22
ATOM     21  C   UNL     1       8.100   5.440  19.492  0.00  0.00    +0.000 C 
ATOM     22  O   UNL     1       7.652   4.391  18.648  0.00  0.00    +0.000 OA
ENDBRANCH   1  22
BRANCH   6  23
ATOM     23  C   UNL     1       2.067   8.253  17.924  0.00  0.00    +0.000 C 
BRANCH  23  24
ATOM     24  O   UNL     1       1.577   8.639  19.232  0.00  0.00    +0.000 OA
BRANCH  24  25
ATOM     25  C   UNL     1       0.868   9.801  19.272  0.00  0.00    +0.000 C 
ATOM     26  C   UNL     1       1.545  10.894  18.505  0.00  0.00    +0.000 C 
ATOM     27  O   UNL     1      -0.193   9.949  19.863  0.00  0.00    +0.000 OA
ENDBRANCH  24  25
ENDBRANCH  23  24
ENDBRANCH   6  23
TORSDOF 8
ENDMDL
MODEL 5
REMARK VINA RESULT:      -6.2      1.188      1.380
REMARK  Name = 
REMARK  11 active torsions:
REMARK  status: ('A' for Active; 'I' for Inactive)
REMARK    1  A    between atoms: C_1  and  O_2
REMARK    2  A    between atoms: O_2  and  C_3
REMARK    3  A    between atoms: C_7  and  C_8
REMARK    4  A    between atoms: N_10  and  C_11
REMARK    5  A    between atoms: N_10  and  C_12
REMARK    6  A    between atoms: C_12  and  C_13
REMARK    7  A    between atoms: C_13  and  O_15
REMARK    8  A    between atoms: C_16  and  C_17
REMARK    9  A    between atoms: C_17  and  O_18
REMARK   10  A    between atoms: O_18  and  C_19
REMARK   11  A    between atoms: C_19  and  C_20
REMARK                            x       y       z     vdW  Elec       q    Type
REMARK                         _______ _______ _______ _____ _____    ______ ____
ROOT
ATOM      1  C   UNL     1       6.783   4.726  18.144  0.00  0.00    +0.000 C 
ATOM      2  C   UNL     1       5.390   4.165  18.661  0.00  0.00    +0.000 C 
ATOM      3  O   UNL     1       5.018   3.103  19.114  0.00  0.00    +0.000 OA
ATOM      4  N   UNL     1       4.801   5.355  18.364  0.00  0.00    +0.000 N 
ATOM      5  C   UNL     1       3.531   5.959  18.355  0.00  0.00    +0.000 C 
ATOM      6  C   UNL     1       3.461   7.221  17.822  0.00  0.00    +0.000 C 
ATOM      7  C   UNL     1       4.635   7.983  17.187  0.00  0.00    +0.000 C 
ATOM      8  S   UNL     1       6.005   6.982  16.750  0.00  0.00    +0.000 S 
ATOM      9  O   UNL     1       5.615   6.149  15.628  0.00  0.00    +0.000 OA
ATOM     10  O   UNL     1       7.154   7.863  16.637  0.00  0.00    +0.000 OA
ATOM     11  C   UNL     1       6.077   6.078  18.240  0.00  0.00    +0.000 C 
ENDROOT
BRANCH   5  12
ATOM     12  C   UNL     1       2.363   4.956  18.810  0.00  0.00    +0.000 C 
ATOM     13  O   UNL     1       1.976   4.125  17.981  0.00  0.00    +0.000 OA
ATOM     14  N   UNL     1       1.687   4.939  20.030  0.00  0.00    +0.000 N 
ATOM     15  C   UNL     1       1.622   5.995  20.994  0.00  0.00    +0.000 C 
BRANCH  14  16
ATOM     16  C   UNL     1       0.740   3.827  20.366  0.00  0.00    +0.000 C 
BRANCH  16  17
ATOM     17  C   UNL     1       1.423   2.617  21.011  0.00  0.00    +0.000 C 
ATOM     18  O   UNL     1       1.369   2.350  22.207  0.00  0.00    +0.000 OA
BRANCH  17  19
ATOM     19  O   UNL     1       2.164   1.891  20.142  0.00  0.00    +0.000 OA
ATOM     20  H   UNL     1       3.093   1.844  20.454  0.00  0.00    +0.000 HD
ENDBRANCH  17  19
ENDBRANCH  16  17
ENDBRANCH  14  16
ENDBRANCH   5  12
BRANCH   1  22
ATOM     21  C   UNL     1       8.198   5.688  19.872  0.00  0.00    +0.000 C 
ATOM     22  O   UNL     1       7.935   4.589  19.014  0.00  0.00    +0.000 OA
ENDBRANCH   1  22
BRANCH   6  23
ATOM     23  C   UNL     1       2.233   8.101  17.681  0.00  0.00    +0.000 C 
BRANCH  23  24
ATOM     24  O   UNL     1       1.726   8.674  18.911  0.00  0.00    +0.000 OA
BRANCH  24  25
ATOM     25  C   UNL     1       1.087   9.870  18.780  0.00  0.00    +0.000 C 
ATOM     26  C   UNL     1       1.966  10.905  18.152  0.00  0.00    +0.000 C 
ATOM     27  O   UNL     1      -0.064  10.087  19.134  0.00  0.00    +0.000 OA
ENDBRANCH  24  25
ENDBRANCH  23  24
ENDBRANCH   6  23
TORSDOF 8
ENDMDL
MODEL 6
REMARK VINA RESULT:      -5.8      2.806      6.753
REMARK  Name = 
REMARK  11 active torsions:
REMARK  status: ('A' for Active; 'I' for Inactive)
REMARK    1  A    between atoms: C_1  and  O_2
REMARK    2  A    between atoms: O_2  and  C_3
REMARK    3  A    between atoms: C_7  and  C_8
REMARK    4  A    between atoms: N_10  and  C_11
REMARK    5  A    between atoms: N_10  and  C_12
REMARK    6  A    between atoms: C_12  and  C_13
REMARK    7  A    between atoms: C_13  and  O_15
REMARK    8  A    between atoms: C_16  and  C_17
REMARK    9  A    between atoms: C_17  and  O_18
REMARK   10  A    between atoms: O_18  and  C_19
REMARK   11  A    between atoms: C_19  and  C_20
REMARK                            x       y       z     vdW  Elec       q    Type
REMARK                         _______ _______ _______ _____ _____    ______ ____
ROOT
ATOM      1  C   UNL     1       2.012   4.718  20.037  0.00  0.00    +0.000 C 
ATOM      2  C   UNL     1       3.004   5.854  19.539  0.00  0.00    +0.000 C 
ATOM      3  O   UNL     1       3.176   7.018  19.832  0.00  0.00    +0.000 OA
ATOM      4  N   UNL     1       3.549   4.986  18.645  0.00  0.00    +0.000 N 
ATOM      5  C   UNL     1       4.494   4.959  17.605  0.00  0.00    +0.000 C 
ATOM      6  C   UNL     1       4.590   3.786  16.899  0.00  0.00    +0.000 C 
ATOM      7  C   UNL     1       3.712   2.544  17.117  0.00  0.00    +0.000 C 
ATOM      8  S   UNL     1       2.241   2.840  18.023  0.00  0.00    +0.000 S 
ATOM      9  O   UNL     1       1.351   3.630  17.192  0.00  0.00    +0.000 OA
ATOM     10  O   UNL     1       1.801   1.559  18.546  0.00  0.00    +0.000 OA
ATOM     11  C   UNL     1       2.971   3.794  19.287  0.00  0.00    +0.000 C 
ENDROOT
BRANCH   5  12
ATOM     12  C   UNL     1       5.153   6.396  17.327  0.00  0.00    +0.000 C 
ATOM     13  O   UNL     1       4.402   7.296  16.931  0.00  0.00    +0.000 OA
ATOM     14  N   UNL     1       6.498   6.747  17.431  0.00  0.00    +0.000 N 
ATOM     15  C   UNL     1       7.621   5.859  17.460  0.00  0.00    +0.000 C 
BRANCH  14  16
ATOM     16  C   UNL     1       6.930   8.178  17.305  0.00  0.00    +0.000 C 
BRANCH  16  17
ATOM     17  C   UNL     1       8.144   8.527  18.171  0.00  0.00    +0.000 C 
ATOM     18  O   UNL     1       8.771   9.579  18.089  0.00  0.00    +0.000 OA
BRANCH  17  19
ATOM     19  O   UNL     1       8.517   7.529  19.003  0.00  0.00    +0.000 OA
ATOM     20  H   UNL     1       9.477   7.352  18.905  0.00  0.00    +0.000 HD
ENDBRANCH  17  19
ENDBRANCH  16  17
ENDBRANCH  14  16
ENDBRANCH   5  12
BRANCH   1  22
ATOM     21  C   UNL     1       1.981   3.103  21.856  0.00  0.00    +0.000 C 
ATOM     22  O   UNL     1       1.931   4.466  21.464  0.00  0.00    +0.000 OA
ENDBRANCH   1  22
BRANCH   6  23
ATOM     23  C   UNL     1       5.513   3.477  15.735  0.00  0.00    +0.000 C 
BRANCH  23  24
ATOM     24  O   UNL     1       5.325   4.291  14.551  0.00  0.00    +0.000 OA
BRANCH  24  25
ATOM     25  C   UNL     1       6.429   4.447  13.767  0.00  0.00    +0.000 C 
ATOM     26  C   UNL     1       6.385   3.559  12.562  0.00  0.00    +0.000 C 
ATOM     27  O   UNL     1       7.353   5.210  14.010  0.00  0.00    +0.000 OA
ENDBRANCH  24  25
ENDBRANCH  23  24
ENDBRANCH   6  23
TORSDOF 8
ENDMDL
MODEL 7
REMARK VINA RESULT:      -5.6      8.334     10.964
REMARK  Name = 
REMARK  11 active torsions:
REMARK  status: ('A' for Active; 'I' for Inactive)
REMARK    1  A    between atoms: C_1  and  O_2
REMARK    2  A    between atoms: O_2  and  C_3
REMARK    3  A    between atoms: C_7  and  C_8
REMARK    4  A    between atoms: N_10  and  C_11
REMARK    5  A    between atoms: N_10  and  C_12
REMARK    6  A    between atoms: C_12  and  C_13
REMARK    7  A    between atoms: C_13  and  O_15
REMARK    8  A    between atoms: C_16  and  C_17
REMARK    9  A    between atoms: C_17  and  O_18
REMARK   10  A    between atoms: O_18  and  C_19
REMARK   11  A    between atoms: C_19  and  C_20
REMARK                            x       y       z     vdW  Elec       q    Type
REMARK                         _______ _______ _______ _____ _____    ______ ____
ROOT
ATOM      1  C   UNL     1      -2.263  11.446  17.141  0.00  0.00    +0.000 C 
ATOM      2  C   UNL     1      -3.658  11.782  17.822  0.00  0.00    +0.000 C 
ATOM      3  O   UNL     1      -4.796  11.887  17.416  0.00  0.00    +0.000 OA
ATOM      4  N   UNL     1      -3.037  11.921  19.024  0.00  0.00    +0.000 N 
ATOM      5  C   UNL     1      -3.324  12.291  20.350  0.00  0.00    +0.000 C 
ATOM      6  C   UNL     1      -2.251  12.383  21.201  0.00  0.00    +0.000 C 
ATOM      7  C   UNL     1      -0.781  12.179  20.803  0.00  0.00    +0.000 C 
ATOM      8  S   UNL     1      -0.473  12.266  19.081  0.00  0.00    +0.000 S 
ATOM      9  O   UNL     1      -0.654  13.643  18.659  0.00  0.00    +0.000 OA
ATOM     10  O   UNL     1       0.793  11.593  18.842  0.00  0.00    +0.000 OA
ATOM     11  C   UNL     1      -1.803  11.252  18.586  0.00  0.00    +0.000 C 
ENDROOT
BRANCH   5  12
ATOM     12  C   UNL     1      -4.856  12.719  20.559  0.00  0.00    +0.000 C 
ATOM     13  O   UNL     1      -5.712  11.834  20.441  0.00  0.00    +0.000 OA
ATOM     14  N   UNL     1      -5.354  13.996  20.814  0.00  0.00    +0.000 N 
ATOM     15  C   UNL     1      -4.680  15.242  20.601  0.00  0.00    +0.000 C 
BRANCH  14  16
ATOM     16  C   UNL     1      -6.798  14.203  21.158  0.00  0.00    +0.000 C 
BRANCH  16  17
ATOM     17  C   UNL     1      -7.102  14.030  22.649  0.00  0.00    +0.000 C 
ATOM     18  O   UNL     1      -7.125  14.950  23.460  0.00  0.00    +0.000 OA
BRANCH  17  19
ATOM     19  O   UNL     1      -7.277  12.741  23.017  0.00  0.00    +0.000 OA
ATOM     20  H   UNL     1      -7.450  12.688  23.982  0.00  0.00    +0.000 HD
ENDBRANCH  17  19
ENDBRANCH  16  17
ENDBRANCH  14  16
ENDBRANCH   5  12
BRANCH   1  22
ATOM     21  C   UNL     1      -2.966  10.256  15.140  0.00  0.00    +0.000 C 
ATOM     22  O   UNL     1      -2.178  10.252  16.320  0.00  0.00    +0.000 OA
ENDBRANCH   1  22
BRANCH   6  23
ATOM     23  C   UNL     1      -2.264  12.761  22.671  0.00  0.00    +0.000 C 
BRANCH  23  24
ATOM     24  O   UNL     1      -3.021  11.883  23.540  0.00  0.00    +0.000 OA
BRANCH  24  25
ATOM     25  C   UNL     1      -4.011  12.482  24.258  0.00  0.00    +0.000 C 
ATOM     26  C   UNL     1      -3.744  13.940  24.466  0.00  0.00    +0.000 C 
ATOM     27  O   UNL     1      -5.001  11.909  24.692  0.00  0.00    +0.000 OA
ENDBRANCH  24  25
ENDBRANCH  23  24
ENDBRANCH   6  23
TORSDOF 8
ENDMDL
MODEL 8
REMARK VINA RESULT:      -5.6      7.123     10.273
REMARK  Name = 
REMARK  11 active torsions:
REMARK  status: ('A' for Active; 'I' for Inactive)
REMARK    1  A    between atoms: C_1  and  O_2
REMARK    2  A    between atoms: O_2  and  C_3
REMARK    3  A    between atoms: C_7  and  C_8
REMARK    4  A    between atoms: N_10  and  C_11
REMARK    5  A    between atoms: N_10  and  C_12
REMARK    6  A    between atoms: C_12  and  C_13
REMARK    7  A    between atoms: C_13  and  O_15
REMARK    8  A    between atoms: C_16  and  C_17
REMARK    9  A    between atoms: C_17  and  O_18
REMARK   10  A    between atoms: O_18  and  C_19
REMARK   11  A    between atoms: C_19  and  C_20
REMARK                            x       y       z     vdW  Elec       q    Type
REMARK                         _______ _______ _______ _____ _____    ______ ____
ROOT
ATOM      1  C   UNL     1      -4.023  10.569  16.285  0.00  0.00    +0.000 C 
ATOM      2  C   UNL     1      -2.613  10.713  17.002  0.00  0.00    +0.000 C 
ATOM      3  O   UNL     1      -1.491  10.326  16.753  0.00  0.00    +0.000 OA
ATOM      4  N   UNL     1      -3.197  11.421  18.006  0.00  0.00    +0.000 N 
ATOM      5  C   UNL     1      -2.875  12.003  19.245  0.00  0.00    +0.000 C 
ATOM      6  C   UNL     1      -3.920  12.532  19.959  0.00  0.00    +0.000 C 
ATOM      7  C   UNL     1      -5.399  12.477  19.542  0.00  0.00    +0.000 C 
ATOM      8  S   UNL     1      -5.764  11.291  18.306  0.00  0.00    +0.000 S 
ATOM      9  O   UNL     1      -5.624   9.971  18.892  0.00  0.00    +0.000 OA
ATOM     10  O   UNL     1      -7.023  11.686  17.698  0.00  0.00    +0.000 OA
ATOM     11  C   UNL     1      -4.432  11.681  17.250  0.00  0.00    +0.000 C 
ENDROOT
BRANCH   5  12
ATOM     12  C   UNL     1      -1.345  11.763  19.666  0.00  0.00    +0.000 C 
ATOM     13  O   UNL     1      -1.118  10.865  20.486  0.00  0.00    +0.000 OA
ATOM     14  N   UNL     1      -0.226  12.485  19.251  0.00  0.00    +0.000 N 
ATOM     15  C   UNL     1      -0.214  13.788  18.658  0.00  0.00    +0.000 C 
BRANCH  14  16
ATOM     16  C   UNL     1       1.157  12.025  19.600  0.00  0.00    +0.000 C 
BRANCH  16  17
ATOM     17  C   UNL     1       1.837  11.230  18.481  0.00  0.00    +0.000 C 
ATOM     18  O   UNL     1       1.745  10.014  18.345  0.00  0.00    +0.000 OA
BRANCH  17  19
ATOM     19  O   UNL     1       2.619  11.989  17.680  0.00  0.00    +0.000 OA
ATOM     20  H   UNL     1       2.847  12.829  18.134  0.00  0.00    +0.000 HD
ENDBRANCH  17  19
ENDBRANCH  16  17
ENDBRANCH  14  16
ENDBRANCH   5  12
BRANCH   1  22
ATOM     21  C   UNL     1      -3.527  10.015  13.969  0.00  0.00    +0.000 C 
ATOM     22  O   UNL     1      -4.110  10.931  14.883  0.00  0.00    +0.000 OA
ENDBRANCH   1  22
BRANCH   6  23
ATOM     23  C   UNL     1      -3.867  13.213  21.314  0.00  0.00    +0.000 C 
BRANCH  23  24
ATOM     24  O   UNL     1      -4.632  12.577  22.367  0.00  0.00    +0.000 OA
BRANCH  24  25
ATOM     25  C   UNL     1      -4.108  12.690  23.620  0.00  0.00    +0.000 C 
ATOM     26  C   UNL     1      -3.085  13.780  23.700  0.00  0.00    +0.000 C 
ATOM     27  O   UNL     1      -4.423  11.989  24.572  0.00  0.00    +0.000 OA
ENDBRANCH  24  25
ENDBRANCH  23  24
ENDBRANCH   6  23
TORSDOF 8
ENDMDL
MODEL 9
REMARK VINA RESULT:      -5.5      2.021      5.556
REMARK  Name = 
REMARK  11 active torsions:
REMARK  status: ('A' for Active; 'I' for Inactive)
REMARK    1  A    between atoms: C_1  and  O_2
REMARK    2  A    between atoms: O_2  and  C_3
REMARK    3  A    between atoms: C_7  and  C_8
REMARK    4  A    between atoms: N_10  and  C_11
REMARK    5  A    between atoms: N_10  and  C_12
REMARK    6  A    between atoms: C_12  and  C_13
REMARK    7  A    between atoms: C_13  and  O_15
REMARK    8  A    between atoms: C_16  and  C_17
REMARK    9  A    between atoms: C_17  and  O_18
REMARK   10  A    between atoms: O_18  and  C_19
REMARK   11  A    between atoms: C_19  and  C_20
REMARK                            x       y       z     vdW  Elec       q    Type
REMARK                         _______ _______ _______ _____ _____    ______ ____
ROOT
ATOM      1  C   UNL     1       1.459   3.162  19.696  0.00  0.00    +0.000 C 
ATOM      2  C   UNL     1       1.234   4.676  20.120  0.00  0.00    +0.000 C 
ATOM      3  O   UNL     1       0.421   5.252  20.812  0.00  0.00    +0.000 OA
ATOM      4  N   UNL     1       2.309   5.044  19.372  0.00  0.00    +0.000 N 
ATOM      5  C   UNL     1       2.992   6.203  18.961  0.00  0.00    +0.000 C 
ATOM      6  C   UNL     1       4.008   6.022  18.057  0.00  0.00    +0.000 C 
ATOM      7  C   UNL     1       4.404   4.679  17.423  0.00  0.00    +0.000 C 
ATOM      8  S   UNL     1       3.191   3.423  17.558  0.00  0.00    +0.000 S 
ATOM      9  O   UNL     1       2.074   3.780  16.703  0.00  0.00    +0.000 OA
ATOM     10  O   UNL     1       3.873   2.153  17.371  0.00  0.00    +0.000 OA
ATOM     11  C   UNL     1       2.827   3.673  19.245  0.00  0.00    +0.000 C 
ENDROOT
BRANCH   5  12
ATOM     12  C   UNL     1       2.311   7.551  19.503  0.00  0.00    +0.000 C 
ATOM     13  O   UNL     1       2.153   7.654  20.726  0.00  0.00    +0.000 OA
ATOM     14  N   UNL     1       1.824   8.619  18.750  0.00  0.00    +0.000 N 
ATOM     15  C   UNL     1       1.499   8.611  17.355  0.00  0.00    +0.000 C 
BRANCH  14  16
ATOM     16  C   UNL     1       1.374   9.885  19.414  0.00  0.00    +0.000 C 
BRANCH  16  17
ATOM     17  C   UNL     1      -0.114   9.886  19.781  0.00  0.00    +0.000 C 
ATOM     18  O   UNL     1      -0.988  10.431  19.116  0.00  0.00    +0.000 OA
BRANCH  17  19
ATOM     19  O   UNL     1      -0.377   9.281  20.962  0.00  0.00    +0.000 OA
ATOM     20  H   UNL     1      -1.205   8.759  20.894  0.00  0.00    +0.000 HD
ENDBRANCH  17  19
ENDBRANCH  16  17
ENDBRANCH  14  16
ENDBRANCH   5  12
BRANCH   1  22
ATOM     21  C   UNL     1       2.366   2.456  21.840  0.00  0.00    +0.000 C 
ATOM     22  O   UNL     1       1.509   2.163  20.747  0.00  0.00    +0.000 OA
ENDBRANCH   1  22
BRANCH   6  23
ATOM     23  C   UNL     1       4.904   7.082  17.444  0.00  0.00    +0.000 C 
BRANCH  23  24
ATOM     24  O   UNL     1       6.178   6.614  16.939  0.00  0.00    +0.000 OA
BRANCH  24  25
ATOM     25  C   UNL     1       7.249   6.843  17.750  0.00  0.00    +0.000 C 
ATOM     26  C   UNL     1       7.768   8.240  17.606  0.00  0.00    +0.000 C 
ATOM     27  O   UNL     1       7.741   6.015  18.504  0.00  0.00    +0.000 OA
ENDBRANCH  24  25
ENDBRANCH  23  24
ENDBRANCH   6  23
TORSDOF 8
ENDMDL
