MODEL 1
REMARK VINA RESULT:      -7.5      0.000      0.000
REMARK  Name = 
REMARK  7 active torsions:
REMARK  status: ('A' for Active; 'I' for Inactive)
REMARK    1  A    between atoms: C_1  and  O_2
REMARK    2  A    between atoms: O_2  and  C_3
REMARK    3  A    between atoms: C_5  and  O_6
REMARK    4  A    between atoms: O_6  and  C_7
REMARK    5  A    between atoms: C_9  and  O_10
REMARK    6  A    between atoms: C_17  and  C_18
REMARK    7  A    between atoms: C_19  and  C_20
REMARK                            x       y       z     vdW  Elec       q    Type
REMARK                         _______ _______ _______ _____ _____    ______ ____
ROOT
ATOM      1  C   UNL     1       5.818   4.943  16.351  0.00  0.00    +0.000 A 
ATOM      2  C   UNL     1       5.704   4.121  17.466  0.00  0.00    +0.000 A 
ATOM      3  C   UNL     1       4.853   4.453  18.528  0.00  0.00    +0.000 A 
ATOM      4  C   UNL     1       4.047   5.640  18.495  0.00  0.00    +0.000 A 
ATOM      5  C   UNL     1       3.131   6.108  19.486  0.00  0.00    +0.000 A 
ATOM      6  C   UNL     1       2.425   7.316  19.342  0.00  0.00    +0.000 A 
ATOM      7  C   UNL     1       2.610   8.121  18.230  0.00  0.00    +0.000 A 
ATOM      8  C   UNL     1       3.500   7.701  17.246  0.00  0.00    +0.000 A 
ATOM      9  C   UNL     1       4.196   6.479  17.353  0.00  0.00    +0.000 A 
ATOM     10  C   UNL     1       5.072   6.118  16.311  0.00  0.00    +0.000 A 
ATOM     11  O   UNL     1       1.998   9.332  18.047  0.00  0.00    +0.000 OA
ATOM     12  C   UNL     1       0.835   9.554  18.873  0.00  0.00    +0.000 C 
ATOM     13  C   UNL     1       0.406  11.006  18.662  0.00  0.00    +0.000 C 
ATOM     14  C   UNL     1       1.147   9.252  20.341  0.00  0.00    +0.000 C 
ATOM     15  C   UNL     1       0.004   9.547  21.308  0.00  0.00    +0.000 C 
ATOM     16  C   UNL     1       1.501   7.788  20.387  0.00  0.00    +0.000 C 
ATOM     17  O   UNL     1       1.110   7.006  21.250  0.00  0.00    +0.000 OA
ENDROOT
BRANCH   1  19
ATOM     18  C   UNL     1       6.015   4.125  14.129  0.00  0.00    +0.000 C 
ATOM     19  O   UNL     1       6.626   4.727  15.266  0.00  0.00    +0.000 OA
ENDBRANCH   1  19
BRANCH   3  20
ATOM     20  O   UNL     1       5.056   3.631  19.611  0.00  0.00    +0.000 OA
ATOM     21  C   UNL     1       4.374   2.383  19.638  0.00  0.00    +0.000 C 
ENDBRANCH   3  20
BRANCH   5  22
ATOM     22  O   UNL     1       2.938   5.372  20.627  0.00  0.00    +0.000 OA
ATOM     23  H   UNL     1       2.857   5.975  21.400  0.00  0.00    +0.000 HD
ENDBRANCH   5  22
TORSDOF 3
ENDMDL
MODEL 2
REMARK VINA RESULT:      -7.2      1.001      1.043
REMARK  Name = 
REMARK  7 active torsions:
REMARK  status: ('A' for Active; 'I' for Inactive)
REMARK    1  A    between atoms: C_1  and  O_2
REMARK    2  A    between atoms: O_2  and  C_3
REMARK    3  A    between atoms: C_5  and  O_6
REMARK    4  A    between atoms: O_6  and  C_7
REMARK    5  A    between atoms: C_9  and  O_10
REMARK    6  A    between atoms: C_17  and  C_18
REMARK    7  A    between atoms: C_19  and  C_20
REMARK                            x       y       z     vdW  Elec       q    Type
REMARK                         _______ _______ _______ _____ _____    ______ ____
ROOT
ATOM      1  C   UNL     1       4.893   4.775  16.875  0.00  0.00    +0.000 A 
ATOM      2  C   UNL     1       4.566   4.026  17.999  0.00  0.00    +0.000 A 
ATOM      3  C   UNL     1       3.747   4.551  19.007  0.00  0.00    +0.000 A 
ATOM      4  C   UNL     1       3.193   5.871  18.907  0.00  0.00    +0.000 A 
ATOM      5  C   UNL     1       2.341   6.538  19.838  0.00  0.00    +0.000 A 
ATOM      6  C   UNL     1       1.894   7.856  19.632  0.00  0.00    +0.000 A 
ATOM      7  C   UNL     1       2.288   8.576  18.516  0.00  0.00    +0.000 A 
ATOM      8  C   UNL     1       3.124   7.960  17.589  0.00  0.00    +0.000 A 
ATOM      9  C   UNL     1       3.560   6.630  17.758  0.00  0.00    +0.000 A 
ATOM     10  C   UNL     1       4.396   6.073  16.771  0.00  0.00    +0.000 A 
ATOM     11  O   UNL     1       1.935   9.877  18.275  0.00  0.00    +0.000 OA
ATOM     12  C   UNL     1       0.801  10.347  19.034  0.00  0.00    +0.000 C 
ATOM     13  C   UNL     1       0.677  11.848  18.771  0.00  0.00    +0.000 C 
ATOM     14  C   UNL     1       0.976  10.035  20.522  0.00  0.00    +0.000 C 
ATOM     15  C   UNL     1      -0.132  10.577  21.421  0.00  0.00    +0.000 C 
ATOM     16  C   UNL     1       1.032   8.532  20.617  0.00  0.00    +0.000 C 
ATOM     17  O   UNL     1       0.454   7.868  21.474  0.00  0.00    +0.000 OA
ENDROOT
BRANCH   1  19
ATOM     18  C   UNL     1       7.077   4.692  15.945  0.00  0.00    +0.000 C 
ATOM     19  O   UNL     1       5.694   4.373  15.839  0.00  0.00    +0.000 OA
ENDBRANCH   1  19
BRANCH   3  20
ATOM     20  O   UNL     1       3.731   3.738  20.116  0.00  0.00    +0.000 OA
ATOM     21  C   UNL     1       4.290   2.435  19.996  0.00  0.00    +0.000 C 
ENDBRANCH   3  20
BRANCH   5  22
ATOM     22  O   UNL     1       1.952   5.890  20.982  0.00  0.00    +0.000 OA
ATOM     23  H   UNL     1       1.476   5.061  20.747  0.00  0.00    +0.000 HD
ENDBRANCH   5  22
TORSDOF 3
ENDMDL
MODEL 3
REMARK VINA RESULT:      -7.0      1.546      6.592
REMARK  Name = 
REMARK  7 active torsions:
REMARK  status: ('A' for Active; 'I' for Inactive)
REMARK    1  A    between atoms: C_1  and  O_2
REMARK    2  A    between atoms: O_2  and  C_3
REMARK    3  A    between atoms: C_5  and  O_6
REMARK    4  A    between atoms: O_6  and  C_7
REMARK    5  A    between atoms: C_9  and  O_10
REMARK    6  A    between atoms: C_17  and  C_18
REMARK    7  A    between atoms: C_19  and  C_20
REMARK                            x       y       z     vdW  Elec       q    Type
REMARK                         _______ _______ _______ _____ _____    ______ ____
ROOT
ATOM      1  C   UNL     1      -0.152  11.466  19.488  0.00  0.00    +0.000 A 
ATOM      2  C   UNL     1      -0.419  10.765  20.657  0.00  0.00    +0.000 A 
ATOM      3  C   UNL     1       0.169   9.517  20.905  0.00  0.00    +0.000 A 
ATOM      4  C   UNL     1       1.089   8.928  19.974  0.00  0.00    +0.000 A 
ATOM      5  C   UNL     1       1.772   7.679  20.086  0.00  0.00    +0.000 A 
ATOM      6  C   UNL     1       2.626   7.200  19.076  0.00  0.00    +0.000 A 
ATOM      7  C   UNL     1       2.822   7.919  17.908  0.00  0.00    +0.000 A 
ATOM      8  C   UNL     1       2.167   9.138  17.760  0.00  0.00    +0.000 A 
ATOM      9  C   UNL     1       1.330   9.654  18.772  0.00  0.00    +0.000 A 
ATOM     10  C   UNL     1       0.710  10.899  18.552  0.00  0.00    +0.000 A 
ATOM     11  O   UNL     1       3.597   7.493  16.863  0.00  0.00    +0.000 OA
ATOM     12  C   UNL     1       4.531   6.442  17.190  0.00  0.00    +0.000 C 
ATOM     13  C   UNL     1       5.164   5.979  15.878  0.00  0.00    +0.000 C 
ATOM     14  C   UNL     1       3.826   5.298  17.924  0.00  0.00    +0.000 C 
ATOM     15  C   UNL     1       4.714   4.096  18.231  0.00  0.00    +0.000 C 
ATOM     16  C   UNL     1       3.305   5.899  19.204  0.00  0.00    +0.000 C 
ATOM     17  O   UNL     1       3.372   5.356  20.304  0.00  0.00    +0.000 OA
ENDROOT
BRANCH   1  19
ATOM     18  C   UNL     1       0.249  13.688  18.749  0.00  0.00    +0.000 C 
ATOM     19  O   UNL     1      -0.680  12.680  19.134  0.00  0.00    +0.000 OA
ENDBRANCH   1  19
BRANCH   3  20
ATOM     20  O   UNL     1      -0.394   8.904  21.999  0.00  0.00    +0.000 OA
ATOM     21  C   UNL     1      -0.114   9.445  23.284  0.00  0.00    +0.000 C 
ENDBRANCH   3  20
BRANCH   5  22
ATOM     22  O   UNL     1       1.585   6.905  21.202  0.00  0.00    +0.000 OA
ATOM     23  H   UNL     1       2.421   6.437  21.425  0.00  0.00    +0.000 HD
ENDBRANCH   5  22
TORSDOF 3
ENDMDL
MODEL 4
REMARK VINA RESULT:      -7.0      1.553      6.240
REMARK  Name = 
REMARK  7 active torsions:
REMARK  status: ('A' for Active; 'I' for Inactive)
REMARK    1  A    between atoms: C_1  and  O_2
REMARK    2  A    between atoms: O_2  and  C_3
REMARK    3  A    between atoms: C_5  and  O_6
REMARK    4  A    between atoms: O_6  and  C_7
REMARK    5  A    between atoms: C_9  and  O_10
REMARK    6  A    between atoms: C_17  and  C_18
REMARK    7  A    between atoms: C_19  and  C_20
REMARK                            x       y       z     vdW  Elec       q    Type
REMARK                         _______ _______ _______ _____ _____    ______ ____
ROOT
ATOM      1  C   UNL     1       1.141  10.906  19.031  0.00  0.00    +0.000 A 
ATOM      2  C   UNL     1       0.629  10.396  20.218  0.00  0.00    +0.000 A 
ATOM      3  C   UNL     1       0.871   9.070  20.601  0.00  0.00    +0.000 A 
ATOM      4  C   UNL     1       1.676   8.195  19.796  0.00  0.00    +0.000 A 
ATOM      5  C   UNL     1       2.019   6.833  20.053  0.00  0.00    +0.000 A 
ATOM      6  C   UNL     1       2.794   6.075  19.157  0.00  0.00    +0.000 A 
ATOM      7  C   UNL     1       3.240   6.619  17.964  0.00  0.00    +0.000 A 
ATOM      8  C   UNL     1       2.920   7.943  17.676  0.00  0.00    +0.000 A 
ATOM      9  C   UNL     1       2.171   8.733  18.573  0.00  0.00    +0.000 A 
ATOM     10  C   UNL     1       1.896  10.067  18.215  0.00  0.00    +0.000 A 
ATOM     11  O   UNL     1       3.954   5.927  17.021  0.00  0.00    +0.000 OA
ATOM     12  C   UNL     1       4.573   4.715  17.500  0.00  0.00    +0.000 C 
ATOM     13  C   UNL     1       5.158   3.999  16.283  0.00  0.00    +0.000 C 
ATOM     14  C   UNL     1       3.558   3.845  18.247  0.00  0.00    +0.000 C 
ATOM     15  C   UNL     1       4.097   2.495  18.713  0.00  0.00    +0.000 C 
ATOM     16  C   UNL     1       3.117   4.665  19.433  0.00  0.00    +0.000 C 
ATOM     17  O   UNL     1       2.974   4.221  20.569  0.00  0.00    +0.000 OA
ENDROOT
BRANCH   1  19
ATOM     18  C   UNL     1       2.133  12.910  18.231  0.00  0.00    +0.000 C 
ATOM     19  O   UNL     1       0.956  12.176  18.550  0.00  0.00    +0.000 OA
ENDBRANCH   1  19
BRANCH   3  20
ATOM     20  O   UNL     1       0.101   8.710  21.682  0.00  0.00    +0.000 OA
ATOM     21  C   UNL     1       0.018   9.618  22.773  0.00  0.00    +0.000 C 
ENDBRANCH   3  20
BRANCH   5  22
ATOM     22  O   UNL     1       1.571   6.229  21.199  0.00  0.00    +0.000 OA
ATOM     23  H   UNL     1       0.604   6.059  21.128  0.00  0.00    +0.000 HD
ENDBRANCH   5  22
TORSDOF 3
ENDMDL
MODEL 5
REMARK VINA RESULT:      -6.9      3.723      4.608
REMARK  Name = 
REMARK  7 active torsions:
REMARK  status: ('A' for Active; 'I' for Inactive)
REMARK    1  A    between atoms: C_1  and  O_2
REMARK    2  A    between atoms: O_2  and  C_3
REMARK    3  A    between atoms: C_5  and  O_6
REMARK    4  A    between atoms: O_6  and  C_7
REMARK    5  A    between atoms: C_9  and  O_10
REMARK    6  A    between atoms: C_17  and  C_18
REMARK    7  A    between atoms: C_19  and  C_20
REMARK                            x       y       z     vdW  Elec       q    Type
REMARK                         _______ _______ _______ _____ _____    ______ ____
ROOT
ATOM      1  C   UNL     1       6.843   4.750  14.297  0.00  0.00    +0.000 A 
ATOM      2  C   UNL     1       7.557   5.375  15.312  0.00  0.00    +0.000 A 
ATOM      3  C   UNL     1       7.076   5.399  16.628  0.00  0.00    +0.000 A 
ATOM      4  C   UNL     1       5.841   4.759  16.983  0.00  0.00    +0.000 A 
ATOM      5  C   UNL     1       5.227   4.689  18.270  0.00  0.00    +0.000 A 
ATOM      6  C   UNL     1       3.988   4.054  18.474  0.00  0.00    +0.000 A 
ATOM      7  C   UNL     1       3.296   3.486  17.417  0.00  0.00    +0.000 A 
ATOM      8  C   UNL     1       3.860   3.541  16.146  0.00  0.00    +0.000 A 
ATOM      9  C   UNL     1       5.115   4.144  15.921  0.00  0.00    +0.000 A 
ATOM     10  C   UNL     1       5.625   4.152  14.609  0.00  0.00    +0.000 A 
ATOM     11  O   UNL     1       2.064   2.899  17.531  0.00  0.00    +0.000 OA
ATOM     12  C   UNL     1       1.690   2.533  18.877  0.00  0.00    +0.000 C 
ATOM     13  C   UNL     1       0.234   2.069  18.827  0.00  0.00    +0.000 C 
ATOM     14  C   UNL     1       1.887   3.711  19.835  0.00  0.00    +0.000 C 
ATOM     15  C   UNL     1       1.430   3.450  21.267  0.00  0.00    +0.000 C 
ATOM     16  C   UNL     1       3.364   4.012  19.807  0.00  0.00    +0.000 C 
ATOM     17  O   UNL     1       4.040   4.263  20.802  0.00  0.00    +0.000 OA
ENDROOT
BRANCH   1  19
ATOM     18  C   UNL     1       6.637   3.617  12.219  0.00  0.00    +0.000 C 
ATOM     19  O   UNL     1       7.208   4.678  12.978  0.00  0.00    +0.000 OA
ENDBRANCH   1  19
BRANCH   3  20
ATOM     20  O   UNL     1       7.815   6.247  17.418  0.00  0.00    +0.000 OA
ATOM     21  C   UNL     1       7.483   7.630  17.405  0.00  0.00    +0.000 C 
ENDBRANCH   3  20
BRANCH   5  22
ATOM     22  O   UNL     1       5.847   5.269  19.346  0.00  0.00    +0.000 OA
ATOM     23  H   UNL     1       6.773   5.502  19.109  0.00  0.00    +0.000 HD
ENDBRANCH   5  22
TORSDOF 3
ENDMDL
MODEL 6
REMARK VINA RESULT:      -6.8      1.679      3.993
REMARK  Name = 
REMARK  7 active torsions:
REMARK  status: ('A' for Active; 'I' for Inactive)
REMARK    1  A    between atoms: C_1  and  O_2
REMARK    2  A    between atoms: O_2  and  C_3
REMARK    3  A    between atoms: C_5  and  O_6
REMARK    4  A    between atoms: O_6  and  C_7
REMARK    5  A    between atoms: C_9  and  O_10
REMARK    6  A    between atoms: C_17  and  C_18
REMARK    7  A    between atoms: C_19  and  C_20
REMARK                            x       y       z     vdW  Elec       q    Type
REMARK                         _______ _______ _______ _____ _____    ______ ____
ROOT
ATOM      1  C   UNL     1       3.076   3.935  20.074  0.00  0.00    +0.000 A 
ATOM      2  C   UNL     1       3.640   4.171  18.826  0.00  0.00    +0.000 A 
ATOM      3  C   UNL     1       3.503   5.413  18.191  0.00  0.00    +0.000 A 
ATOM      4  C   UNL     1       2.797   6.496  18.815  0.00  0.00    +0.000 A 
ATOM      5  C   UNL     1       2.581   7.812  18.304  0.00  0.00    +0.000 A 
ATOM      6  C   UNL     1       1.836   8.774  19.010  0.00  0.00    +0.000 A 
ATOM      7  C   UNL     1       1.256   8.472  20.231  0.00  0.00    +0.000 A 
ATOM      8  C   UNL     1       1.440   7.197  20.757  0.00  0.00    +0.000 A 
ATOM      9  C   UNL     1       2.208   6.225  20.084  0.00  0.00    +0.000 A 
ATOM     10  C   UNL     1       2.357   4.960  20.685  0.00  0.00    +0.000 A 
ATOM     11  O   UNL     1       0.477   9.340  20.949  0.00  0.00    +0.000 OA
ATOM     12  C   UNL     1       0.614  10.728  20.575  0.00  0.00    +0.000 C 
ATOM     13  C   UNL     1      -0.452  11.507  21.346  0.00  0.00    +0.000 C 
ATOM     14  C   UNL     1       0.469  10.899  19.060  0.00  0.00    +0.000 C 
ATOM     15  C   UNL     1       0.506  12.345  18.576  0.00  0.00    +0.000 C 
ATOM     16  C   UNL     1       1.608  10.119  18.454  0.00  0.00    +0.000 C 
ATOM     17  O   UNL     1       2.302  10.516  17.521  0.00  0.00    +0.000 OA
ENDROOT
BRANCH   1  19
ATOM     18  C   UNL     1       2.050   2.500  21.665  0.00  0.00    +0.000 C 
ATOM     19  O   UNL     1       3.133   2.762  20.779  0.00  0.00    +0.000 OA
ENDBRANCH   1  19
BRANCH   3  20
ATOM     20  O   UNL     1       3.939   5.362  16.888  0.00  0.00    +0.000 OA
ATOM     21  C   UNL     1       4.863   4.340  16.534  0.00  0.00    +0.000 C 
ENDBRANCH   3  20
BRANCH   5  22
ATOM     22  O   UNL     1       3.097   8.155  17.082  0.00  0.00    +0.000 OA
ATOM     23  H   UNL     1       2.510   7.819  16.368  0.00  0.00    +0.000 HD
ENDBRANCH   5  22
TORSDOF 3
ENDMDL
MODEL 7
REMARK VINA RESULT:      -6.8      1.741      7.518
REMARK  Name = 
REMARK  7 active torsions:
REMARK  status: ('A' for Active; 'I' for Inactive)
REMARK    1  A    between atoms: C_1  and  O_2
REMARK    2  A    between atoms: O_2  and  C_3
REMARK    3  A    between atoms: C_5  and  O_6
REMARK    4  A    between atoms: O_6  and  C_7
REMARK    5  A    between atoms: C_9  and  O_10
REMARK    6  A    between atoms: C_17  and  C_18
REMARK    7  A    between atoms: C_19  and  C_20
REMARK                            x       y       z     vdW  Elec       q    Type
REMARK                         _______ _______ _______ _____ _____    ______ ____
ROOT
ATOM      1  C   UNL     1      -0.483  10.228  21.988  0.00  0.00    +0.000 A 
ATOM      2  C   UNL     1      -0.378  11.090  20.903  0.00  0.00    +0.000 A 
ATOM      3  C   UNL     1       0.380  10.746  19.776  0.00  0.00    +0.000 A 
ATOM      4  C   UNL     1       1.054   9.483  19.686  0.00  0.00    +0.000 A 
ATOM      5  C   UNL     1       1.850   8.987  18.609  0.00  0.00    +0.000 A 
ATOM      6  C   UNL     1       2.488   7.734  18.666  0.00  0.00    +0.000 A 
ATOM      7  C   UNL     1       2.387   6.933  19.792  0.00  0.00    +0.000 A 
ATOM      8  C   UNL     1       1.625   7.386  20.864  0.00  0.00    +0.000 A 
ATOM      9  C   UNL     1       0.951   8.625  20.819  0.00  0.00    +0.000 A 
ATOM     10  C   UNL     1       0.191   9.010  21.940  0.00  0.00    +0.000 A 
ATOM     11  O   UNL     1       3.021   5.728  19.938  0.00  0.00    +0.000 OA
ATOM     12  C   UNL     1       3.479   5.131  18.706  0.00  0.00    +0.000 C 
ATOM     13  C   UNL     1       4.309   3.904  19.083  0.00  0.00    +0.000 C 
ATOM     14  C   UNL     1       4.283   6.139  17.880  0.00  0.00    +0.000 C 
ATOM     15  C   UNL     1       4.890   5.573  16.600  0.00  0.00    +0.000 C 
ATOM     16  C   UNL     1       3.321   7.252  17.551  0.00  0.00    +0.000 C 
ATOM     17  O   UNL     1       3.233   7.791  16.451  0.00  0.00    +0.000 OA
ENDROOT
BRANCH   1  19
ATOM     18  C   UNL     1      -1.924  11.676  23.201  0.00  0.00    +0.000 C 
ATOM     19  O   UNL     1      -1.180  10.464  23.145  0.00  0.00    +0.000 OA
ENDBRANCH   1  19
BRANCH   3  20
ATOM     20  O   UNL     1       0.531  11.817  18.926  0.00  0.00    +0.000 OA
ATOM     21  C   UNL     1       1.070  13.020  19.460  0.00  0.00    +0.000 C 
ENDBRANCH   3  20
BRANCH   5  22
ATOM     22  O   UNL     1       2.018   9.754  17.486  0.00  0.00    +0.000 OA
ATOM     23  H   UNL     1       2.851   9.495  17.030  0.00  0.00    +0.000 HD
ENDBRANCH   5  22
TORSDOF 3
ENDMDL
MODEL 8
REMARK VINA RESULT:      -6.7      1.253      3.499
REMARK  Name = 
REMARK  7 active torsions:
REMARK  status: ('A' for Active; 'I' for Inactive)
REMARK    1  A    between atoms: C_1  and  O_2
REMARK    2  A    between atoms: O_2  and  C_3
REMARK    3  A    between atoms: C_5  and  O_6
REMARK    4  A    between atoms: O_6  and  C_7
REMARK    5  A    between atoms: C_9  and  O_10
REMARK    6  A    between atoms: C_17  and  C_18
REMARK    7  A    between atoms: C_19  and  C_20
REMARK                            x       y       z     vdW  Elec       q    Type
REMARK                         _______ _______ _______ _____ _____    ______ ____
ROOT
ATOM      1  C   UNL     1       4.464   3.546  18.954  0.00  0.00    +0.000 A 
ATOM      2  C   UNL     1       4.845   4.082  17.730  0.00  0.00    +0.000 A 
ATOM      3  C   UNL     1       4.407   5.351  17.327  0.00  0.00    +0.000 A 
ATOM      4  C   UNL     1       3.571   6.155  18.172  0.00  0.00    +0.000 A 
ATOM      5  C   UNL     1       3.055   7.460  17.910  0.00  0.00    +0.000 A 
ATOM      6  C   UNL     1       2.212   8.128  18.817  0.00  0.00    +0.000 A 
ATOM      7  C   UNL     1       1.826   7.528  20.004  0.00  0.00    +0.000 A 
ATOM      8  C   UNL     1       2.305   6.253  20.292  0.00  0.00    +0.000 A 
ATOM      9  C   UNL     1       3.175   5.576  19.413  0.00  0.00    +0.000 A 
ATOM     10  C   UNL     1       3.625   4.292  19.778  0.00  0.00    +0.000 A 
ATOM     11  O   UNL     1       0.969   8.095  20.910  0.00  0.00    +0.000 OA
ATOM     12  C   UNL     1       0.797   9.521  20.770  0.00  0.00    +0.000 C 
ATOM     13  C   UNL     1      -0.317   9.935  21.732  0.00  0.00    +0.000 C 
ATOM     14  C   UNL     1       0.472   9.889  19.320  0.00  0.00    +0.000 C 
ATOM     15  C   UNL     1       0.180  11.369  19.089  0.00  0.00    +0.000 C 
ATOM     16  C   UNL     1       1.674   9.465  18.516  0.00  0.00    +0.000 C 
ATOM     17  O   UNL     1       2.182  10.136  17.620  0.00  0.00    +0.000 OA
ENDROOT
BRANCH   1  19
ATOM     18  C   UNL     1       4.392   2.013  20.768  0.00  0.00    +0.000 C 
ATOM     19  O   UNL     1       4.817   2.315  19.443  0.00  0.00    +0.000 OA
ENDBRANCH   1  19
BRANCH   3  20
ATOM     20  O   UNL     1       4.713   5.592  16.008  0.00  0.00    +0.000 OA
ATOM     21  C   UNL     1       5.726   4.798  15.403  0.00  0.00    +0.000 C 
ENDBRANCH   3  20
BRANCH   5  22
ATOM     22  O   UNL     1       3.371   8.087  16.732  0.00  0.00    +0.000 OA
ATOM     23  H   UNL     1       3.881   8.907  16.919  0.00  0.00    +0.000 HD
ENDBRANCH   5  22
TORSDOF 3
ENDMDL
MODEL 9
REMARK VINA RESULT:      -6.6      1.924      4.346
REMARK  Name = 
REMARK  7 active torsions:
REMARK  status: ('A' for Active; 'I' for Inactive)
REMARK    1  A    between atoms: C_1  and  O_2
REMARK    2  A    between atoms: O_2  and  C_3
REMARK    3  A    between atoms: C_5  and  O_6
REMARK    4  A    between atoms: O_6  and  C_7
REMARK    5  A    between atoms: C_9  and  O_10
REMARK    6  A    between atoms: C_17  and  C_18
REMARK    7  A    between atoms: C_19  and  C_20
REMARK                            x       y       z     vdW  Elec       q    Type
REMARK                         _______ _______ _______ _____ _____    ______ ____
ROOT
ATOM      1  C   UNL     1       2.896   4.448  20.021  0.00  0.00    +0.000 A 
ATOM      2  C   UNL     1       3.399   4.972  18.837  0.00  0.00    +0.000 A 
ATOM      3  C   UNL     1       3.124   6.292  18.455  0.00  0.00    +0.000 A 
ATOM      4  C   UNL     1       2.336   7.160  19.282  0.00  0.00    +0.000 A 
ATOM      5  C   UNL     1       1.979   8.521  19.037  0.00  0.00    +0.000 A 
ATOM      6  C   UNL     1       1.165   9.252  19.922  0.00  0.00    +0.000 A 
ATOM      7  C   UNL     1       0.652   8.665  21.068  0.00  0.00    +0.000 A 
ATOM      8  C   UNL     1       0.973   7.338  21.336  0.00  0.00    +0.000 A 
ATOM      9  C   UNL     1       1.812   6.594  20.481  0.00  0.00    +0.000 A 
ATOM     10  C   UNL     1       2.099   5.259  20.825  0.00  0.00    +0.000 A 
ATOM     11  O   UNL     1      -0.187   9.298  21.946  0.00  0.00    +0.000 OA
ATOM     12  C   UNL     1      -0.195  10.738  21.846  0.00  0.00    +0.000 C 
ATOM     13  C   UNL     1      -1.308  11.245  22.763  0.00  0.00    +0.000 C 
ATOM     14  C   UNL     1      -0.398  11.179  20.394  0.00  0.00    +0.000 C 
ATOM     15  C   UNL     1      -0.515  12.688  20.198  0.00  0.00    +0.000 C 
ATOM     16  C   UNL     1       0.793  10.648  19.639  0.00  0.00    +0.000 C 
ATOM     17  O   UNL     1       1.418  11.283  18.793  0.00  0.00    +0.000 OA
ENDROOT
BRANCH   1  19
ATOM     18  C   UNL     1       2.205   2.734  21.515  0.00  0.00    +0.000 C 
ATOM     19  O   UNL     1       3.086   3.172  20.486  0.00  0.00    +0.000 OA
ENDBRANCH   1  19
BRANCH   3  20
ATOM     20  O   UNL     1       3.526   6.535  17.162  0.00  0.00    +0.000 OA
ATOM     21  C   UNL     1       4.922   6.535  16.887  0.00  0.00    +0.000 C 
ENDBRANCH   3  20
BRANCH   5  22
ATOM     22  O   UNL     1       2.425   9.141  17.899  0.00  0.00    +0.000 OA
ATOM     23  H   UNL     1       3.355   9.435  18.025  0.00  0.00    +0.000 HD
ENDBRANCH   5  22
TORSDOF 3
ENDMDL
