MODEL 1
REMARK VINA RESULT:      -6.5      0.000      0.000
REMARK  Name = 
REMARK  6 active torsions:
REMARK  status: ('A' for Active; 'I' for Inactive)
REMARK    1  A    between atoms: N_1  and  C_2
REMARK    2  A    between atoms: C_2  and  C_3
REMARK    3  A    between atoms: C_5  and  C_6
REMARK    4  A    between atoms: C_12  and  O_13
REMARK    5  A    between atoms: O_13  and  C_14
REMARK    6  A    between atoms: C_14  and  C_15
REMARK                            x       y       z     vdW  Elec       q    Type
REMARK                         _______ _______ _______ _____ _____    ______ ____
ROOT
ATOM      1  C   UNL     1       5.284   4.128  16.895  0.00  0.00    +0.000 A 
ATOM      2  C   UNL     1       3.878   4.036  16.775  0.00  0.00    +0.000 A 
ATOM      3  C   UNL     1       3.023   4.314  17.840  0.00  0.00    +0.000 A 
ATOM      4 CL   UNL     1       1.322   4.147  17.645  0.00  0.00    +0.000 Cl
ATOM      5  C   UNL     1       3.540   4.736  19.051  0.00  0.00    +0.000 A 
ATOM      6  C   UNL     1       4.920   4.857  19.197  0.00  0.00    +0.000 A 
ATOM      7  C   UNL     1       5.802   4.519  18.149  0.00  0.00    +0.000 A 
ENDROOT
BRANCH   1  10
ATOM      8  C   UNL     1       5.773   4.345  14.243  0.00  0.00    +0.000 C 
ATOM      9  C   UNL     1       6.833   5.051  15.042  0.00  0.00    +0.000 C 
ATOM     10  C   UNL     1       6.099   3.864  15.640  0.00  0.00    +0.000 C 
BRANCH   8  11
ATOM     11  C   UNL     1       6.146   3.483  13.070  0.00  0.00    +0.000 C 
BRANCH  11  12
ATOM     12  N   UNL     1       5.014   3.372  12.165  0.00  0.00    +0.000 NA
ATOM     13  H   UNL     1       4.367   2.676  12.534  0.00  0.00    +0.000 HD
ATOM     14  H   UNL     1       5.338   3.002  11.273  0.00  0.00    +0.000 HD
ENDBRANCH  11  12
ENDBRANCH   8  11
ENDBRANCH   1  10
BRANCH   7  15
ATOM     15  O   UNL     1       7.173   4.550  18.296  0.00  0.00    +0.000 OA
BRANCH  15  16
ATOM     16  C   UNL     1       7.696   5.789  18.795  0.00  0.00    +0.000 C 
BRANCH  16  17
ATOM     17  C   UNL     1       7.835   6.792  17.694  0.00  0.00    +0.000 C 
ATOM     18  C   UNL     1       6.747   7.826  17.520  0.00  0.00    +0.000 C 
ATOM     19  C   UNL     1       8.104   8.242  18.011  0.00  0.00    +0.000 C 
ENDBRANCH  16  17
ENDBRANCH  15  16
ENDBRANCH   7  15
TORSDOF 6
ENDMDL
MODEL 2
REMARK VINA RESULT:      -6.3      3.465      5.406
REMARK  Name = 
REMARK  6 active torsions:
REMARK  status: ('A' for Active; 'I' for Inactive)
REMARK    1  A    between atoms: N_1  and  C_2
REMARK    2  A    between atoms: C_2  and  C_3
REMARK    3  A    between atoms: C_5  and  C_6
REMARK    4  A    between atoms: C_12  and  O_13
REMARK    5  A    between atoms: O_13  and  C_14
REMARK    6  A    between atoms: C_14  and  C_15
REMARK                            x       y       z     vdW  Elec       q    Type
REMARK                         _______ _______ _______ _____ _____    ______ ____
ROOT
ATOM      1  C   UNL     1       2.956   5.389  18.711  0.00  0.00    +0.000 A 
ATOM      2  C   UNL     1       2.150   6.512  19.006  0.00  0.00    +0.000 A 
ATOM      3  C   UNL     1       2.404   7.771  18.465  0.00  0.00    +0.000 A 
ATOM      4 CL   UNL     1       1.410   9.109  18.891  0.00  0.00    +0.000 Cl
ATOM      5  C   UNL     1       3.447   7.944  17.574  0.00  0.00    +0.000 A 
ATOM      6  C   UNL     1       4.249   6.853  17.245  0.00  0.00    +0.000 A 
ATOM      7  C   UNL     1       4.045   5.588  17.834  0.00  0.00    +0.000 A 
ENDROOT
BRANCH   1  10
ATOM      8  C   UNL     1       1.217   3.771  20.006  0.00  0.00    +0.000 C 
ATOM      9  C   UNL     1       1.429   3.307  18.592  0.00  0.00    +0.000 C 
ATOM     10  C   UNL     1       2.531   4.061  19.314  0.00  0.00    +0.000 C 
BRANCH   8  11
ATOM     11  C   UNL     1       1.192   2.786  21.139  0.00  0.00    +0.000 C 
BRANCH  11  12
ATOM     12  N   UNL     1       2.196   3.149  22.126  0.00  0.00    +0.000 NA
ATOM     13  H   UNL     1       2.358   2.351  22.737  0.00  0.00    +0.000 HD
ATOM     14  H   UNL     1       1.822   3.884  22.725  0.00  0.00    +0.000 HD
ENDBRANCH  11  12
ENDBRANCH   8  11
ENDBRANCH   1  10
BRANCH   7  15
ATOM     15  O   UNL     1       4.876   4.514  17.589  0.00  0.00    +0.000 OA
BRANCH  15  16
ATOM     16  C   UNL     1       4.709   3.907  16.301  0.00  0.00    +0.000 C 
BRANCH  16  17
ATOM     17  C   UNL     1       6.025   3.762  15.604  0.00  0.00    +0.000 C 
ATOM     18  C   UNL     1       6.135   4.224  14.170  0.00  0.00    +0.000 C 
ATOM     19  C   UNL     1       6.844   4.980  15.257  0.00  0.00    +0.000 C 
ENDBRANCH  16  17
ENDBRANCH  15  16
ENDBRANCH   7  15
TORSDOF 6
ENDMDL
MODEL 3
REMARK VINA RESULT:      -6.2      2.410      4.210
REMARK  Name = 
REMARK  6 active torsions:
REMARK  status: ('A' for Active; 'I' for Inactive)
REMARK    1  A    between atoms: N_1  and  C_2
REMARK    2  A    between atoms: C_2  and  C_3
REMARK    3  A    between atoms: C_5  and  C_6
REMARK    4  A    between atoms: C_12  and  O_13
REMARK    5  A    between atoms: O_13  and  C_14
REMARK    6  A    between atoms: C_14  and  C_15
REMARK                            x       y       z     vdW  Elec       q    Type
REMARK                         _______ _______ _______ _____ _____    ______ ____
ROOT
ATOM      1  C   UNL     1       4.499   5.319  17.879  0.00  0.00    +0.000 A 
ATOM      2  C   UNL     1       3.929   6.540  17.450  0.00  0.00    +0.000 A 
ATOM      3  C   UNL     1       3.003   7.238  18.223  0.00  0.00    +0.000 A 
ATOM      4 CL   UNL     1       2.315   8.699  17.632  0.00  0.00    +0.000 Cl
ATOM      5  C   UNL     1       2.647   6.765  19.472  0.00  0.00    +0.000 A 
ATOM      6  C   UNL     1       3.205   5.575  19.934  0.00  0.00    +0.000 A 
ATOM      7  C   UNL     1       4.094   4.823  19.137  0.00  0.00    +0.000 A 
ENDROOT
BRANCH   1  10
ATOM      8  C   UNL     1       6.420   5.425  15.976  0.00  0.00    +0.000 C 
ATOM      9  C   UNL     1       6.997   4.997  17.296  0.00  0.00    +0.000 C 
ATOM     10  C   UNL     1       5.545   4.694  16.972  0.00  0.00    +0.000 C 
BRANCH   8  11
ATOM     11  C   UNL     1       6.816   4.729  14.706  0.00  0.00    +0.000 C 
BRANCH  11  12
ATOM     12  N   UNL     1       7.836   5.506  14.021  0.00  0.00    +0.000 NA
ATOM     13  H   UNL     1       8.181   4.967  13.228  0.00  0.00    +0.000 HD
ATOM     14  H   UNL     1       8.636   5.624  14.642  0.00  0.00    +0.000 HD
ENDBRANCH  11  12
ENDBRANCH   8  11
ENDBRANCH   1  10
BRANCH   7  15
ATOM     15  O   UNL     1       4.595   3.602  19.537  0.00  0.00    +0.000 OA
BRANCH  15  16
ATOM     16  C   UNL     1       3.615   2.689  20.050  0.00  0.00    +0.000 C 
BRANCH  16  17
ATOM     17  C   UNL     1       3.071   1.821  18.959  0.00  0.00    +0.000 C 
ATOM     18  C   UNL     1       1.581   1.830  18.708  0.00  0.00    +0.000 C 
ATOM     19  C   UNL     1       2.515   2.435  17.699  0.00  0.00    +0.000 C 
ENDBRANCH  16  17
ENDBRANCH  15  16
ENDBRANCH   7  15
TORSDOF 6
ENDMDL
MODEL 4
REMARK VINA RESULT:      -6.2      4.128      6.448
REMARK  Name = 
REMARK  6 active torsions:
REMARK  status: ('A' for Active; 'I' for Inactive)
REMARK    1  A    between atoms: N_1  and  C_2
REMARK    2  A    between atoms: C_2  and  C_3
REMARK    3  A    between atoms: C_5  and  C_6
REMARK    4  A    between atoms: C_12  and  O_13
REMARK    5  A    between atoms: O_13  and  C_14
REMARK    6  A    between atoms: C_14  and  C_15
REMARK                            x       y       z     vdW  Elec       q    Type
REMARK                         _______ _______ _______ _____ _____    ______ ____
ROOT
ATOM      1  C   UNL     1       3.103   5.750  17.884  0.00  0.00    +0.000 A 
ATOM      2  C   UNL     1       4.421   6.231  17.711  0.00  0.00    +0.000 A 
ATOM      3  C   UNL     1       5.440   5.433  17.193  0.00  0.00    +0.000 A 
ATOM      4 CL   UNL     1       7.034   6.062  17.042  0.00  0.00    +0.000 Cl
ATOM      5  C   UNL     1       5.168   4.139  16.789  0.00  0.00    +0.000 A 
ATOM      6  C   UNL     1       3.875   3.641  16.927  0.00  0.00    +0.000 A 
ATOM      7  C   UNL     1       2.848   4.413  17.508  0.00  0.00    +0.000 A 
ENDROOT
BRANCH   1  10
ATOM      8  C   UNL     1       2.328   7.888  19.349  0.00  0.00    +0.000 C 
ATOM      9  C   UNL     1       2.182   8.166  17.879  0.00  0.00    +0.000 C 
ATOM     10  C   UNL     1       2.072   6.742  18.395  0.00  0.00    +0.000 C 
BRANCH   8  11
ATOM     11  C   UNL     1       1.248   8.288  20.314  0.00  0.00    +0.000 C 
BRANCH  11  12
ATOM     12  N   UNL     1       1.762   8.232  21.673  0.00  0.00    +0.000 NA
ATOM     13  H   UNL     1       1.232   7.535  22.194  0.00  0.00    +0.000 HD
ATOM     14  H   UNL     1       1.575   9.122  22.134  0.00  0.00    +0.000 HD
ENDBRANCH  11  12
ENDBRANCH   8  11
ENDBRANCH   1  10
BRANCH   7  15
ATOM     15  O   UNL     1       1.581   3.915  17.731  0.00  0.00    +0.000 OA
BRANCH  15  16
ATOM     16  C   UNL     1       1.507   2.891  18.733  0.00  0.00    +0.000 C 
BRANCH  16  17
ATOM     17  C   UNL     1       0.933   3.428  20.005  0.00  0.00    +0.000 C 
ATOM     18  C   UNL     1       1.337   2.779  21.308  0.00  0.00    +0.000 C 
ATOM     19  C   UNL     1       1.807   4.169  20.985  0.00  0.00    +0.000 C 
ENDBRANCH  16  17
ENDBRANCH  15  16
ENDBRANCH   7  15
TORSDOF 6
ENDMDL
MODEL 5
REMARK VINA RESULT:      -6.2      2.947      4.656
REMARK  Name = 
REMARK  6 active torsions:
REMARK  status: ('A' for Active; 'I' for Inactive)
REMARK    1  A    between atoms: N_1  and  C_2
REMARK    2  A    between atoms: C_2  and  C_3
REMARK    3  A    between atoms: C_5  and  C_6
REMARK    4  A    between atoms: C_12  and  O_13
REMARK    5  A    between atoms: O_13  and  C_14
REMARK    6  A    between atoms: C_14  and  C_15
REMARK                            x       y       z     vdW  Elec       q    Type
REMARK                         _______ _______ _______ _____ _____    ______ ____
ROOT
ATOM      1  C   UNL     1       4.043   6.371  17.911  0.00  0.00    +0.000 A 
ATOM      2  C   UNL     1       3.376   7.572  17.577  0.00  0.00    +0.000 A 
ATOM      3  C   UNL     1       2.364   8.105  18.374  0.00  0.00    +0.000 A 
ATOM      4 CL   UNL     1       1.562   9.549  17.896  0.00  0.00    +0.000 Cl
ATOM      5  C   UNL     1       2.013   7.480  19.557  0.00  0.00    +0.000 A 
ATOM      6  C   UNL     1       2.665   6.306  19.926  0.00  0.00    +0.000 A 
ATOM      7  C   UNL     1       3.645   5.719  19.099  0.00  0.00    +0.000 A 
ENDROOT
BRANCH   1  10
ATOM      8  C   UNL     1       5.891   4.603  17.027  0.00  0.00    +0.000 C 
ATOM      9  C   UNL     1       4.845   4.853  15.977  0.00  0.00    +0.000 C 
ATOM     10  C   UNL     1       5.172   5.934  16.992  0.00  0.00    +0.000 C 
BRANCH   8  11
ATOM     11  C   UNL     1       7.347   4.551  16.660  0.00  0.00    +0.000 C 
BRANCH  11  12
ATOM     12  N   UNL     1       8.133   4.189  17.828  0.00  0.00    +0.000 NA
ATOM     13  H   UNL     1       7.598   3.529  18.391  0.00  0.00    +0.000 HD
ATOM     14  H   UNL     1       8.257   5.014  18.413  0.00  0.00    +0.000 HD
ENDBRANCH  11  12
ENDBRANCH   8  11
ENDBRANCH   1  10
BRANCH   7  15
ATOM     15  O   UNL     1       4.245   4.514  19.401  0.00  0.00    +0.000 OA
BRANCH  15  16
ATOM     16  C   UNL     1       3.344   3.485  19.832  0.00  0.00    +0.000 C 
BRANCH  16  17
ATOM     17  C   UNL     1       2.752   2.768  18.660  0.00  0.00    +0.000 C 
ATOM     18  C   UNL     1       1.276   2.446  18.684  0.00  0.00    +0.000 C 
ATOM     19  C   UNL     1       1.802   3.479  17.729  0.00  0.00    +0.000 C 
ENDBRANCH  16  17
ENDBRANCH  15  16
ENDBRANCH   7  15
TORSDOF 6
ENDMDL
MODEL 6
REMARK VINA RESULT:      -6.1      3.132      5.181
REMARK  Name = 
REMARK  6 active torsions:
REMARK  status: ('A' for Active; 'I' for Inactive)
REMARK    1  A    between atoms: N_1  and  C_2
REMARK    2  A    between atoms: C_2  and  C_3
REMARK    3  A    between atoms: C_5  and  C_6
REMARK    4  A    between atoms: C_12  and  O_13
REMARK    5  A    between atoms: O_13  and  C_14
REMARK    6  A    between atoms: C_14  and  C_15
REMARK                            x       y       z     vdW  Elec       q    Type
REMARK                         _______ _______ _______ _____ _____    ______ ____
ROOT
ATOM      1  C   UNL     1       3.622   5.936  18.734  0.00  0.00    +0.000 A 
ATOM      2  C   UNL     1       3.343   7.156  18.075  0.00  0.00    +0.000 A 
ATOM      3  C   UNL     1       2.351   8.029  18.520  0.00  0.00    +0.000 A 
ATOM      4 CL   UNL     1       2.031   9.481  17.655  0.00  0.00    +0.000 Cl
ATOM      5  C   UNL     1       1.633   7.735  19.664  0.00  0.00    +0.000 A 
ATOM      6  C   UNL     1       1.896   6.551  20.348  0.00  0.00    +0.000 A 
ATOM      7  C   UNL     1       2.851   5.627  19.875  0.00  0.00    +0.000 A 
ENDROOT
BRANCH   1  10
ATOM      8  C   UNL     1       6.053   5.643  17.583  0.00  0.00    +0.000 C 
ATOM      9  C   UNL     1       6.060   5.116  18.991  0.00  0.00    +0.000 C 
ATOM     10  C   UNL     1       4.773   5.109  18.187  0.00  0.00    +0.000 C 
BRANCH   8  11
ATOM     11  C   UNL     1       6.714   4.874  16.475  0.00  0.00    +0.000 C 
BRANCH  11  12
ATOM     12  N   UNL     1       7.902   4.209  16.982  0.00  0.00    +0.000 NA
ATOM     13  H   UNL     1       7.626   3.561  17.719  0.00  0.00    +0.000 HD
ATOM     14  H   UNL     1       8.502   4.899  17.433  0.00  0.00    +0.000 HD
ENDBRANCH  11  12
ENDBRANCH   8  11
ENDBRANCH   1  10
BRANCH   7  15
ATOM     15  O   UNL     1       3.072   4.411  20.488  0.00  0.00    +0.000 OA
BRANCH  15  16
ATOM     16  C   UNL     1       1.909   3.817  21.081  0.00  0.00    +0.000 C 
BRANCH  16  17
ATOM     17  C   UNL     1       1.535   2.552  20.376  0.00  0.00    +0.000 C 
ATOM     18  C   UNL     1       0.748   2.649  19.091  0.00  0.00    +0.000 C 
ATOM     19  C   UNL     1       2.178   2.192  19.061  0.00  0.00    +0.000 C 
ENDBRANCH  16  17
ENDBRANCH  15  16
ENDBRANCH   7  15
TORSDOF 6
ENDMDL
MODEL 7
REMARK VINA RESULT:      -6.1      2.838      4.698
REMARK  Name = 
REMARK  6 active torsions:
REMARK  status: ('A' for Active; 'I' for Inactive)
REMARK    1  A    between atoms: N_1  and  C_2
REMARK    2  A    between atoms: C_2  and  C_3
REMARK    3  A    between atoms: C_5  and  C_6
REMARK    4  A    between atoms: C_12  and  O_13
REMARK    5  A    between atoms: O_13  and  C_14
REMARK    6  A    between atoms: C_14  and  C_15
REMARK                            x       y       z     vdW  Elec       q    Type
REMARK                         _______ _______ _______ _____ _____    ______ ____
ROOT
ATOM      1  C   UNL     1       3.739   6.085  18.119  0.00  0.00    +0.000 A 
ATOM      2  C   UNL     1       3.295   7.354  17.683  0.00  0.00    +0.000 A 
ATOM      3  C   UNL     1       2.381   8.112  18.414  0.00  0.00    +0.000 A 
ATOM      4 CL   UNL     1       1.849   9.634  17.814  0.00  0.00    +0.000 Cl
ATOM      5  C   UNL     1       1.911   7.647  19.628  0.00  0.00    +0.000 A 
ATOM      6  C   UNL     1       2.343   6.408  20.096  0.00  0.00    +0.000 A 
ATOM      7  C   UNL     1       3.218   5.601  19.339  0.00  0.00    +0.000 A 
ENDROOT
BRANCH   1  10
ATOM      8  C   UNL     1       5.581   6.020  16.138  0.00  0.00    +0.000 C 
ATOM      9  C   UNL     1       6.229   5.814  17.479  0.00  0.00    +0.000 C 
ATOM     10  C   UNL     1       4.787   5.393  17.263  0.00  0.00    +0.000 C 
BRANCH   8  11
ATOM     11  C   UNL     1       5.972   5.173  14.961  0.00  0.00    +0.000 C 
BRANCH  11  12
ATOM     12  N   UNL     1       7.385   4.840  15.046  0.00  0.00    +0.000 NA
ATOM     13  H   UNL     1       7.488   3.984  15.589  0.00  0.00    +0.000 HD
ATOM     14  H   UNL     1       7.864   5.564  15.579  0.00  0.00    +0.000 HD
ENDBRANCH  11  12
ENDBRANCH   8  11
ENDBRANCH   1  10
BRANCH   7  15
ATOM     15  O   UNL     1       3.595   4.337  19.741  0.00  0.00    +0.000 OA
BRANCH  15  16
ATOM     16  C   UNL     1       2.558   3.573  20.372  0.00  0.00    +0.000 C 
BRANCH  16  17
ATOM     17  C   UNL     1       2.183   2.389  19.538  0.00  0.00    +0.000 C 
ATOM     18  C   UNL     1       0.885   2.434  18.767  0.00  0.00    +0.000 C 
ATOM     19  C   UNL     1       2.195   2.480  18.033  0.00  0.00    +0.000 C 
ENDBRANCH  16  17
ENDBRANCH  15  16
ENDBRANCH   7  15
TORSDOF 6
ENDMDL
MODEL 8
REMARK VINA RESULT:      -6.1      3.555      5.326
REMARK  Name = 
REMARK  6 active torsions:
REMARK  status: ('A' for Active; 'I' for Inactive)
REMARK    1  A    between atoms: N_1  and  C_2
REMARK    2  A    between atoms: C_2  and  C_3
REMARK    3  A    between atoms: C_5  and  C_6
REMARK    4  A    between atoms: C_12  and  O_13
REMARK    5  A    between atoms: O_13  and  C_14
REMARK    6  A    between atoms: C_14  and  C_15
REMARK                            x       y       z     vdW  Elec       q    Type
REMARK                         _______ _______ _______ _____ _____    ______ ____
ROOT
ATOM      1  C   UNL     1       2.810   5.431  19.066  0.00  0.00    +0.000 A 
ATOM      2  C   UNL     1       2.068   6.540  19.534  0.00  0.00    +0.000 A 
ATOM      3  C   UNL     1       2.197   7.809  18.972  0.00  0.00    +0.000 A 
ATOM      4 CL   UNL     1       1.297   9.129  19.610  0.00  0.00    +0.000 Cl
ATOM      5  C   UNL     1       3.039   8.006  17.893  0.00  0.00    +0.000 A 
ATOM      6  C   UNL     1       3.769   6.930  17.394  0.00  0.00    +0.000 A 
ATOM      7  C   UNL     1       3.698   5.654  17.992  0.00  0.00    +0.000 A 
ENDROOT
BRANCH   1  10
ATOM      8  C   UNL     1       1.249   3.691  20.429  0.00  0.00    +0.000 C 
ATOM      9  C   UNL     1       1.508   3.197  19.033  0.00  0.00    +0.000 C 
ATOM     10  C   UNL     1       2.526   4.089  19.721  0.00  0.00    +0.000 C 
BRANCH   8  11
ATOM     11  C   UNL     1       1.328   2.752  21.599  0.00  0.00    +0.000 C 
BRANCH  11  12
ATOM     12  N   UNL     1       2.720   2.521  21.948  0.00  0.00    +0.000 NA
ATOM     13  H   UNL     1       2.905   1.520  21.910  0.00  0.00    +0.000 HD
ATOM     14  H   UNL     1       2.867   2.792  22.920  0.00  0.00    +0.000 HD
ENDBRANCH  11  12
ENDBRANCH   8  11
ENDBRANCH   1  10
BRANCH   7  15
ATOM     15  O   UNL     1       4.473   4.594  17.569  0.00  0.00    +0.000 OA
BRANCH  15  16
ATOM     16  C   UNL     1       5.038   4.747  16.260  0.00  0.00    +0.000 C 
BRANCH  16  17
ATOM     17  C   UNL     1       6.532   4.698  16.313  0.00  0.00    +0.000 C 
ATOM     18  C   UNL     1       7.276   5.924  16.787  0.00  0.00    +0.000 C 
ATOM     19  C   UNL     1       7.249   4.688  17.640  0.00  0.00    +0.000 C 
ENDBRANCH  16  17
ENDBRANCH  15  16
ENDBRANCH   7  15
TORSDOF 6
ENDMDL
MODEL 9
REMARK VINA RESULT:      -6.1      3.794      5.514
REMARK  Name = 
REMARK  6 active torsions:
REMARK  status: ('A' for Active; 'I' for Inactive)
REMARK    1  A    between atoms: N_1  and  C_2
REMARK    2  A    between atoms: C_2  and  C_3
REMARK    3  A    between atoms: C_5  and  C_6
REMARK    4  A    between atoms: C_12  and  O_13
REMARK    5  A    between atoms: O_13  and  C_14
REMARK    6  A    between atoms: C_14  and  C_15
REMARK                            x       y       z     vdW  Elec       q    Type
REMARK                         _______ _______ _______ _____ _____    ______ ____
ROOT
ATOM      1  C   UNL     1       2.452   5.924  19.402  0.00  0.00    +0.000 A 
ATOM      2  C   UNL     1       1.771   6.915  20.147  0.00  0.00    +0.000 A 
ATOM      3  C   UNL     1       1.709   8.243  19.731  0.00  0.00    +0.000 A 
ATOM      4 CL   UNL     1       0.899   9.412  20.698  0.00  0.00    +0.000 Cl
ATOM      5  C   UNL     1       2.287   8.621  18.533  0.00  0.00    +0.000 A 
ATOM      6  C   UNL     1       2.948   7.666  17.765  0.00  0.00    +0.000 A 
ATOM      7  C   UNL     1       3.075   6.331  18.203  0.00  0.00    +0.000 A 
ENDROOT
BRANCH   1  10
ATOM      8  C   UNL     1       1.178   3.828  20.544  0.00  0.00    +0.000 C 
ATOM      9  C   UNL     1       1.566   3.511  19.127  0.00  0.00    +0.000 C 
ATOM     10  C   UNL     1       2.387   4.501  19.933  0.00  0.00    +0.000 C 
BRANCH   8  11
ATOM     11  C   UNL     1       1.382   2.818  21.638  0.00  0.00    +0.000 C 
BRANCH  11  12
ATOM     12  N   UNL     1       2.804   2.584  21.829  0.00  0.00    +0.000 NA
ATOM     13  H   UNL     1       3.311   2.991  21.045  0.00  0.00    +0.000 HD
ATOM     14  H   UNL     1       2.984   1.582  21.784  0.00  0.00    +0.000 HD
ENDBRANCH  11  12
ENDBRANCH   8  11
ENDBRANCH   1  10
BRANCH   7  15
ATOM     15  O   UNL     1       3.796   5.386  17.502  0.00  0.00    +0.000 OA
BRANCH  15  16
ATOM     16  C   UNL     1       5.078   5.831  17.038  0.00  0.00    +0.000 C 
BRANCH  16  17
ATOM     17  C   UNL     1       6.127   5.620  18.083  0.00  0.00    +0.000 C 
ATOM     18  C   UNL     1       7.414   4.937  17.683  0.00  0.00    +0.000 C 
ATOM     19  C   UNL     1       7.419   6.397  18.037  0.00  0.00    +0.000 C 
ENDBRANCH  16  17
ENDBRANCH  15  16
ENDBRANCH   7  15
TORSDOF 6
ENDMDL
