MODEL 1
REMARK VINA RESULT:      -8.2      0.000      0.000
REMARK  Name = 
REMARK  5 active torsions:
REMARK  status: ('A' for Active; 'I' for Inactive)
REMARK    1  A    between atoms: C_1  and  C_2
REMARK    2  A    between atoms: C_2  and  C_3
REMARK    3  A    between atoms: C_2  and  N_4
REMARK    4  A    between atoms: C_5  and  C_7
REMARK    5  A    between atoms: N_9  and  C_10
REMARK                            x       y       z     vdW  Elec       q    Type
REMARK                         _______ _______ _______ _____ _____    ______ ____
ROOT
ATOM      1  C   UNL     1       6.351   4.307  15.749  0.00  0.00    +0.000 C 
ATOM      2  N   UNL     1       5.204   3.961  16.249  0.00  0.00    +0.000 NA
ATOM      3  N   UNL     1       5.027   4.024  17.624  0.00  0.00    +0.000 N 
ATOM      4  C   UNL     1       5.950   4.595  18.512  0.00  0.00    +0.000 C 
ATOM      5  O   UNL     1       5.827   4.659  19.737  0.00  0.00    +0.000 OA
ATOM      6  C   UNL     1       7.165   5.229  17.893  0.00  0.00    +0.000 C 
ATOM      7  C   UNL     1       7.558   4.643  16.567  0.00  0.00    +0.000 C 
ENDROOT
BRANCH   3   8
ATOM      8  C   UNL     1       3.723   3.603  18.051  0.00  0.00    +0.000 A 
ATOM      9  C   UNL     1       2.643   4.501  18.087  0.00  0.00    +0.000 A 
ATOM     10  C   UNL     1       1.369   4.080  18.474  0.00  0.00    +0.000 A 
ATOM     11  C   UNL     1       1.150   2.757  18.843  0.00  0.00    +0.000 A 
ATOM     12  C   UNL     1       2.211   1.851  18.817  0.00  0.00    +0.000 A 
ATOM     13  C   UNL     1       3.483   2.269  18.410  0.00  0.00    +0.000 A 
ENDBRANCH   3   8
BRANCH   1  15
ATOM     14  N   UNL     1       5.836   3.382  13.521  0.00  0.00    +0.000 N 
ATOM     15  C   UNL     1       6.532   4.337  14.231  0.00  0.00    +0.000 C 
ATOM     16  O   UNL     1       7.242   5.199  13.731  0.00  0.00    +0.000 OA
ATOM     17  H   UNL     1       5.350   2.665  14.054  0.00  0.00    +0.000 HD
BRANCH  14  19
ATOM     18  C   UNL     1       6.734   2.115  11.607  0.00  0.00    +0.000 C 
ATOM     19  C   UNL     1       5.907   3.313  12.068  0.00  0.00    +0.000 C 
ATOM     20  C   UNL     1       4.515   3.272  11.446  0.00  0.00    +0.000 C 
ENDBRANCH  14  19
ENDBRANCH   1  15
TORSDOF 3
ENDMDL
MODEL 2
REMARK VINA RESULT:      -8.2      0.082      1.103
REMARK  Name = 
REMARK  5 active torsions:
REMARK  status: ('A' for Active; 'I' for Inactive)
REMARK    1  A    between atoms: C_1  and  C_2
REMARK    2  A    between atoms: C_2  and  C_3
REMARK    3  A    between atoms: C_2  and  N_4
REMARK    4  A    between atoms: C_5  and  C_7
REMARK    5  A    between atoms: N_9  and  C_10
REMARK                            x       y       z     vdW  Elec       q    Type
REMARK                         _______ _______ _______ _____ _____    ______ ____
ROOT
ATOM      1  C   UNL     1       6.343   4.301  15.752  0.00  0.00    +0.000 C 
ATOM      2  N   UNL     1       5.193   3.943  16.236  0.00  0.00    +0.000 NA
ATOM      3  N   UNL     1       4.998   3.998  17.609  0.00  0.00    +0.000 N 
ATOM      4  C   UNL     1       5.905   4.572  18.511  0.00  0.00    +0.000 C 
ATOM      5  O   UNL     1       5.767   4.629  19.735  0.00  0.00    +0.000 OA
ATOM      6  C   UNL     1       7.123   5.218  17.911  0.00  0.00    +0.000 C 
ATOM      7  C   UNL     1       7.537   4.643  16.587  0.00  0.00    +0.000 C 
ENDROOT
BRANCH   3   8
ATOM      8  C   UNL     1       3.692   3.565  18.018  0.00  0.00    +0.000 A 
ATOM      9  C   UNL     1       3.483   2.280  18.545  0.00  0.00    +0.000 A 
ATOM     10  C   UNL     1       2.216   1.873  18.970  0.00  0.00    +0.000 A 
ATOM     11  C   UNL     1       1.132   2.737  18.866  0.00  0.00    +0.000 A 
ATOM     12  C   UNL     1       1.318   4.017  18.342  0.00  0.00    +0.000 A 
ATOM     13  C   UNL     1       2.592   4.430  17.935  0.00  0.00    +0.000 A 
ENDBRANCH   3   8
BRANCH   1  15
ATOM     14  N   UNL     1       5.838   3.404  13.511  0.00  0.00    +0.000 N 
ATOM     15  C   UNL     1       6.542   4.340  14.237  0.00  0.00    +0.000 C 
ATOM     16  O   UNL     1       7.274   5.194  13.753  0.00  0.00    +0.000 OA
ATOM     17  H   UNL     1       5.333   2.691  14.032  0.00  0.00    +0.000 HD
BRANCH  14  19
ATOM     18  C   UNL     1       6.799   2.180  11.598  0.00  0.00    +0.000 C 
ATOM     19  C   UNL     1       5.926   3.346  12.058  0.00  0.00    +0.000 C 
ATOM     20  C   UNL     1       4.542   3.259  11.422  0.00  0.00    +0.000 C 
ENDBRANCH  14  19
ENDBRANCH   1  15
TORSDOF 3
ENDMDL
MODEL 3
REMARK VINA RESULT:      -7.4      2.008      2.481
REMARK  Name = 
REMARK  5 active torsions:
REMARK  status: ('A' for Active; 'I' for Inactive)
REMARK    1  A    between atoms: C_1  and  C_2
REMARK    2  A    between atoms: C_2  and  C_3
REMARK    3  A    between atoms: C_2  and  N_4
REMARK    4  A    between atoms: C_5  and  C_7
REMARK    5  A    between atoms: N_9  and  C_10
REMARK                            x       y       z     vdW  Elec       q    Type
REMARK                         _______ _______ _______ _____ _____    ______ ____
ROOT
ATOM      1  C   UNL     1       5.286   5.376  16.667  0.00  0.00    +0.000 C 
ATOM      2  N   UNL     1       4.470   4.632  17.349  0.00  0.00    +0.000 NA
ATOM      3  N   UNL     1       3.535   5.244  18.173  0.00  0.00    +0.000 N 
ATOM      4  C   UNL     1       3.295   6.626  18.200  0.00  0.00    +0.000 C 
ATOM      5  O   UNL     1       2.480   7.201  18.925  0.00  0.00    +0.000 OA
ATOM      6  C   UNL     1       4.069   7.457  17.214  0.00  0.00    +0.000 C 
ATOM      7  C   UNL     1       5.386   6.862  16.808  0.00  0.00    +0.000 C 
ENDROOT
BRANCH   3   8
ATOM      8  C   UNL     1       2.704   4.314  18.882  0.00  0.00    +0.000 A 
ATOM      9  C   UNL     1       2.818   4.148  20.272  0.00  0.00    +0.000 A 
ATOM     10  C   UNL     1       1.985   3.264  20.963  0.00  0.00    +0.000 A 
ATOM     11  C   UNL     1       1.031   2.522  20.277  0.00  0.00    +0.000 A 
ATOM     12  C   UNL     1       0.904   2.670  18.896  0.00  0.00    +0.000 A 
ATOM     13  C   UNL     1       1.725   3.571  18.208  0.00  0.00    +0.000 A 
ENDBRANCH   3   8
BRANCH   1  15
ATOM     14  N   UNL     1       5.790   4.563  14.393  0.00  0.00    +0.000 N 
ATOM     15  C   UNL     1       6.255   4.722  15.681  0.00  0.00    +0.000 C 
ATOM     16  O   UNL     1       7.374   4.406  16.064  0.00  0.00    +0.000 OA
ATOM     17  H   UNL     1       4.812   4.783  14.219  0.00  0.00    +0.000 HD
BRANCH  14  19
ATOM     18  C   UNL     1       5.770   3.271  12.294  0.00  0.00    +0.000 C 
ATOM     19  C   UNL     1       6.619   3.970  13.353  0.00  0.00    +0.000 C 
ATOM     20  C   UNL     1       7.528   5.011  12.708  0.00  0.00    +0.000 C 
ENDBRANCH  14  19
ENDBRANCH   1  15
TORSDOF 3
ENDMDL
MODEL 4
REMARK VINA RESULT:      -7.4      2.174      2.682
REMARK  Name = 
REMARK  5 active torsions:
REMARK  status: ('A' for Active; 'I' for Inactive)
REMARK    1  A    between atoms: C_1  and  C_2
REMARK    2  A    between atoms: C_2  and  C_3
REMARK    3  A    between atoms: C_2  and  N_4
REMARK    4  A    between atoms: C_5  and  C_7
REMARK    5  A    between atoms: N_9  and  C_10
REMARK                            x       y       z     vdW  Elec       q    Type
REMARK                         _______ _______ _______ _____ _____    ______ ____
ROOT
ATOM      1  C   UNL     1       5.018   5.339  16.735  0.00  0.00    +0.000 C 
ATOM      2  N   UNL     1       4.254   4.673  17.545  0.00  0.00    +0.000 NA
ATOM      3  N   UNL     1       3.363   5.371  18.351  0.00  0.00    +0.000 N 
ATOM      4  C   UNL     1       3.109   6.745  18.237  0.00  0.00    +0.000 C 
ATOM      5  O   UNL     1       2.333   7.395  18.940  0.00  0.00    +0.000 OA
ATOM      6  C   UNL     1       3.812   7.463  17.118  0.00  0.00    +0.000 C 
ATOM      7  C   UNL     1       5.110   6.833  16.701  0.00  0.00    +0.000 C 
ENDROOT
BRANCH   3   8
ATOM      8  C   UNL     1       2.587   4.523  19.209  0.00  0.00    +0.000 A 
ATOM      9  C   UNL     1       1.587   3.683  18.693  0.00  0.00    +0.000 A 
ATOM     10  C   UNL     1       0.854   2.836  19.528  0.00  0.00    +0.000 A 
ATOM     11  C   UNL     1       1.098   2.821  20.896  0.00  0.00    +0.000 A 
ATOM     12  C   UNL     1       2.085   3.650  21.430  0.00  0.00    +0.000 A 
ATOM     13  C   UNL     1       2.832   4.483  20.589  0.00  0.00    +0.000 A 
ENDBRANCH   3   8
BRANCH   1  15
ATOM     14  N   UNL     1       5.521   4.539  14.457  0.00  0.00    +0.000 N 
ATOM     15  C   UNL     1       5.933   4.583  15.771  0.00  0.00    +0.000 C 
ATOM     16  O   UNL     1       6.971   4.091  16.195  0.00  0.00    +0.000 OA
ATOM     17  H   UNL     1       4.597   4.907  14.243  0.00  0.00    +0.000 HD
BRANCH  14  19
ATOM     18  C   UNL     1       5.425   3.311  12.321  0.00  0.00    +0.000 C 
ATOM     19  C   UNL     1       6.310   3.865  13.435  0.00  0.00    +0.000 C 
ATOM     20  C   UNL     1       7.377   4.790  12.859  0.00  0.00    +0.000 C 
ENDBRANCH  14  19
ENDBRANCH   1  15
TORSDOF 3
ENDMDL
MODEL 5
REMARK VINA RESULT:      -7.2      1.746      6.203
REMARK  Name = 
REMARK  5 active torsions:
REMARK  status: ('A' for Active; 'I' for Inactive)
REMARK    1  A    between atoms: C_1  and  C_2
REMARK    2  A    between atoms: C_2  and  C_3
REMARK    3  A    between atoms: C_2  and  N_4
REMARK    4  A    between atoms: C_5  and  C_7
REMARK    5  A    between atoms: N_9  and  C_10
REMARK                            x       y       z     vdW  Elec       q    Type
REMARK                         _______ _______ _______ _____ _____    ______ ____
ROOT
ATOM      1  C   UNL     1       4.733   4.035  17.697  0.00  0.00    +0.000 C 
ATOM      2  N   UNL     1       5.124   3.935  16.464  0.00  0.00    +0.000 NA
ATOM      3  N   UNL     1       6.079   4.825  15.990  0.00  0.00    +0.000 N 
ATOM      4  C   UNL     1       6.783   5.729  16.799  0.00  0.00    +0.000 C 
ATOM      5  O   UNL     1       7.629   6.536  16.410  0.00  0.00    +0.000 OA
ATOM      6  C   UNL     1       6.507   5.657  18.276  0.00  0.00    +0.000 C 
ATOM      7  C   UNL     1       5.141   5.138  18.622  0.00  0.00    +0.000 C 
ENDROOT
BRANCH   3   8
ATOM      8  C   UNL     1       6.416   4.620  14.610  0.00  0.00    +0.000 A 
ATOM      9  C   UNL     1       7.486   5.305  14.012  0.00  0.00    +0.000 A 
ATOM     10  C   UNL     1       7.829   5.079  12.677  0.00  0.00    +0.000 A 
ATOM     11  C   UNL     1       7.103   4.175  11.911  0.00  0.00    +0.000 A 
ATOM     12  C   UNL     1       6.034   3.487  12.486  0.00  0.00    +0.000 A 
ATOM     13  C   UNL     1       5.704   3.698  13.829  0.00  0.00    +0.000 A 
ENDBRANCH   3   8
BRANCH   1  15
ATOM     14  N   UNL     1       2.921   3.449  19.264  0.00  0.00    +0.000 N 
ATOM     15  C   UNL     1       3.756   3.003  18.262  0.00  0.00    +0.000 C 
ATOM     16  O   UNL     1       3.743   1.873  17.792  0.00  0.00    +0.000 OA
ATOM     17  H   UNL     1       3.087   4.383  19.631  0.00  0.00    +0.000 HD
BRANCH  14  19
ATOM     18  C   UNL     1       1.587   3.021  21.293  0.00  0.00    +0.000 C 
ATOM     19  C   UNL     1       1.932   2.571  19.875  0.00  0.00    +0.000 C 
ATOM     20  C   UNL     1       0.670   2.480  19.023  0.00  0.00    +0.000 C 
ENDBRANCH  14  19
ENDBRANCH   1  15
TORSDOF 3
ENDMDL
MODEL 6
REMARK VINA RESULT:      -7.2      1.763      6.269
REMARK  Name = 
REMARK  5 active torsions:
REMARK  status: ('A' for Active; 'I' for Inactive)
REMARK    1  A    between atoms: C_1  and  C_2
REMARK    2  A    between atoms: C_2  and  C_3
REMARK    3  A    between atoms: C_2  and  N_4
REMARK    4  A    between atoms: C_5  and  C_7
REMARK    5  A    between atoms: N_9  and  C_10
REMARK                            x       y       z     vdW  Elec       q    Type
REMARK                         _______ _______ _______ _____ _____    ______ ____
ROOT
ATOM      1  C   UNL     1       4.783   4.039  17.722  0.00  0.00    +0.000 C 
ATOM      2  N   UNL     1       5.156   3.903  16.486  0.00  0.00    +0.000 NA
ATOM      3  N   UNL     1       6.111   4.772  15.975  0.00  0.00    +0.000 N 
ATOM      4  C   UNL     1       6.831   5.693  16.748  0.00  0.00    +0.000 C 
ATOM      5  O   UNL     1       7.677   6.483  16.325  0.00  0.00    +0.000 OA
ATOM      6  C   UNL     1       6.575   5.664  18.230  0.00  0.00    +0.000 C 
ATOM      7  C   UNL     1       5.211   5.165  18.610  0.00  0.00    +0.000 C 
ENDROOT
BRANCH   3   8
ATOM      8  C   UNL     1       6.426   4.526  14.597  0.00  0.00    +0.000 A 
ATOM      9  C   UNL     1       5.667   3.631  13.824  0.00  0.00    +0.000 A 
ATOM     10  C   UNL     1       5.958   3.417  12.475  0.00  0.00    +0.000 A 
ATOM     11  C   UNL     1       7.020   4.084  11.874  0.00  0.00    +0.000 A 
ATOM     12  C   UNL     1       7.788   4.975  12.625  0.00  0.00    +0.000 A 
ATOM     13  C   UNL     1       7.482   5.203  13.972  0.00  0.00    +0.000 A 
ENDBRANCH   3   8
BRANCH   1  15
ATOM     14  N   UNL     1       3.072   3.477  19.407  0.00  0.00    +0.000 N 
ATOM     15  C   UNL     1       3.807   3.031  18.329  0.00  0.00    +0.000 C 
ATOM     16  O   UNL     1       3.707   1.919  17.826  0.00  0.00    +0.000 OA
ATOM     17  H   UNL     1       3.308   4.389  19.789  0.00  0.00    +0.000 HD
BRANCH  14  19
ATOM     18  C   UNL     1       2.050   2.882  21.570  0.00  0.00    +0.000 C 
ATOM     19  C   UNL     1       2.095   2.621  20.066  0.00  0.00    +0.000 C 
ATOM     20  C   UNL     1       0.708   2.789  19.453  0.00  0.00    +0.000 C 
ENDBRANCH  14  19
ENDBRANCH   1  15
TORSDOF 3
ENDMDL
MODEL 7
REMARK VINA RESULT:      -7.0      3.622      7.379
REMARK  Name = 
REMARK  5 active torsions:
REMARK  status: ('A' for Active; 'I' for Inactive)
REMARK    1  A    between atoms: C_1  and  C_2
REMARK    2  A    between atoms: C_2  and  C_3
REMARK    3  A    between atoms: C_2  and  N_4
REMARK    4  A    between atoms: C_5  and  C_7
REMARK    5  A    between atoms: N_9  and  C_10
REMARK                            x       y       z     vdW  Elec       q    Type
REMARK                         _______ _______ _______ _____ _____    ______ ____
ROOT
ATOM      1  C   UNL     1       2.511   6.185  19.777  0.00  0.00    +0.000 C 
ATOM      2  N   UNL     1       3.472   5.950  18.936  0.00  0.00    +0.000 NA
ATOM      3  N   UNL     1       3.880   4.638  18.736  0.00  0.00    +0.000 N 
ATOM      4  C   UNL     1       3.216   3.518  19.257  0.00  0.00    +0.000 C 
ATOM      5  O   UNL     1       3.557   2.343  19.106  0.00  0.00    +0.000 OA
ATOM      6  C   UNL     1       1.948   3.790  20.019  0.00  0.00    +0.000 C 
ATOM      7  C   UNL     1       1.893   5.147  20.660  0.00  0.00    +0.000 C 
ENDROOT
BRANCH   3   8
ATOM      8  C   UNL     1       4.957   4.513  17.796  0.00  0.00    +0.000 A 
ATOM      9  C   UNL     1       4.715   4.200  16.448  0.00  0.00    +0.000 A 
ATOM     10  C   UNL     1       5.763   4.110  15.530  0.00  0.00    +0.000 A 
ATOM     11  C   UNL     1       7.074   4.319  15.942  0.00  0.00    +0.000 A 
ATOM     12  C   UNL     1       7.337   4.627  17.277  0.00  0.00    +0.000 A 
ATOM     13  C   UNL     1       6.283   4.737  18.192  0.00  0.00    +0.000 A 
ENDBRANCH   3   8
BRANCH   1  15
ATOM     14  N   UNL     1       1.439   7.920  21.164  0.00  0.00    +0.000 N 
ATOM     15  C   UNL     1       1.983   7.611  19.936  0.00  0.00    +0.000 C 
ATOM     16  O   UNL     1       2.091   8.396  19.002  0.00  0.00    +0.000 OA
ATOM     17  H   UNL     1       1.324   7.159  21.829  0.00  0.00    +0.000 HD
BRANCH  14  19
ATOM     18  C   UNL     1      -0.322   9.554  20.611  0.00  0.00    +0.000 C 
ATOM     19  C   UNL     1       0.915   9.249  21.451  0.00  0.00    +0.000 C 
ATOM     20  C   UNL     1       0.607   9.413  22.936  0.00  0.00    +0.000 C 
ENDBRANCH  14  19
ENDBRANCH   1  15
TORSDOF 3
ENDMDL
MODEL 8
REMARK VINA RESULT:      -7.0      3.663      7.437
REMARK  Name = 
REMARK  5 active torsions:
REMARK  status: ('A' for Active; 'I' for Inactive)
REMARK    1  A    between atoms: C_1  and  C_2
REMARK    2  A    between atoms: C_2  and  C_3
REMARK    3  A    between atoms: C_2  and  N_4
REMARK    4  A    between atoms: C_5  and  C_7
REMARK    5  A    between atoms: N_9  and  C_10
REMARK                            x       y       z     vdW  Elec       q    Type
REMARK                         _______ _______ _______ _____ _____    ______ ____
ROOT
ATOM      1  C   UNL     1       2.476   6.253  19.813  0.00  0.00    +0.000 C 
ATOM      2  N   UNL     1       3.451   6.035  18.985  0.00  0.00    +0.000 NA
ATOM      3  N   UNL     1       3.869   4.728  18.772  0.00  0.00    +0.000 N 
ATOM      4  C   UNL     1       3.202   3.597  19.265  0.00  0.00    +0.000 C 
ATOM      5  O   UNL     1       3.551   2.427  19.102  0.00  0.00    +0.000 OA
ATOM      6  C   UNL     1       1.921   3.852  20.010  0.00  0.00    +0.000 C 
ATOM      7  C   UNL     1       1.849   5.198  20.671  0.00  0.00    +0.000 C 
ENDROOT
BRANCH   3   8
ATOM      8  C   UNL     1       4.961   4.622  17.847  0.00  0.00    +0.000 A 
ATOM      9  C   UNL     1       6.292   4.765  18.272  0.00  0.00    +0.000 A 
ATOM     10  C   UNL     1       7.354   4.631  17.375  0.00  0.00    +0.000 A 
ATOM     11  C   UNL     1       7.107   4.362  16.033  0.00  0.00    +0.000 A 
ATOM     12  C   UNL     1       5.791   4.220  15.590  0.00  0.00    +0.000 A 
ATOM     13  C   UNL     1       4.730   4.334  16.495  0.00  0.00    +0.000 A 
ENDBRANCH   3   8
BRANCH   1  15
ATOM     14  N   UNL     1       1.390   7.966  21.215  0.00  0.00    +0.000 N 
ATOM     15  C   UNL     1       1.938   7.674  19.985  0.00  0.00    +0.000 C 
ATOM     16  O   UNL     1       2.043   8.468  19.059  0.00  0.00    +0.000 OA
ATOM     17  H   UNL     1       1.278   7.198  21.872  0.00  0.00    +0.000 HD
BRANCH  14  19
ATOM     18  C   UNL     1      -0.334   9.626  20.620  0.00  0.00    +0.000 C 
ATOM     19  C   UNL     1       0.857   9.289  21.514  0.00  0.00    +0.000 C 
ATOM     20  C   UNL     1       0.473   9.412  22.985  0.00  0.00    +0.000 C 
ENDBRANCH  14  19
ENDBRANCH   1  15
TORSDOF 3
ENDMDL
MODEL 9
REMARK VINA RESULT:      -6.8      3.493      6.808
REMARK  Name = 
REMARK  5 active torsions:
REMARK  status: ('A' for Active; 'I' for Inactive)
REMARK    1  A    between atoms: C_1  and  C_2
REMARK    2  A    between atoms: C_2  and  C_3
REMARK    3  A    between atoms: C_2  and  N_4
REMARK    4  A    between atoms: C_5  and  C_7
REMARK    5  A    between atoms: N_9  and  C_10
REMARK                            x       y       z     vdW  Elec       q    Type
REMARK                         _______ _______ _______ _____ _____    ______ ____
ROOT
ATOM      1  C   UNL     1       2.428   6.340  19.771  0.00  0.00    +0.000 C 
ATOM      2  N   UNL     1       3.411   6.116  18.954  0.00  0.00    +0.000 NA
ATOM      3  N   UNL     1       3.833   4.808  18.757  0.00  0.00    +0.000 N 
ATOM      4  C   UNL     1       3.163   3.681  19.254  0.00  0.00    +0.000 C 
ATOM      5  O   UNL     1       3.515   2.509  19.105  0.00  0.00    +0.000 OA
ATOM      6  C   UNL     1       1.875   3.940  19.985  0.00  0.00    +0.000 C 
ATOM      7  C   UNL     1       1.795   5.293  20.632  0.00  0.00    +0.000 C 
ENDROOT
BRANCH   3   8
ATOM      8  C   UNL     1       4.934   4.695  17.844  0.00  0.00    +0.000 A 
ATOM      9  C   UNL     1       4.723   4.547  16.463  0.00  0.00    +0.000 A 
ATOM     10  C   UNL     1       5.798   4.468  15.574  0.00  0.00    +0.000 A 
ATOM     11  C   UNL     1       7.103   4.525  16.048  0.00  0.00    +0.000 A 
ATOM     12  C   UNL     1       7.335   4.669  17.417  0.00  0.00    +0.000 A 
ATOM     13  C   UNL     1       6.257   4.768  18.304  0.00  0.00    +0.000 A 
ENDBRANCH   3   8
BRANCH   1  15
ATOM     14  N   UNL     1       1.801   8.503  18.766  0.00  0.00    +0.000 N 
ATOM     15  C   UNL     1       1.887   7.762  19.925  0.00  0.00    +0.000 C 
ATOM     16  O   UNL     1       1.540   8.153  21.031  0.00  0.00    +0.000 OA
ATOM     17  H   UNL     1       2.204   8.102  17.922  0.00  0.00    +0.000 HD
BRANCH  14  19
ATOM     18  C   UNL     1       2.196  10.809  17.987  0.00  0.00    +0.000 C 
ATOM     19  C   UNL     1       1.287   9.867  18.772  0.00  0.00    +0.000 C 
ATOM     20  C   UNL     1      -0.137   9.923  18.229  0.00  0.00    +0.000 C 
ENDBRANCH  14  19
ENDBRANCH   1  15
TORSDOF 3
ENDMDL
