MODEL 1
REMARK VINA RESULT:      -8.6      0.000      0.000
REMARK  Name = 
REMARK  5 active torsions:
REMARK  status: ('A' for Active; 'I' for Inactive)
REMARK    1  A    between atoms: C_2  and  C_3
REMARK    2  A    between atoms: C_2  and  O_19
REMARK    3  A    between atoms: C_3  and  C_4
REMARK    4  A    between atoms: O_19  and  C_20
REMARK    5  A    between atoms: C_20  and  C_21
REMARK                            x       y       z     vdW  Elec       q    Type
REMARK                         _______ _______ _______ _____ _____    ______ ____
ROOT
ATOM      1  C   UNL     1       5.213   5.336  17.743  0.00  0.00    +0.000 C 
ATOM      2  C   UNL     1       5.548   4.989  19.193  0.00  0.00    +0.000 C 
ATOM      3  O   UNL     1       6.603   5.326  19.729  0.00  0.00    +0.000 OA
ATOM      4  N   UNL     1       4.653   4.211  19.882  0.00  0.00    +0.000 N 
ATOM      5  C   UNL     1       3.389   3.760  19.446  0.00  0.00    +0.000 A 
ATOM      6  C   UNL     1       3.002   2.492  19.895  0.00  0.00    +0.000 A 
ATOM      7  C   UNL     1       1.817   1.913  19.443  0.00  0.00    +0.000 A 
ATOM      8  C   UNL     1       0.981   2.622  18.585  0.00  0.00    +0.000 A 
ATOM      9  C   UNL     1       1.324   3.915  18.187  0.00  0.00    +0.000 A 
ATOM     10  C   UNL     1       2.529   4.503  18.603  0.00  0.00    +0.000 A 
ATOM     11  C   UNL     1       2.833   5.876  18.175  0.00  0.00    +0.000 A 
ATOM     12  C   UNL     1       2.031   7.004  18.122  0.00  0.00    +0.000 A 
ATOM     13  C   UNL     1       2.833   8.093  17.706  0.00  0.00    +0.000 A 
ATOM     14  C   UNL     1       4.105   7.609  17.493  0.00  0.00    +0.000 A 
ATOM     15  N   UNL     1       4.094   6.267  17.763  0.00  0.00    +0.000 N 
ATOM     16  H   UNL     1       5.043   3.810  20.730  0.00  0.00    +0.000 HD
ENDROOT
BRANCH   1  17
ATOM     17  C   UNL     1       6.449   5.789  16.964  0.00  0.00    +0.000 C 
BRANCH  17  19
ATOM     18  O   UNL     1       8.239   4.163  17.155  0.00  0.00    +0.000 OA
ATOM     19  C   UNL     1       7.258   4.578  16.555  0.00  0.00    +0.000 C 
BRANCH  19  20
ATOM     20  O   UNL     1       6.702   3.995  15.460  0.00  0.00    +0.000 OA
BRANCH  20  21
ATOM     21  C   UNL     1       6.614   4.815  14.284  0.00  0.00    +0.000 C 
BRANCH  21  22
ATOM     22  C   UNL     1       6.193   3.951  13.123  0.00  0.00    +0.000 A 
ATOM     23  C   UNL     1       4.847   3.880  12.736  0.00  0.00    +0.000 A 
ATOM     24  C   UNL     1       4.451   3.031  11.701  0.00  0.00    +0.000 A 
ATOM     25  C   UNL     1       5.395   2.244  11.044  0.00  0.00    +0.000 A 
ATOM     26  C   UNL     1       6.737   2.314  11.413  0.00  0.00    +0.000 A 
ATOM     27  C   UNL     1       7.135   3.163  12.447  0.00  0.00    +0.000 A 
ENDBRANCH  21  22
ENDBRANCH  20  21
ENDBRANCH  19  20
ENDBRANCH  17  19
ENDBRANCH   1  17
TORSDOF 5
ENDMDL
MODEL 2
REMARK VINA RESULT:      -8.5      0.671      1.140
REMARK  Name = 
REMARK  5 active torsions:
REMARK  status: ('A' for Active; 'I' for Inactive)
REMARK    1  A    between atoms: C_2  and  C_3
REMARK    2  A    between atoms: C_2  and  O_19
REMARK    3  A    between atoms: C_3  and  C_4
REMARK    4  A    between atoms: O_19  and  C_20
REMARK    5  A    between atoms: C_20  and  C_21
REMARK                            x       y       z     vdW  Elec       q    Type
REMARK                         _______ _______ _______ _____ _____    ______ ____
ROOT
ATOM      1  C   UNL     1       5.303   5.583  17.473  0.00  0.00    +0.000 C 
ATOM      2  C   UNL     1       5.805   5.106  18.836  0.00  0.00    +0.000 C 
ATOM      3  O   UNL     1       6.876   5.476  19.316  0.00  0.00    +0.000 OA
ATOM      4  N   UNL     1       5.049   4.174  19.500  0.00  0.00    +0.000 N 
ATOM      5  C   UNL     1       3.790   3.659  19.123  0.00  0.00    +0.000 A 
ATOM      6  C   UNL     1       3.555   2.317  19.445  0.00  0.00    +0.000 A 
ATOM      7  C   UNL     1       2.383   1.686  19.029  0.00  0.00    +0.000 A 
ATOM      8  C   UNL     1       1.413   2.406  18.340  0.00  0.00    +0.000 A 
ATOM      9  C   UNL     1       1.607   3.763  18.074  0.00  0.00    +0.000 A 
ATOM     10  C   UNL     1       2.794   4.409  18.454  0.00  0.00    +0.000 A 
ATOM     11  C   UNL     1       2.940   5.845  18.172  0.00  0.00    +0.000 A 
ATOM     12  C   UNL     1       2.046   6.892  18.326  0.00  0.00    +0.000 A 
ATOM     13  C   UNL     1       2.711   8.091  17.979  0.00  0.00    +0.000 A 
ATOM     14  C   UNL     1       3.992   7.755  17.600  0.00  0.00    +0.000 A 
ATOM     15  N   UNL     1       4.119   6.397  17.704  0.00  0.00    +0.000 N 
ATOM     16  H   UNL     1       5.551   3.717  20.256  0.00  0.00    +0.000 HD
ENDROOT
BRANCH   1  17
ATOM     17  C   UNL     1       6.416   6.235  16.652  0.00  0.00    +0.000 C 
BRANCH  17  19
ATOM     18  O   UNL     1       7.777   4.297  16.124  0.00  0.00    +0.000 OA
ATOM     19  C   UNL     1       7.045   5.201  15.745  0.00  0.00    +0.000 C 
BRANCH  19  20
ATOM     20  O   UNL     1       6.635   5.394  14.463  0.00  0.00    +0.000 OA
BRANCH  20  21
ATOM     21  C   UNL     1       7.413   4.747  13.446  0.00  0.00    +0.000 C 
BRANCH  21  22
ATOM     22  C   UNL     1       6.517   3.816  12.670  0.00  0.00    +0.000 A 
ATOM     23  C   UNL     1       7.060   2.764  11.918  0.00  0.00    +0.000 A 
ATOM     24  C   UNL     1       6.233   1.942  11.150  0.00  0.00    +0.000 A 
ATOM     25  C   UNL     1       4.857   2.164  11.125  0.00  0.00    +0.000 A 
ATOM     26  C   UNL     1       4.306   3.200  11.876  0.00  0.00    +0.000 A 
ATOM     27  C   UNL     1       5.131   4.023  12.646  0.00  0.00    +0.000 A 
ENDBRANCH  21  22
ENDBRANCH  20  21
ENDBRANCH  19  20
ENDBRANCH  17  19
ENDBRANCH   1  17
TORSDOF 5
ENDMDL
MODEL 3
REMARK VINA RESULT:      -8.2      3.373      6.342
REMARK  Name = 
REMARK  5 active torsions:
REMARK  status: ('A' for Active; 'I' for Inactive)
REMARK    1  A    between atoms: C_2  and  C_3
REMARK    2  A    between atoms: C_2  and  O_19
REMARK    3  A    between atoms: C_3  and  C_4
REMARK    4  A    between atoms: O_19  and  C_20
REMARK    5  A    between atoms: C_20  and  C_21
REMARK                            x       y       z     vdW  Elec       q    Type
REMARK                         _______ _______ _______ _____ _____    ______ ____
ROOT
ATOM      1  C   UNL     1       5.355   6.113  17.995  0.00  0.00    +0.000 C 
ATOM      2  C   UNL     1       4.649   6.790  16.820  0.00  0.00    +0.000 C 
ATOM      3  O   UNL     1       5.138   6.839  15.692  0.00  0.00    +0.000 OA
ATOM      4  N   UNL     1       3.458   7.420  17.073  0.00  0.00    +0.000 N 
ATOM      5  C   UNL     1       2.735   7.442  18.285  0.00  0.00    +0.000 A 
ATOM      6  C   UNL     1       2.043   8.627  18.564  0.00  0.00    +0.000 A 
ATOM      7  C   UNL     1       1.380   8.788  19.781  0.00  0.00    +0.000 A 
ATOM      8  C   UNL     1       1.355   7.744  20.701  0.00  0.00    +0.000 A 
ATOM      9  C   UNL     1       1.984   6.534  20.403  0.00  0.00    +0.000 A 
ATOM     10  C   UNL     1       2.686   6.364  19.199  0.00  0.00    +0.000 A 
ATOM     11  C   UNL     1       3.311   5.062  18.922  0.00  0.00    +0.000 A 
ATOM     12  C   UNL     1       2.832   3.774  19.096  0.00  0.00    +0.000 A 
ATOM     13  C   UNL     1       3.803   2.874  18.600  0.00  0.00    +0.000 A 
ATOM     14  C   UNL     1       4.867   3.625  18.151  0.00  0.00    +0.000 A 
ATOM     15  N   UNL     1       4.570   4.943  18.362  0.00  0.00    +0.000 N 
ATOM     16  H   UNL     1       3.175   8.054  16.330  0.00  0.00    +0.000 HD
ENDROOT
BRANCH   1  17
ATOM     17  C   UNL     1       6.835   5.864  17.705  0.00  0.00    +0.000 C 
BRANCH  17  19
ATOM     18  O   UNL     1       7.604   5.563  19.986  0.00  0.00    +0.000 OA
ATOM     19  C   UNL     1       7.652   6.188  18.936  0.00  0.00    +0.000 C 
BRANCH  19  20
ATOM     20  O   UNL     1       8.480   7.236  18.682  0.00  0.00    +0.000 OA
BRANCH  20  21
ATOM     21  C   UNL     1       7.957   8.261  17.824  0.00  0.00    +0.000 C 
BRANCH  21  22
ATOM     22  C   UNL     1       8.479   9.595  18.290  0.00  0.00    +0.000 A 
ATOM     23  C   UNL     1       8.315  10.742  17.500  0.00  0.00    +0.000 A 
ATOM     24  C   UNL     1       8.854  11.964  17.904  0.00  0.00    +0.000 A 
ATOM     25  C   UNL     1       9.564  12.052  19.101  0.00  0.00    +0.000 A 
ATOM     26  C   UNL     1       9.724  10.922  19.900  0.00  0.00    +0.000 A 
ATOM     27  C   UNL     1       9.185   9.699  19.497  0.00  0.00    +0.000 A 
ENDBRANCH  21  22
ENDBRANCH  20  21
ENDBRANCH  19  20
ENDBRANCH  17  19
ENDBRANCH   1  17
TORSDOF 5
ENDMDL
MODEL 4
REMARK VINA RESULT:      -8.0      3.813      6.465
REMARK  Name = 
REMARK  5 active torsions:
REMARK  status: ('A' for Active; 'I' for Inactive)
REMARK    1  A    between atoms: C_2  and  C_3
REMARK    2  A    between atoms: C_2  and  O_19
REMARK    3  A    between atoms: C_3  and  C_4
REMARK    4  A    between atoms: O_19  and  C_20
REMARK    5  A    between atoms: C_20  and  C_21
REMARK                            x       y       z     vdW  Elec       q    Type
REMARK                         _______ _______ _______ _____ _____    ______ ____
ROOT
ATOM      1  C   UNL     1       5.533   6.203  17.420  0.00  0.00    +0.000 C 
ATOM      2  C   UNL     1       4.115   6.774  17.388  0.00  0.00    +0.000 C 
ATOM      3  O   UNL     1       3.878   7.949  17.107  0.00  0.00    +0.000 OA
ATOM      4  N   UNL     1       3.088   5.944  17.758  0.00  0.00    +0.000 N 
ATOM      5  C   UNL     1       3.163   4.571  18.078  0.00  0.00    +0.000 A 
ATOM      6  C   UNL     1       2.283   4.125  19.071  0.00  0.00    +0.000 A 
ATOM      7  C   UNL     1       2.344   2.810  19.530  0.00  0.00    +0.000 A 
ATOM      8  C   UNL     1       3.246   1.917  18.961  0.00  0.00    +0.000 A 
ATOM      9  C   UNL     1       4.081   2.333  17.922  0.00  0.00    +0.000 A 
ATOM     10  C   UNL     1       4.059   3.662  17.468  0.00  0.00    +0.000 A 
ATOM     11  C   UNL     1       4.941   4.045  16.356  0.00  0.00    +0.000 A 
ATOM     12  C   UNL     1       5.227   3.397  15.165  0.00  0.00    +0.000 A 
ATOM     13  C   UNL     1       6.082   4.231  14.407  0.00  0.00    +0.000 A 
ATOM     14  C   UNL     1       6.320   5.364  15.155  0.00  0.00    +0.000 A 
ATOM     15  N   UNL     1       5.640   5.238  16.336  0.00  0.00    +0.000 N 
ATOM     16  H   UNL     1       2.225   6.441  17.960  0.00  0.00    +0.000 HD
ENDROOT
BRANCH   1  17
ATOM     17  C   UNL     1       6.591   7.307  17.443  0.00  0.00    +0.000 C 
BRANCH  17  19
ATOM     18  O   UNL     1       7.930   5.754  18.741  0.00  0.00    +0.000 OA
ATOM     19  C   UNL     1       7.726   6.897  18.356  0.00  0.00    +0.000 C 
BRANCH  19  20
ATOM     20  O   UNL     1       8.508   7.973  18.637  0.00  0.00    +0.000 OA
BRANCH  20  21
ATOM     21  C   UNL     1       8.212   9.176  17.911  0.00  0.00    +0.000 C 
BRANCH  21  22
ATOM     22  C   UNL     1       8.975  10.317  18.534  0.00  0.00    +0.000 A 
ATOM     23  C   UNL     1       9.414  10.240  19.864  0.00  0.00    +0.000 A 
ATOM     24  C   UNL     1      10.064  11.321  20.459  0.00  0.00    +0.000 A 
ATOM     25  C   UNL     1      10.281  12.491  19.733  0.00  0.00    +0.000 A 
ATOM     26  C   UNL     1       9.859  12.575  18.408  0.00  0.00    +0.000 A 
ATOM     27  C   UNL     1       9.208  11.494  17.810  0.00  0.00    +0.000 A 
ENDBRANCH  21  22
ENDBRANCH  20  21
ENDBRANCH  19  20
ENDBRANCH  17  19
ENDBRANCH   1  17
TORSDOF 5
ENDMDL
MODEL 5
REMARK VINA RESULT:      -7.8      1.638      3.704
REMARK  Name = 
REMARK  5 active torsions:
REMARK  status: ('A' for Active; 'I' for Inactive)
REMARK    1  A    between atoms: C_2  and  C_3
REMARK    2  A    between atoms: C_2  and  O_19
REMARK    3  A    between atoms: C_3  and  C_4
REMARK    4  A    between atoms: O_19  and  C_20
REMARK    5  A    between atoms: C_20  and  C_21
REMARK                            x       y       z     vdW  Elec       q    Type
REMARK                         _______ _______ _______ _____ _____    ______ ____
ROOT
ATOM      1  C   UNL     1       4.366   4.717  18.936  0.00  0.00    +0.000 C 
ATOM      2  C   UNL     1       3.636   4.874  17.602  0.00  0.00    +0.000 C 
ATOM      3  O   UNL     1       3.902   4.187  16.615  0.00  0.00    +0.000 OA
ATOM      4  N   UNL     1       2.701   5.872  17.503  0.00  0.00    +0.000 N 
ATOM      5  C   UNL     1       2.246   6.730  18.526  0.00  0.00    +0.000 A 
ATOM      6  C   UNL     1       1.925   8.035  18.135  0.00  0.00    +0.000 A 
ATOM      7  C   UNL     1       1.560   8.989  19.085  0.00  0.00    +0.000 A 
ATOM      8  C   UNL     1       1.459   8.629  20.425  0.00  0.00    +0.000 A 
ATOM      9  C   UNL     1       1.709   7.313  20.817  0.00  0.00    +0.000 A 
ATOM     10  C   UNL     1       2.111   6.347  19.881  0.00  0.00    +0.000 A 
ATOM     11  C   UNL     1       2.340   4.969  20.341  0.00  0.00    +0.000 A 
ATOM     12  C   UNL     1       1.606   4.169  21.201  0.00  0.00    +0.000 A 
ATOM     13  C   UNL     1       2.221   2.896  21.249  0.00  0.00    +0.000 A 
ATOM     14  C   UNL     1       3.331   2.946  20.434  0.00  0.00    +0.000 A 
ATOM     15  N   UNL     1       3.405   4.204  19.901  0.00  0.00    +0.000 N 
ATOM     16  H   UNL     1       2.446   6.087  16.543  0.00  0.00    +0.000 HD
ENDROOT
BRANCH   1  17
ATOM     17  C   UNL     1       5.661   3.918  18.787  0.00  0.00    +0.000 C 
BRANCH  17  19
ATOM     18  O   UNL     1       7.307   5.698  18.866  0.00  0.00    +0.000 OA
ATOM     19  C   UNL     1       6.746   4.814  18.234  0.00  0.00    +0.000 C 
BRANCH  19  20
ATOM     20  O   UNL     1       7.038   4.456  16.955  0.00  0.00    +0.000 OA
BRANCH  20  21
ATOM     21  C   UNL     1       7.095   5.525  15.998  0.00  0.00    +0.000 C 
BRANCH  21  22
ATOM     22  C   UNL     1       6.917   4.947  14.617  0.00  0.00    +0.000 A 
ATOM     23  C   UNL     1       5.981   3.929  14.385  0.00  0.00    +0.000 A 
ATOM     24  C   UNL     1       5.861   3.351  13.120  0.00  0.00    +0.000 A 
ATOM     25  C   UNL     1       6.677   3.784  12.076  0.00  0.00    +0.000 A 
ATOM     26  C   UNL     1       7.603   4.803  12.292  0.00  0.00    +0.000 A 
ATOM     27  C   UNL     1       7.723   5.382  13.556  0.00  0.00    +0.000 A 
ENDBRANCH  21  22
ENDBRANCH  20  21
ENDBRANCH  19  20
ENDBRANCH  17  19
ENDBRANCH   1  17
TORSDOF 5
ENDMDL
MODEL 6
REMARK VINA RESULT:      -7.6      0.731      1.068
REMARK  Name = 
REMARK  5 active torsions:
REMARK  status: ('A' for Active; 'I' for Inactive)
REMARK    1  A    between atoms: C_2  and  C_3
REMARK    2  A    between atoms: C_2  and  O_19
REMARK    3  A    between atoms: C_3  and  C_4
REMARK    4  A    between atoms: O_19  and  C_20
REMARK    5  A    between atoms: C_20  and  C_21
REMARK                            x       y       z     vdW  Elec       q    Type
REMARK                         _______ _______ _______ _____ _____    ______ ____
ROOT
ATOM      1  C   UNL     1       5.061   5.286  17.909  0.00  0.00    +0.000 C 
ATOM      2  C   UNL     1       5.354   4.964  19.375  0.00  0.00    +0.000 C 
ATOM      3  O   UNL     1       6.404   5.291  19.929  0.00  0.00    +0.000 OA
ATOM      4  N   UNL     1       4.427   4.220  20.059  0.00  0.00    +0.000 N 
ATOM      5  C   UNL     1       3.165   3.787  19.603  0.00  0.00    +0.000 A 
ATOM      6  C   UNL     1       2.741   2.537  20.069  0.00  0.00    +0.000 A 
ATOM      7  C   UNL     1       1.554   1.973  19.601  0.00  0.00    +0.000 A 
ATOM      8  C   UNL     1       0.754   2.680  18.708  0.00  0.00    +0.000 A 
ATOM      9  C   UNL     1       1.134   3.956  18.291  0.00  0.00    +0.000 A 
ATOM     10  C   UNL     1       2.341   4.528  18.723  0.00  0.00    +0.000 A 
ATOM     11  C   UNL     1       2.684   5.884  18.272  0.00  0.00    +0.000 A 
ATOM     12  C   UNL     1       1.908   7.028  18.175  0.00  0.00    +0.000 A 
ATOM     13  C   UNL     1       2.742   8.090  17.755  0.00  0.00    +0.000 A 
ATOM     14  C   UNL     1       4.008   7.575  17.584  0.00  0.00    +0.000 A 
ATOM     15  N   UNL     1       3.962   6.240  17.883  0.00  0.00    +0.000 N 
ATOM     16  H   UNL     1       4.789   3.830  20.925  0.00  0.00    +0.000 HD
ENDROOT
BRANCH   1  17
ATOM     17  C   UNL     1       6.325   5.695  17.151  0.00  0.00    +0.000 C 
BRANCH  17  19
ATOM     18  O   UNL     1       8.289   4.272  17.131  0.00  0.00    +0.000 OA
ATOM     19  C   UNL     1       7.126   4.460  16.804  0.00  0.00    +0.000 C 
BRANCH  19  20
ATOM     20  O   UNL     1       6.348   3.576  16.125  0.00  0.00    +0.000 OA
BRANCH  20  21
ATOM     21  C   UNL     1       5.407   4.143  15.200  0.00  0.00    +0.000 C 
BRANCH  21  22
ATOM     22  C   UNL     1       6.030   4.163  13.828  0.00  0.00    +0.000 A 
ATOM     23  C   UNL     1       5.570   3.300  12.822  0.00  0.00    +0.000 A 
ATOM     24  C   UNL     1       6.189   3.276  11.572  0.00  0.00    +0.000 A 
ATOM     25  C   UNL     1       7.275   4.112  11.314  0.00  0.00    +0.000 A 
ATOM     26  C   UNL     1       7.734   4.981  12.302  0.00  0.00    +0.000 A 
ATOM     27  C   UNL     1       7.115   5.007  13.554  0.00  0.00    +0.000 A 
ENDBRANCH  21  22
ENDBRANCH  20  21
ENDBRANCH  19  20
ENDBRANCH  17  19
ENDBRANCH   1  17
TORSDOF 5
ENDMDL
MODEL 7
REMARK VINA RESULT:      -7.6      3.687      6.243
REMARK  Name = 
REMARK  5 active torsions:
REMARK  status: ('A' for Active; 'I' for Inactive)
REMARK    1  A    between atoms: C_2  and  C_3
REMARK    2  A    between atoms: C_2  and  O_19
REMARK    3  A    between atoms: C_3  and  C_4
REMARK    4  A    between atoms: O_19  and  C_20
REMARK    5  A    between atoms: C_20  and  C_21
REMARK                            x       y       z     vdW  Elec       q    Type
REMARK                         _______ _______ _______ _____ _____    ______ ____
ROOT
ATOM      1  C   UNL     1       5.142   6.230  17.982  0.00  0.00    +0.000 C 
ATOM      2  C   UNL     1       3.787   6.938  17.974  0.00  0.00    +0.000 C 
ATOM      3  O   UNL     1       3.604   8.015  17.406  0.00  0.00    +0.000 OA
ATOM      4  N   UNL     1       2.768   6.367  18.692  0.00  0.00    +0.000 N 
ATOM      5  C   UNL     1       2.783   5.131  19.374  0.00  0.00    +0.000 A 
ATOM      6  C   UNL     1       2.037   5.076  20.558  0.00  0.00    +0.000 A 
ATOM      7  C   UNL     1       2.064   3.934  21.358  0.00  0.00    +0.000 A 
ATOM      8  C   UNL     1       2.791   2.819  20.951  0.00  0.00    +0.000 A 
ATOM      9  C   UNL     1       3.482   2.839  19.739  0.00  0.00    +0.000 A 
ATOM     10  C   UNL     1       3.495   3.991  18.936  0.00  0.00    +0.000 A 
ATOM     11  C   UNL     1       4.219   3.954  17.656  0.00  0.00    +0.000 A 
ATOM     12  C   UNL     1       4.262   2.982  16.670  0.00  0.00    +0.000 A 
ATOM     13  C   UNL     1       5.051   3.473  15.604  0.00  0.00    +0.000 A 
ATOM     14  C   UNL     1       5.493   4.727  15.964  0.00  0.00    +0.000 A 
ATOM     15  N   UNL     1       5.000   5.004  17.210  0.00  0.00    +0.000 N 
ATOM     16  H   UNL     1       1.991   7.000  18.856  0.00  0.00    +0.000 HD
ENDROOT
BRANCH   1  17
ATOM     17  C   UNL     1       6.276   7.164  17.557  0.00  0.00    +0.000 C 
BRANCH  17  19
ATOM     18  O   UNL     1       7.853   5.630  18.581  0.00  0.00    +0.000 OA
ATOM     19  C   UNL     1       7.547   6.775  18.280  0.00  0.00    +0.000 C 
BRANCH  19  20
ATOM     20  O   UNL     1       8.315   7.876  18.494  0.00  0.00    +0.000 OA
BRANCH  20  21
ATOM     21  C   UNL     1       8.019   9.021  17.680  0.00  0.00    +0.000 C 
BRANCH  21  22
ATOM     22  C   UNL     1       8.646  10.238  18.310  0.00  0.00    +0.000 A 
ATOM     23  C   UNL     1       8.510  11.501  17.715  0.00  0.00    +0.000 A 
ATOM     24  C   UNL     1       9.144  12.615  18.266  0.00  0.00    +0.000 A 
ATOM     25  C   UNL     1       9.922  12.479  19.414  0.00  0.00    +0.000 A 
ATOM     26  C   UNL     1      10.057  11.231  20.020  0.00  0.00    +0.000 A 
ATOM     27  C   UNL     1       9.422  10.115  19.471  0.00  0.00    +0.000 A 
ENDBRANCH  21  22
ENDBRANCH  20  21
ENDBRANCH  19  20
ENDBRANCH  17  19
ENDBRANCH   1  17
TORSDOF 5
ENDMDL
MODEL 8
REMARK VINA RESULT:      -7.6      6.736      9.991
REMARK  Name = 
REMARK  5 active torsions:
REMARK  status: ('A' for Active; 'I' for Inactive)
REMARK    1  A    between atoms: C_2  and  C_3
REMARK    2  A    between atoms: C_2  and  O_19
REMARK    3  A    between atoms: C_3  and  C_4
REMARK    4  A    between atoms: O_19  and  C_20
REMARK    5  A    between atoms: C_20  and  C_21
REMARK                            x       y       z     vdW  Elec       q    Type
REMARK                         _______ _______ _______ _____ _____    ______ ____
ROOT
ATOM      1  C   UNL     1      -1.575  11.867  21.400  0.00  0.00    +0.000 C 
ATOM      2  C   UNL     1      -2.897  12.633  21.414  0.00  0.00    +0.000 C 
ATOM      3  O   UNL     1      -3.312  13.225  22.410  0.00  0.00    +0.000 OA
ATOM      4  N   UNL     1      -3.669  12.587  20.281  0.00  0.00    +0.000 N 
ATOM      5  C   UNL     1      -3.347  11.991  19.043  0.00  0.00    +0.000 A 
ATOM      6  C   UNL     1      -4.415  11.415  18.344  0.00  0.00    +0.000 A 
ATOM      7  C   UNL     1      -4.189  10.714  17.160  0.00  0.00    +0.000 A 
ATOM      8  C   UNL     1      -2.902  10.634  16.636  0.00  0.00    +0.000 A 
ATOM      9  C   UNL     1      -1.841  11.263  17.289  0.00  0.00    +0.000 A 
ATOM     10  C   UNL     1      -2.042  11.945  18.500  0.00  0.00    +0.000 A 
ATOM     11  C   UNL     1      -0.896  12.611  19.136  0.00  0.00    +0.000 A 
ATOM     12  C   UNL     1       0.110  13.394  18.593  0.00  0.00    +0.000 A 
ATOM     13  C   UNL     1       0.927  13.855  19.652  0.00  0.00    +0.000 A 
ATOM     14  C   UNL     1       0.419  13.331  20.821  0.00  0.00    +0.000 A 
ATOM     15  N   UNL     1      -0.672  12.569  20.500  0.00  0.00    +0.000 N 
ATOM     16  H   UNL     1      -4.626  12.891  20.437  0.00  0.00    +0.000 HD
ENDROOT
BRANCH   1  17
ATOM     17  C   UNL     1      -1.049  11.611  22.814  0.00  0.00    +0.000 C 
BRANCH  17  19
ATOM     18  O   UNL     1       0.197   9.803  23.846  0.00  0.00    +0.000 OA
ATOM     19  C   UNL     1      -0.318  10.287  22.847  0.00  0.00    +0.000 C 
BRANCH  19  20
ATOM     20  O   UNL     1      -0.368   9.697  21.624  0.00  0.00    +0.000 OA
BRANCH  20  21
ATOM     21  C   UNL     1       0.388   8.485  21.476  0.00  0.00    +0.000 C 
BRANCH  21  22
ATOM     22  C   UNL     1       1.134   8.536  20.168  0.00  0.00    +0.000 A 
ATOM     23  C   UNL     1       0.910   9.581  19.259  0.00  0.00    +0.000 A 
ATOM     24  C   UNL     1       1.555   9.593  18.022  0.00  0.00    +0.000 A 
ATOM     25  C   UNL     1       2.428   8.562  17.679  0.00  0.00    +0.000 A 
ATOM     26  C   UNL     1       2.666   7.524  18.577  0.00  0.00    +0.000 A 
ATOM     27  C   UNL     1       2.022   7.510  19.817  0.00  0.00    +0.000 A 
ENDBRANCH  21  22
ENDBRANCH  20  21
ENDBRANCH  19  20
ENDBRANCH  17  19
ENDBRANCH   1  17
TORSDOF 5
ENDMDL
MODEL 9
REMARK VINA RESULT:      -7.5      3.302      7.955
REMARK  Name = 
REMARK  5 active torsions:
REMARK  status: ('A' for Active; 'I' for Inactive)
REMARK    1  A    between atoms: C_2  and  C_3
REMARK    2  A    between atoms: C_2  and  O_19
REMARK    3  A    between atoms: C_3  and  C_4
REMARK    4  A    between atoms: O_19  and  C_20
REMARK    5  A    between atoms: C_20  and  C_21
REMARK                            x       y       z     vdW  Elec       q    Type
REMARK                         _______ _______ _______ _____ _____    ______ ____
ROOT
ATOM      1  C   UNL     1       4.433   5.343  18.637  0.00  0.00    +0.000 C 
ATOM      2  C   UNL     1       5.920   5.165  18.942  0.00  0.00    +0.000 C 
ATOM      3  O   UNL     1       6.399   5.374  20.056  0.00  0.00    +0.000 OA
ATOM      4  N   UNL     1       6.745   4.826  17.900  0.00  0.00    +0.000 N 
ATOM      5  C   UNL     1       6.375   4.519  16.573  0.00  0.00    +0.000 A 
ATOM      6  C   UNL     1       7.273   4.922  15.578  0.00  0.00    +0.000 A 
ATOM      7  C   UNL     1       6.957   4.755  14.230  0.00  0.00    +0.000 A 
ATOM      8  C   UNL     1       5.765   4.132  13.869  0.00  0.00    +0.000 A 
ATOM      9  C   UNL     1       4.895   3.665  14.855  0.00  0.00    +0.000 A 
ATOM     10  C   UNL     1       5.179   3.853  16.216  0.00  0.00    +0.000 A 
ATOM     11  C   UNL     1       4.241   3.322  17.216  0.00  0.00    +0.000 A 
ATOM     12  C   UNL     1       3.586   2.103  17.282  0.00  0.00    +0.000 A 
ATOM     13  C   UNL     1       2.854   2.063  18.492  0.00  0.00    +0.000 A 
ATOM     14  C   UNL     1       3.059   3.265  19.135  0.00  0.00    +0.000 A 
ATOM     15  N   UNL     1       3.884   4.025  18.352  0.00  0.00    +0.000 N 
ATOM     16  H   UNL     1       7.729   4.973  18.106  0.00  0.00    +0.000 HD
ENDROOT
BRANCH   1  17
ATOM     17  C   UNL     1       3.719   6.146  19.726  0.00  0.00    +0.000 C 
BRANCH  17  19
ATOM     18  O   UNL     1       2.325   6.958  17.914  0.00  0.00    +0.000 OA
ATOM     19  C   UNL     1       2.604   6.957  19.105  0.00  0.00    +0.000 C 
BRANCH  19  20
ATOM     20  O   UNL     1       1.930   7.637  20.070  0.00  0.00    +0.000 OA
BRANCH  20  21
ATOM     21  C   UNL     1       1.431   8.931  19.700  0.00  0.00    +0.000 C 
BRANCH  21  22
ATOM     22  C   UNL     1       0.620   9.482  20.844  0.00  0.00    +0.000 A 
ATOM     23  C   UNL     1      -0.208  10.599  20.660  0.00  0.00    +0.000 A 
ATOM     24  C   UNL     1      -0.910  11.146  21.735  0.00  0.00    +0.000 A 
ATOM     25  C   UNL     1      -0.791  10.584  23.005  0.00  0.00    +0.000 A 
ATOM     26  C   UNL     1       0.020   9.467  23.198  0.00  0.00    +0.000 A 
ATOM     27  C   UNL     1       0.723   8.918  22.123  0.00  0.00    +0.000 A 
ENDBRANCH  21  22
ENDBRANCH  20  21
ENDBRANCH  19  20
ENDBRANCH  17  19
ENDBRANCH   1  17
TORSDOF 5
ENDMDL
