MODEL 1
REMARK VINA RESULT:      -8.0      0.000      0.000
REMARK  Name = 
REMARK  6 active torsions:
REMARK  status: ('A' for Active; 'I' for Inactive)
REMARK    1  A    between atoms: C_2  and  C_3
REMARK    2  A    between atoms: C_2  and  O_15
REMARK    3  A    between atoms: C_3  and  N_4
REMARK    4  A    between atoms: C_5  and  C_7
REMARK    5  A    between atoms: O_15  and  C_16
REMARK    6  A    between atoms: C_16  and  C_17
REMARK                            x       y       z     vdW  Elec       q    Type
REMARK                         _______ _______ _______ _____ _____    ______ ____
ROOT
ATOM      1  O   UNL     1       7.712   7.112  16.665  0.00  0.00    +0.000 OA
ATOM      2  C   UNL     1       7.963   7.218  17.859  0.00  0.00    +0.000 C 
ENDROOT
BRANCH   2   3
ATOM      3  C   UNL     1       7.748   6.092  18.861  0.00  0.00    +0.000 C 
BRANCH   3   4
ATOM      4  N   UNL     1       6.361   5.660  18.878  0.00  0.00    +0.000 N 
ATOM      5  C   UNL     1       5.918   4.683  18.018  0.00  0.00    +0.000 C 
ATOM      6  O   UNL     1       6.623   4.218  17.127  0.00  0.00    +0.000 OA
ATOM      7  H   UNL     1       5.804   5.904  19.690  0.00  0.00    +0.000 HD
BRANCH   5   8
ATOM      8  C   UNL     1       4.513   4.207  18.154  0.00  0.00    +0.000 A 
ATOM      9  C   UNL     1       4.357   2.844  18.479  0.00  0.00    +0.000 A 
ATOM     10  C   UNL     1       3.089   2.288  18.664  0.00  0.00    +0.000 A 
ATOM     11  C   UNL     1       1.963   3.093  18.529  0.00  0.00    +0.000 A 
ATOM     12 CL   UNL     1       0.400   2.422  18.780  0.00  0.00    +0.000 Cl
ATOM     13  C   UNL     1       2.095   4.441  18.208  0.00  0.00    +0.000 A 
ATOM     14  C   UNL     1       3.365   5.002  18.020  0.00  0.00    +0.000 A 
ATOM     15 CL   UNL     1       3.409   6.694  17.667  0.00  0.00    +0.000 Cl
ENDBRANCH   5   8
ENDBRANCH   3   4
ENDBRANCH   2   3
BRANCH   2  16
ATOM     16  O   UNL     1       8.390   8.346  18.485  0.00  0.00    +0.000 OA
BRANCH  16  17
ATOM     17  C   UNL     1       8.001   9.599  17.895  0.00  0.00    +0.000 C 
BRANCH  17  18
ATOM     18  C   UNL     1       8.955  10.703  18.222  0.00  0.00    +0.000 A 
ATOM     19  C   UNL     1       8.923  12.032  17.841  0.00  0.00    +0.000 A 
ATOM     20  N   UNL     1      10.029  12.612  18.403  0.00  0.00    +0.000 N 
ATOM     21  C   UNL     1      10.487  13.924  18.311  0.00  0.00    +0.000 A 
ATOM     22  C   UNL     1      11.623  14.270  18.948  0.00  0.00    +0.000 A 
ATOM     23 BR   UNL     1      12.332  15.987  18.874  0.00  0.00    +0.000 Br
ATOM     24  C   UNL     1      12.330  13.254  19.721  0.00  0.00    +0.000 A 
ATOM     25  C   UNL     1      11.875  11.988  19.807  0.00  0.00    +0.000 A 
ATOM     26  C   UNL     1      10.681  11.620  19.126  0.00  0.00    +0.000 A 
ATOM     27  N   UNL     1      10.047  10.470  19.037  0.00  0.00    +0.000 NA
ENDBRANCH  17  18
ENDBRANCH  16  17
ENDBRANCH   2  16
TORSDOF 6
ENDMDL
MODEL 2
REMARK VINA RESULT:      -7.8      5.091      7.820
REMARK  Name = 
REMARK  6 active torsions:
REMARK  status: ('A' for Active; 'I' for Inactive)
REMARK    1  A    between atoms: C_2  and  C_3
REMARK    2  A    between atoms: C_2  and  O_15
REMARK    3  A    between atoms: C_3  and  N_4
REMARK    4  A    between atoms: C_5  and  C_7
REMARK    5  A    between atoms: O_15  and  C_16
REMARK    6  A    between atoms: C_16  and  C_17
REMARK                            x       y       z     vdW  Elec       q    Type
REMARK                         _______ _______ _______ _____ _____    ______ ____
ROOT
ATOM      1  O   UNL     1       2.837   2.186  21.181  0.00  0.00    +0.000 OA
ATOM      2  C   UNL     1       3.282   2.879  20.273  0.00  0.00    +0.000 C 
ENDROOT
BRANCH   2   3
ATOM      3  C   UNL     1       4.594   2.581  19.561  0.00  0.00    +0.000 C 
BRANCH   3   4
ATOM      4  N   UNL     1       5.392   3.783  19.403  0.00  0.00    +0.000 N 
ATOM      5  C   UNL     1       5.565   4.354  18.164  0.00  0.00    +0.000 C 
ATOM      6  O   UNL     1       5.164   3.826  17.131  0.00  0.00    +0.000 OA
ATOM      7  H   UNL     1       5.600   4.322  20.237  0.00  0.00    +0.000 HD
BRANCH   5   8
ATOM      8  C   UNL     1       6.305   5.644  18.078  0.00  0.00    +0.000 A 
ATOM      9  C   UNL     1       7.439   5.756  18.909  0.00  0.00    +0.000 A 
ATOM     10  C   UNL     1       8.232   6.906  18.895  0.00  0.00    +0.000 A 
ATOM     11  C   UNL     1       7.900   7.955  18.044  0.00  0.00    +0.000 A 
ATOM     12 CL   UNL     1       8.886   9.363  18.001  0.00  0.00    +0.000 Cl
ATOM     13  C   UNL     1       6.784   7.865  17.217  0.00  0.00    +0.000 A 
ATOM     14  C   UNL     1       5.985   6.715  17.230  0.00  0.00    +0.000 A 
ATOM     15 CL   UNL     1       4.651   6.697  16.130  0.00  0.00    +0.000 Cl
ENDBRANCH   5   8
ENDBRANCH   3   4
ENDBRANCH   2   3
BRANCH   2  16
ATOM     16  O   UNL     1       2.736   4.036  19.816  0.00  0.00    +0.000 OA
BRANCH  16  17
ATOM     17  C   UNL     1       2.144   4.904  20.798  0.00  0.00    +0.000 C 
BRANCH  17  18
ATOM     18  C   UNL     1       1.958   6.298  20.289  0.00  0.00    +0.000 A 
ATOM     19  C   UNL     1       1.368   7.385  20.906  0.00  0.00    +0.000 A 
ATOM     20  N   UNL     1       1.452   8.418  20.009  0.00  0.00    +0.000 N 
ATOM     21  C   UNL     1       0.986   9.726  20.115  0.00  0.00    +0.000 A 
ATOM     22  C   UNL     1       1.174  10.577  19.088  0.00  0.00    +0.000 A 
ATOM     23 BR   UNL     1       0.575  12.336  19.119  0.00  0.00    +0.000 Br
ATOM     24  C   UNL     1       1.869  10.096  17.898  0.00  0.00    +0.000 A 
ATOM     25  C   UNL     1       2.320   8.828  17.808  0.00  0.00    +0.000 A 
ATOM     26  C   UNL     1       2.113   7.926  18.890  0.00  0.00    +0.000 A 
ATOM     27  N   UNL     1       2.433   6.659  19.042  0.00  0.00    +0.000 NA
ENDBRANCH  17  18
ENDBRANCH  16  17
ENDBRANCH   2  16
TORSDOF 6
ENDMDL
MODEL 3
REMARK VINA RESULT:      -7.7      1.775      1.959
REMARK  Name = 
REMARK  6 active torsions:
REMARK  status: ('A' for Active; 'I' for Inactive)
REMARK    1  A    between atoms: C_2  and  C_3
REMARK    2  A    between atoms: C_2  and  O_15
REMARK    3  A    between atoms: C_3  and  N_4
REMARK    4  A    between atoms: C_5  and  C_7
REMARK    5  A    between atoms: O_15  and  C_16
REMARK    6  A    between atoms: C_16  and  C_17
REMARK                            x       y       z     vdW  Elec       q    Type
REMARK                         _______ _______ _______ _____ _____    ______ ____
ROOT
ATOM      1  O   UNL     1       8.270   6.916  18.845  0.00  0.00    +0.000 OA
ATOM      2  C   UNL     1       7.798   7.672  18.005  0.00  0.00    +0.000 C 
ENDROOT
BRANCH   2   3
ATOM      3  C   UNL     1       6.876   7.206  16.886  0.00  0.00    +0.000 C 
BRANCH   3   4
ATOM      4  N   UNL     1       5.896   6.252  17.374  0.00  0.00    +0.000 N 
ATOM      5  C   UNL     1       4.555   6.555  17.364  0.00  0.00    +0.000 C 
ATOM      6  O   UNL     1       4.130   7.667  17.063  0.00  0.00    +0.000 OA
ATOM      7  H   UNL     1       6.191   5.288  17.478  0.00  0.00    +0.000 HD
BRANCH   5   8
ATOM      8  C   UNL     1       3.589   5.498  17.777  0.00  0.00    +0.000 A 
ATOM      9  C   UNL     1       3.715   4.260  17.113  0.00  0.00    +0.000 A 
ATOM     10  C   UNL     1       2.887   3.182  17.435  0.00  0.00    +0.000 A 
ATOM     11  C   UNL     1       1.926   3.332  18.430  0.00  0.00    +0.000 A 
ATOM     12 CL   UNL     1       0.921   2.001  18.851  0.00  0.00    +0.000 Cl
ATOM     13  C   UNL     1       1.785   4.545  19.097  0.00  0.00    +0.000 A 
ATOM     14  C   UNL     1       2.613   5.629  18.775  0.00  0.00    +0.000 A 
ATOM     15 CL   UNL     1       2.376   7.072  19.698  0.00  0.00    +0.000 Cl
ENDBRANCH   5   8
ENDBRANCH   3   4
ENDBRANCH   2   3
BRANCH   2  16
ATOM     16  O   UNL     1       8.069   8.998  17.886  0.00  0.00    +0.000 OA
BRANCH  16  17
ATOM     17  C   UNL     1       8.956   9.567  18.866  0.00  0.00    +0.000 C 
BRANCH  17  18
ATOM     18  C   UNL     1       9.404  10.945  18.497  0.00  0.00    +0.000 A 
ATOM     19  C   UNL     1       8.880  12.168  18.873  0.00  0.00    +0.000 A 
ATOM     20  N   UNL     1       9.653  13.115  18.257  0.00  0.00    +0.000 N 
ATOM     21  C   UNL     1       9.542  14.503  18.276  0.00  0.00    +0.000 A 
ATOM     22  C   UNL     1      10.421  15.244  17.574  0.00  0.00    +0.000 A 
ATOM     23 BR   UNL     1      10.348  17.101  17.517  0.00  0.00    +0.000 Br
ATOM     24  C   UNL     1      11.468  14.561  16.822  0.00  0.00    +0.000 A 
ATOM     25  C   UNL     1      11.571  13.217  16.813  0.00  0.00    +0.000 A 
ATOM     26  C   UNL     1      10.635  12.433  17.547  0.00  0.00    +0.000 A 
ATOM     27  N   UNL     1      10.508  11.131  17.686  0.00  0.00    +0.000 NA
ENDBRANCH  17  18
ENDBRANCH  16  17
ENDBRANCH   2  16
TORSDOF 6
ENDMDL
MODEL 4
REMARK VINA RESULT:      -7.6      1.160      1.213
REMARK  Name = 
REMARK  6 active torsions:
REMARK  status: ('A' for Active; 'I' for Inactive)
REMARK    1  A    between atoms: C_2  and  C_3
REMARK    2  A    between atoms: C_2  and  O_15
REMARK    3  A    between atoms: C_3  and  N_4
REMARK    4  A    between atoms: C_5  and  C_7
REMARK    5  A    between atoms: O_15  and  C_16
REMARK    6  A    between atoms: C_16  and  C_17
REMARK                            x       y       z     vdW  Elec       q    Type
REMARK                         _______ _______ _______ _____ _____    ______ ____
ROOT
ATOM      1  O   UNL     1       7.466   6.343  16.142  0.00  0.00    +0.000 OA
ATOM      2  C   UNL     1       7.743   6.338  17.336  0.00  0.00    +0.000 C 
ENDROOT
BRANCH   2   3
ATOM      3  C   UNL     1       7.763   5.073  18.183  0.00  0.00    +0.000 C 
BRANCH   3   4
ATOM      4  N   UNL     1       6.474   4.404  18.161  0.00  0.00    +0.000 N 
ATOM      5  C   UNL     1       5.455   4.812  18.989  0.00  0.00    +0.000 C 
ATOM      6  O   UNL     1       5.611   5.666  19.858  0.00  0.00    +0.000 OA
ATOM      7  H   UNL     1       6.266   3.814  17.362  0.00  0.00    +0.000 HD
BRANCH   5   8
ATOM      8  C   UNL     1       4.125   4.157  18.846  0.00  0.00    +0.000 A 
ATOM      9  C   UNL     1       4.082   2.782  19.157  0.00  0.00    +0.000 A 
ATOM     10  C   UNL     1       2.885   2.065  19.091  0.00  0.00    +0.000 A 
ATOM     11  C   UNL     1       1.716   2.720  18.717  0.00  0.00    +0.000 A 
ATOM     12 CL   UNL     1       0.233   1.850  18.659  0.00  0.00    +0.000 Cl
ATOM     13  C   UNL     1       1.736   4.076  18.405  0.00  0.00    +0.000 A 
ATOM     14  C   UNL     1       2.935   4.798  18.468  0.00  0.00    +0.000 A 
ATOM     15 CL   UNL     1       2.833   6.484  18.101  0.00  0.00    +0.000 Cl
ENDBRANCH   5   8
ENDBRANCH   3   4
ENDBRANCH   2   3
BRANCH   2  16
ATOM     16  O   UNL     1       7.995   7.433  18.098  0.00  0.00    +0.000 OA
BRANCH  16  17
ATOM     17  C   UNL     1       7.522   8.695  17.594  0.00  0.00    +0.000 C 
BRANCH  17  18
ATOM     18  C   UNL     1       8.329   9.849  18.097  0.00  0.00    +0.000 A 
ATOM     19  C   UNL     1       8.350  11.161  17.662  0.00  0.00    +0.000 A 
ATOM     20  N   UNL     1       9.263  11.807  18.453  0.00  0.00    +0.000 N 
ATOM     21  C   UNL     1       9.688  13.132  18.420  0.00  0.00    +0.000 A 
ATOM     22  C   UNL     1      10.618  13.548  19.300  0.00  0.00    +0.000 A 
ATOM     23 BR   UNL     1      11.268  15.290  19.328  0.00  0.00    +0.000 Br
ATOM     24  C   UNL     1      11.145  12.590  20.267  0.00  0.00    +0.000 A 
ATOM     25  C   UNL     1      10.723  11.309  20.294  0.00  0.00    +0.000 A 
ATOM     26  C   UNL     1       9.747  10.868  19.357  0.00  0.00    +0.000 A 
ATOM     27  N   UNL     1       9.192   9.690  19.165  0.00  0.00    +0.000 NA
ENDBRANCH  17  18
ENDBRANCH  16  17
ENDBRANCH   2  16
TORSDOF 6
ENDMDL
MODEL 5
REMARK VINA RESULT:      -7.5      1.042      1.139
REMARK  Name = 
REMARK  6 active torsions:
REMARK  status: ('A' for Active; 'I' for Inactive)
REMARK    1  A    between atoms: C_2  and  C_3
REMARK    2  A    between atoms: C_2  and  O_15
REMARK    3  A    between atoms: C_3  and  N_4
REMARK    4  A    between atoms: C_5  and  C_7
REMARK    5  A    between atoms: O_15  and  C_16
REMARK    6  A    between atoms: C_16  and  C_17
REMARK                            x       y       z     vdW  Elec       q    Type
REMARK                         _______ _______ _______ _____ _____    ______ ____
ROOT
ATOM      1  O   UNL     1       8.169   6.693  19.230  0.00  0.00    +0.000 OA
ATOM      2  C   UNL     1       8.027   7.233  18.139  0.00  0.00    +0.000 C 
ENDROOT
BRANCH   2   3
ATOM      3  C   UNL     1       7.203   6.629  17.010  0.00  0.00    +0.000 C 
BRANCH   3   4
ATOM      4  N   UNL     1       6.007   5.981  17.519  0.00  0.00    +0.000 N 
ATOM      5  C   UNL     1       4.985   5.627  16.671  0.00  0.00    +0.000 C 
ATOM      6  O   UNL     1       4.972   5.940  15.484  0.00  0.00    +0.000 OA
ATOM      7  H   UNL     1       6.053   5.575  18.447  0.00  0.00    +0.000 HD
BRANCH   5   8
ATOM      8  C   UNL     1       3.831   4.871  17.234  0.00  0.00    +0.000 A 
ATOM      9  C   UNL     1       3.903   3.467  17.118  0.00  0.00    +0.000 A 
ATOM     10  C   UNL     1       2.896   2.648  17.635  0.00  0.00    +0.000 A 
ATOM     11  C   UNL     1       1.808   3.228  18.279  0.00  0.00    +0.000 A 
ATOM     12 CL   UNL     1       0.578   2.225  18.942  0.00  0.00    +0.000 Cl
ATOM     13  C   UNL     1       1.717   4.611  18.403  0.00  0.00    +0.000 A 
ATOM     14  C   UNL     1       2.723   5.435  17.884  0.00  0.00    +0.000 A 
ATOM     15 CL   UNL     1       2.526   7.135  18.135  0.00  0.00    +0.000 Cl
ENDBRANCH   5   8
ENDBRANCH   3   4
ENDBRANCH   2   3
BRANCH   2  16
ATOM     16  O   UNL     1       8.625   8.385  17.737  0.00  0.00    +0.000 OA
BRANCH  16  17
ATOM     17  C   UNL     1       7.955   9.612  18.077  0.00  0.00    +0.000 C 
BRANCH  17  18
ATOM     18  C   UNL     1       8.912  10.735  18.321  0.00  0.00    +0.000 A 
ATOM     19  C   UNL     1       8.907  12.019  17.808  0.00  0.00    +0.000 A 
ATOM     20  N   UNL     1      10.004  12.642  18.343  0.00  0.00    +0.000 N 
ATOM     21  C   UNL     1      10.481  13.934  18.135  0.00  0.00    +0.000 A 
ATOM     22  C   UNL     1      11.601  14.332  18.767  0.00  0.00    +0.000 A 
ATOM     23 BR   UNL     1      12.333  16.026  18.544  0.00  0.00    +0.000 Br
ATOM     24  C   UNL     1      12.273  13.392  19.659  0.00  0.00    +0.000 A 
ATOM     25  C   UNL     1      11.800  12.145  19.858  0.00  0.00    +0.000 A 
ATOM     26  C   UNL     1      10.622  11.721  19.181  0.00  0.00    +0.000 A 
ATOM     27  N   UNL     1       9.977  10.575  19.188  0.00  0.00    +0.000 NA
ENDBRANCH  17  18
ENDBRANCH  16  17
ENDBRANCH   2  16
TORSDOF 6
ENDMDL
MODEL 6
REMARK VINA RESULT:      -7.5      6.426      8.263
REMARK  Name = 
REMARK  6 active torsions:
REMARK  status: ('A' for Active; 'I' for Inactive)
REMARK    1  A    between atoms: C_2  and  C_3
REMARK    2  A    between atoms: C_2  and  O_15
REMARK    3  A    between atoms: C_3  and  N_4
REMARK    4  A    between atoms: C_5  and  C_7
REMARK    5  A    between atoms: O_15  and  C_16
REMARK    6  A    between atoms: C_16  and  C_17
REMARK                            x       y       z     vdW  Elec       q    Type
REMARK                         _______ _______ _______ _____ _____    ______ ____
ROOT
ATOM      1  O   UNL     1       0.988   3.986  19.636  0.00  0.00    +0.000 OA
ATOM      2  C   UNL     1       2.090   4.421  19.951  0.00  0.00    +0.000 C 
ENDROOT
BRANCH   2   3
ATOM      3  C   UNL     1       3.380   3.633  19.779  0.00  0.00    +0.000 C 
BRANCH   3   4
ATOM      4  N   UNL     1       4.006   3.919  18.501  0.00  0.00    +0.000 N 
ATOM      5  C   UNL     1       5.287   4.415  18.440  0.00  0.00    +0.000 C 
ATOM      6  O   UNL     1       5.915   4.749  19.442  0.00  0.00    +0.000 OA
ATOM      7  H   UNL     1       3.586   3.515  17.671  0.00  0.00    +0.000 HD
BRANCH   5   8
ATOM      8  C   UNL     1       5.915   4.589  17.100  0.00  0.00    +0.000 A 
ATOM      9  C   UNL     1       5.377   3.797  16.064  0.00  0.00    +0.000 A 
ATOM     10  C   UNL     1       5.862   3.894  14.758  0.00  0.00    +0.000 A 
ATOM     11  C   UNL     1       6.887   4.790  14.474  0.00  0.00    +0.000 A 
ATOM     12 CL   UNL     1       7.470   4.934  12.862  0.00  0.00    +0.000 Cl
ATOM     13  C   UNL     1       7.432   5.580  15.481  0.00  0.00    +0.000 A 
ATOM     14  C   UNL     1       6.950   5.485  16.793  0.00  0.00    +0.000 A 
ATOM     15 CL   UNL     1       7.671   6.546  17.952  0.00  0.00    +0.000 Cl
ENDBRANCH   5   8
ENDBRANCH   3   4
ENDBRANCH   2   3
BRANCH   2  16
ATOM     16  O   UNL     1       2.329   5.612  20.559  0.00  0.00    +0.000 OA
BRANCH  16  17
ATOM     17  C   UNL     1       2.352   6.777  19.714  0.00  0.00    +0.000 C 
BRANCH  17  18
ATOM     18  C   UNL     1       1.592   7.923  20.302  0.00  0.00    +0.000 A 
ATOM     19  C   UNL     1       1.292   9.153  19.746  0.00  0.00    +0.000 A 
ATOM     20  N   UNL     1       0.584   9.835  20.700  0.00  0.00    +0.000 N 
ATOM     21  C   UNL     1       0.066  11.126  20.668  0.00  0.00    +0.000 A 
ATOM     22  C   UNL     1      -0.594  11.598  21.743  0.00  0.00    +0.000 A 
ATOM     23 BR   UNL     1      -1.307  13.314  21.811  0.00  0.00    +0.000 Br
ATOM     24  C   UNL     1      -0.748  10.730  22.906  0.00  0.00    +0.000 A 
ATOM     25  C   UNL     1      -0.246   9.479  22.926  0.00  0.00    +0.000 A 
ATOM     26  C   UNL     1       0.460   8.984  21.793  0.00  0.00    +0.000 A 
ATOM     27  N   UNL     1       1.050   7.830  21.569  0.00  0.00    +0.000 NA
ENDBRANCH  17  18
ENDBRANCH  16  17
ENDBRANCH   2  16
TORSDOF 6
ENDMDL
MODEL 7
REMARK VINA RESULT:      -7.5      1.440      1.624
REMARK  Name = 
REMARK  6 active torsions:
REMARK  status: ('A' for Active; 'I' for Inactive)
REMARK    1  A    between atoms: C_2  and  C_3
REMARK    2  A    between atoms: C_2  and  O_15
REMARK    3  A    between atoms: C_3  and  N_4
REMARK    4  A    between atoms: C_5  and  C_7
REMARK    5  A    between atoms: O_15  and  C_16
REMARK    6  A    between atoms: C_16  and  C_17
REMARK                            x       y       z     vdW  Elec       q    Type
REMARK                         _______ _______ _______ _____ _____    ______ ____
ROOT
ATOM      1  O   UNL     1       8.109   6.844  18.744  0.00  0.00    +0.000 OA
ATOM      2  C   UNL     1       7.747   7.697  17.942  0.00  0.00    +0.000 C 
ENDROOT
BRANCH   2   3
ATOM      3  C   UNL     1       6.795   7.409  16.790  0.00  0.00    +0.000 C 
BRANCH   3   4
ATOM      4  N   UNL     1       5.596   6.734  17.253  0.00  0.00    +0.000 N 
ATOM      5  C   UNL     1       5.108   5.633  16.590  0.00  0.00    +0.000 C 
ATOM      6  O   UNL     1       5.578   5.241  15.525  0.00  0.00    +0.000 OA
ATOM      7  H   UNL     1       5.282   6.930  18.198  0.00  0.00    +0.000 HD
BRANCH   5   8
ATOM      8  C   UNL     1       3.937   4.919  17.173  0.00  0.00    +0.000 A 
ATOM      9  C   UNL     1       3.870   3.535  16.908  0.00  0.00    +0.000 A 
ATOM     10  C   UNL     1       2.835   2.752  17.425  0.00  0.00    +0.000 A 
ATOM     11  C   UNL     1       1.859   3.347  18.219  0.00  0.00    +0.000 A 
ATOM     12 CL   UNL     1       0.598   2.385  18.882  0.00  0.00    +0.000 Cl
ATOM     13  C   UNL     1       1.907   4.711  18.491  0.00  0.00    +0.000 A 
ATOM     14  C   UNL     1       2.942   5.500  17.972  0.00  0.00    +0.000 A 
ATOM     15 CL   UNL     1       2.923   7.172  18.412  0.00  0.00    +0.000 Cl
ENDBRANCH   5   8
ENDBRANCH   3   4
ENDBRANCH   2   3
BRANCH   2  16
ATOM     16  O   UNL     1       8.181   8.984  17.901  0.00  0.00    +0.000 OA
BRANCH  16  17
ATOM     17  C   UNL     1       8.934   9.449  19.035  0.00  0.00    +0.000 C 
BRANCH  17  18
ATOM     18  C   UNL     1       9.520  10.807  18.812  0.00  0.00    +0.000 A 
ATOM     19  C   UNL     1       9.551  11.899  19.660  0.00  0.00    +0.000 A 
ATOM     20  N   UNL     1      10.197  12.892  18.972  0.00  0.00    +0.000 N 
ATOM     21  C   UNL     1      10.472  14.202  19.353  0.00  0.00    +0.000 A 
ATOM     22  C   UNL     1      11.117  15.016  18.496  0.00  0.00    +0.000 A 
ATOM     23 BR   UNL     1      11.515  16.787  18.898  0.00  0.00    +0.000 Br
ATOM     24  C   UNL     1      11.514  14.488  17.194  0.00  0.00    +0.000 A 
ATOM     25  C   UNL     1      11.247  13.216  16.836  0.00  0.00    +0.000 A 
ATOM     26  C   UNL     1      10.556  12.359  17.739  0.00  0.00    +0.000 A 
ATOM     27  N   UNL     1      10.166  11.107  17.628  0.00  0.00    +0.000 NA
ENDBRANCH  17  18
ENDBRANCH  16  17
ENDBRANCH   2  16
TORSDOF 6
ENDMDL
MODEL 8
REMARK VINA RESULT:      -7.5      6.426      8.321
REMARK  Name = 
REMARK  6 active torsions:
REMARK  status: ('A' for Active; 'I' for Inactive)
REMARK    1  A    between atoms: C_2  and  C_3
REMARK    2  A    between atoms: C_2  and  O_15
REMARK    3  A    between atoms: C_3  and  N_4
REMARK    4  A    between atoms: C_5  and  C_7
REMARK    5  A    between atoms: O_15  and  C_16
REMARK    6  A    between atoms: C_16  and  C_17
REMARK                            x       y       z     vdW  Elec       q    Type
REMARK                         _______ _______ _______ _____ _____    ______ ____
ROOT
ATOM      1  O   UNL     1       0.485   3.846  19.655  0.00  0.00    +0.000 OA
ATOM      2  C   UNL     1       1.567   3.654  20.198  0.00  0.00    +0.000 C 
ENDROOT
BRANCH   2   3
ATOM      3  C   UNL     1       2.226   4.664  21.127  0.00  0.00    +0.000 C 
BRANCH   3   4
ATOM      4  N   UNL     1       1.740   6.009  20.872  0.00  0.00    +0.000 N 
ATOM      5  C   UNL     1       2.343   6.807  19.929  0.00  0.00    +0.000 C 
ATOM      6  O   UNL     1       3.376   6.482  19.349  0.00  0.00    +0.000 OA
ATOM      7  H   UNL     1       0.814   6.246  21.211  0.00  0.00    +0.000 HD
BRANCH   5   8
ATOM      8  C   UNL     1       1.736   8.137  19.637  0.00  0.00    +0.000 A 
ATOM      9  C   UNL     1       1.624   8.472  18.272  0.00  0.00    +0.000 A 
ATOM     10  C   UNL     1       1.043   9.678  17.871  0.00  0.00    +0.000 A 
ATOM     11  C   UNL     1       0.564  10.559  18.836  0.00  0.00    +0.000 A 
ATOM     12 CL   UNL     1      -0.176  12.033  18.349  0.00  0.00    +0.000 Cl
ATOM     13  C   UNL     1       0.667  10.248  20.188  0.00  0.00    +0.000 A 
ATOM     14  C   UNL     1       1.250   9.040  20.593  0.00  0.00    +0.000 A 
ATOM     15 CL   UNL     1       1.284   8.741  22.296  0.00  0.00    +0.000 Cl
ENDBRANCH   5   8
ENDBRANCH   3   4
ENDBRANCH   2   3
BRANCH   2  16
ATOM     16  O   UNL     1       2.370   2.575  20.010  0.00  0.00    +0.000 OA
BRANCH  16  17
ATOM     17  C   UNL     1       3.773   2.760  20.275  0.00  0.00    +0.000 C 
BRANCH  17  18
ATOM     18  C   UNL     1       4.518   3.257  19.078  0.00  0.00    +0.000 A 
ATOM     19  C   UNL     1       4.213   3.120  17.736  0.00  0.00    +0.000 A 
ATOM     20  N   UNL     1       5.220   3.751  17.055  0.00  0.00    +0.000 N 
ATOM     21  C   UNL     1       5.417   3.885  15.683  0.00  0.00    +0.000 A 
ATOM     22  C   UNL     1       6.501   4.546  15.234  0.00  0.00    +0.000 A 
ATOM     23 BR   UNL     1       6.867   4.764  13.425  0.00  0.00    +0.000 Br
ATOM     24  C   UNL     1       7.430   5.109  16.208  0.00  0.00    +0.000 A 
ATOM     25  C   UNL     1       7.229   4.978  17.535  0.00  0.00    +0.000 A 
ATOM     26  C   UNL     1       6.088   4.270  18.009  0.00  0.00    +0.000 A 
ATOM     27  N   UNL     1       5.679   3.992  19.228  0.00  0.00    +0.000 NA
ENDBRANCH  17  18
ENDBRANCH  16  17
ENDBRANCH   2  16
TORSDOF 6
ENDMDL
MODEL 9
REMARK VINA RESULT:      -7.3      7.539     10.028
REMARK  Name = 
REMARK  6 active torsions:
REMARK  status: ('A' for Active; 'I' for Inactive)
REMARK    1  A    between atoms: C_2  and  C_3
REMARK    2  A    between atoms: C_2  and  O_15
REMARK    3  A    between atoms: C_3  and  N_4
REMARK    4  A    between atoms: C_5  and  C_7
REMARK    5  A    between atoms: O_15  and  C_16
REMARK    6  A    between atoms: C_16  and  C_17
REMARK                            x       y       z     vdW  Elec       q    Type
REMARK                         _______ _______ _______ _____ _____    ______ ____
ROOT
ATOM      1  O   UNL     1       1.754   9.602  22.614  0.00  0.00    +0.000 OA
ATOM      2  C   UNL     1       1.279   9.209  21.554  0.00  0.00    +0.000 C 
ENDROOT
BRANCH   2   3
ATOM      3  C   UNL     1       1.069   7.736  21.229  0.00  0.00    +0.000 C 
BRANCH   3   4
ATOM      4  N   UNL     1       2.080   7.251  20.307  0.00  0.00    +0.000 N 
ATOM      5  C   UNL     1       2.305   5.903  20.157  0.00  0.00    +0.000 C 
ATOM      6  O   UNL     1       1.763   5.059  20.865  0.00  0.00    +0.000 OA
ATOM      7  H   UNL     1       2.426   7.899  19.607  0.00  0.00    +0.000 HD
BRANCH   5   8
ATOM      8  C   UNL     1       3.280   5.462  19.119  0.00  0.00    +0.000 A 
ATOM      9  C   UNL     1       4.635   5.738  19.395  0.00  0.00    +0.000 A 
ATOM     10  C   UNL     1       5.644   5.345  18.513  0.00  0.00    +0.000 A 
ATOM     11  C   UNL     1       5.307   4.667  17.345  0.00  0.00    +0.000 A 
ATOM     12 CL   UNL     1       6.545   4.157  16.267  0.00  0.00    +0.000 Cl
ATOM     13  C   UNL     1       3.975   4.387  17.054  0.00  0.00    +0.000 A 
ATOM     14  C   UNL     1       2.960   4.780  17.936  0.00  0.00    +0.000 A 
ATOM     15 CL   UNL     1       1.348   4.340  17.492  0.00  0.00    +0.000 Cl
ENDBRANCH   5   8
ENDBRANCH   3   4
ENDBRANCH   2   3
BRANCH   2  16
ATOM     16  O   UNL     1       0.942   9.990  20.495  0.00  0.00    +0.000 OA
BRANCH  16  17
ATOM     17  C   UNL     1       0.207  11.192  20.786  0.00  0.00    +0.000 C 
BRANCH  17  18
ATOM     18  C   UNL     1      -1.040  11.308  19.970  0.00  0.00    +0.000 A 
ATOM     19  C   UNL     1      -2.131  12.139  20.150  0.00  0.00    +0.000 A 
ATOM     20  N   UNL     1      -3.000  11.845  19.133  0.00  0.00    +0.000 N 
ATOM     21  C   UNL     1      -4.261  12.370  18.862  0.00  0.00    +0.000 A 
ATOM     22  C   UNL     1      -4.949  11.915  17.798  0.00  0.00    +0.000 A 
ATOM     23 BR   UNL     1      -6.647  12.534  17.359  0.00  0.00    +0.000 Br
ATOM     24  C   UNL     1      -4.341  10.887  16.959  0.00  0.00    +0.000 A 
ATOM     25  C   UNL     1      -3.118  10.388  17.227  0.00  0.00    +0.000 A 
ATOM     26  C   UNL     1      -2.395  10.863  18.358  0.00  0.00    +0.000 A 
ATOM     27  N   UNL     1      -1.215  10.535  18.839  0.00  0.00    +0.000 NA
ENDBRANCH  17  18
ENDBRANCH  16  17
ENDBRANCH   2  16
TORSDOF 6
ENDMDL
