MODEL 1
REMARK VINA RESULT:      -9.3      0.000      0.000
REMARK  Name = 
REMARK  12 active torsions:
REMARK  status: ('A' for Active; 'I' for Inactive)
REMARK    1  A    between atoms: C_1  and  C_2
REMARK    2  A    between atoms: C_2  and  C_3
REMARK    3  A    between atoms: C_2  and  C_4
REMARK    4  A    between atoms: C_2  and  C_5
REMARK    5  A    between atoms: C_7  and  C_8
REMARK    6  A    between atoms: C_10  and  C_11
REMARK    7  A    between atoms: C_15  and  O_16
REMARK    8  A    between atoms: C_23  and  C_24
REMARK    9  A    between atoms: C_24  and  C_25
REMARK   10  A    between atoms: C_24  and  C_26
REMARK   11  A    between atoms: C_24  and  C_27
REMARK   12  A    between atoms: C_28  and  O_29
REMARK                            x       y       z     vdW  Elec       q    Type
REMARK                         _______ _______ _______ _____ _____    ______ ____
ROOT
ATOM      1  C   UNL     1       3.274   4.409  18.890  0.00  0.00    +0.000 A 
ATOM      2  C   UNL     1       2.545   5.593  18.665  0.00  0.00    +0.000 A 
ATOM      3  C   UNL     1       3.154   6.774  18.233  0.00  0.00    +0.000 A 
ATOM      4  C   UNL     1       4.531   6.776  18.003  0.00  0.00    +0.000 A 
ATOM      5  C   UNL     1       5.338   5.637  18.201  0.00  0.00    +0.000 A 
ATOM      6  C   UNL     1       4.669   4.468  18.645  0.00  0.00    +0.000 A 
ENDROOT
BRANCH   3   7
ATOM      7  C   UNL     1       2.374   8.002  18.061  0.00  0.00    +0.000 A 
ATOM      8  C   UNL     1       1.023   8.222  18.436  0.00  0.00    +0.000 A 
ATOM      9  C   UNL     1       0.731   9.530  18.096  0.00  0.00    +0.000 A 
ATOM     10  N   UNL     1       1.888  10.006  17.546  0.00  0.00    +0.000 N 
ATOM     11  N   UNL     1       2.896   9.115  17.524  0.00  0.00    +0.000 NA
ATOM     12  H   UNL     1       2.073  10.937  17.188  0.00  0.00    +0.000 HD
BRANCH   9  13
ATOM     13  C   UNL     1      -0.495  10.302  18.276  0.00  0.00    +0.000 A 
ATOM     14  C   UNL     1      -0.562  11.254  19.300  0.00  0.00    +0.000 A 
ATOM     15  C   UNL     1      -1.739  11.962  19.523  0.00  0.00    +0.000 A 
ATOM     16  F   UNL     1      -1.792  12.863  20.512  0.00  0.00    +0.000 F 
ATOM     17  C   UNL     1      -2.860  11.743  18.734  0.00  0.00    +0.000 A 
ATOM     18  C   UNL     1      -2.794  10.809  17.708  0.00  0.00    +0.000 A 
ATOM     19  F   UNL     1      -3.866  10.572  16.937  0.00  0.00    +0.000 F 
ATOM     20  C   UNL     1      -1.621  10.089  17.471  0.00  0.00    +0.000 A 
BRANCH  17  21
ATOM     21  O   UNL     1      -4.016  12.432  18.971  0.00  0.00    +0.000 OA
ATOM     22  H   UNL     1      -4.143  13.050  18.228  0.00  0.00    +0.000 HD
ENDBRANCH  17  21
ENDBRANCH   9  13
ENDBRANCH   3   7
BRANCH   1  24
ATOM     23  C   UNL     1       1.007   3.266  19.366  0.00  0.00    +0.000 C 
ATOM     24  C   UNL     1       2.554   3.126  19.383  0.00  0.00    +0.000 C 
ATOM     25  C   UNL     1       2.946   2.779  20.836  0.00  0.00    +0.000 C 
ATOM     26  C   UNL     1       2.885   1.920  18.477  0.00  0.00    +0.000 C 
ENDBRANCH   1  24
BRANCH   5  27
ATOM     27  C   UNL     1       6.872   5.740  18.005  0.00  0.00    +0.000 C 
ATOM     28  C   UNL     1       7.298   7.076  17.335  0.00  0.00    +0.000 C 
ATOM     29  C   UNL     1       7.593   5.679  19.370  0.00  0.00    +0.000 C 
ATOM     30  C   UNL     1       7.437   4.630  17.091  0.00  0.00    +0.000 C 
ENDBRANCH   5  27
BRANCH   6  31
ATOM     31  O   UNL     1       5.394   3.333  18.879  0.00  0.00    +0.000 OA
ATOM     32  H   UNL     1       5.960   3.209  18.102  0.00  0.00    +0.000 HD
ENDBRANCH   6  31
TORSDOF 6
ENDMDL
MODEL 2
REMARK VINA RESULT:      -9.3      1.071      1.263
REMARK  Name = 
REMARK  12 active torsions:
REMARK  status: ('A' for Active; 'I' for Inactive)
REMARK    1  A    between atoms: C_1  and  C_2
REMARK    2  A    between atoms: C_2  and  C_3
REMARK    3  A    between atoms: C_2  and  C_4
REMARK    4  A    between atoms: C_2  and  C_5
REMARK    5  A    between atoms: C_7  and  C_8
REMARK    6  A    between atoms: C_10  and  C_11
REMARK    7  A    between atoms: C_15  and  O_16
REMARK    8  A    between atoms: C_23  and  C_24
REMARK    9  A    between atoms: C_24  and  C_25
REMARK   10  A    between atoms: C_24  and  C_26
REMARK   11  A    between atoms: C_24  and  C_27
REMARK   12  A    between atoms: C_28  and  O_29
REMARK                            x       y       z     vdW  Elec       q    Type
REMARK                         _______ _______ _______ _____ _____    ______ ____
ROOT
ATOM      1  C   UNL     1       3.305   4.340  19.034  0.00  0.00    +0.000 A 
ATOM      2  C   UNL     1       2.559   5.527  18.904  0.00  0.00    +0.000 A 
ATOM      3  C   UNL     1       3.137   6.731  18.498  0.00  0.00    +0.000 A 
ATOM      4  C   UNL     1       4.501   6.756  18.198  0.00  0.00    +0.000 A 
ATOM      5  C   UNL     1       5.323   5.615  18.299  0.00  0.00    +0.000 A 
ATOM      6  C   UNL     1       4.685   4.422  18.721  0.00  0.00    +0.000 A 
ENDROOT
BRANCH   3   7
ATOM      7  C   UNL     1       2.343   7.960  18.425  0.00  0.00    +0.000 A 
ATOM      8  C   UNL     1       1.445   8.462  19.404  0.00  0.00    +0.000 A 
ATOM      9  C   UNL     1       0.947   9.651  18.904  0.00  0.00    +0.000 A 
ATOM     10  N   UNL     1       1.552   9.789  17.686  0.00  0.00    +0.000 N 
ATOM     11  N   UNL     1       2.406   8.795  17.378  0.00  0.00    +0.000 NA
ATOM     12  H   UNL     1       1.452  10.548  17.021  0.00  0.00    +0.000 HD
BRANCH   9  13
ATOM     13  C   UNL     1       0.014  10.607  19.493  0.00  0.00    +0.000 A 
ATOM     14  C   UNL     1       0.274  11.124  20.767  0.00  0.00    +0.000 A 
ATOM     15  C   UNL     1      -0.630  11.995  21.368  0.00  0.00    +0.000 A 
ATOM     16  F   UNL     1      -0.373  12.474  22.592  0.00  0.00    +0.000 F 
ATOM     17  C   UNL     1      -1.797  12.369  20.716  0.00  0.00    +0.000 A 
ATOM     18  C   UNL     1      -2.053  11.869  19.445  0.00  0.00    +0.000 A 
ATOM     19  F   UNL     1      -3.177  12.208  18.797  0.00  0.00    +0.000 F 
ATOM     20  C   UNL     1      -1.157  10.993  18.827  0.00  0.00    +0.000 A 
BRANCH  17  21
ATOM     21  O   UNL     1      -2.686  13.212  21.320  0.00  0.00    +0.000 OA
ATOM     22  H   UNL     1      -2.168  13.875  21.813  0.00  0.00    +0.000 HD
ENDBRANCH  17  21
ENDBRANCH   9  13
ENDBRANCH   3   7
BRANCH   1  24
ATOM     23  C   UNL     1       1.069   3.126  19.484  0.00  0.00    +0.000 C 
ATOM     24  C   UNL     1       2.619   3.029  19.502  0.00  0.00    +0.000 C 
ATOM     25  C   UNL     1       3.018   2.666  20.950  0.00  0.00    +0.000 C 
ATOM     26  C   UNL     1       2.985   1.849  18.576  0.00  0.00    +0.000 C 
ENDBRANCH   1  24
BRANCH   5  27
ATOM     27  C   UNL     1       6.844   5.740  18.029  0.00  0.00    +0.000 C 
ATOM     28  C   UNL     1       7.222   7.095  17.368  0.00  0.00    +0.000 C 
ATOM     29  C   UNL     1       7.634   5.659  19.354  0.00  0.00    +0.000 C 
ATOM     30  C   UNL     1       7.375   4.656  17.065  0.00  0.00    +0.000 C 
ENDBRANCH   5  27
BRANCH   6  31
ATOM     31  O   UNL     1       5.428   3.283  18.863  0.00  0.00    +0.000 OA
ATOM     32  H   UNL     1       5.755   3.284  19.775  0.00  0.00    +0.000 HD
ENDBRANCH   6  31
TORSDOF 6
ENDMDL
MODEL 3
REMARK VINA RESULT:      -9.3      0.491      1.808
REMARK  Name = 
REMARK  12 active torsions:
REMARK  status: ('A' for Active; 'I' for Inactive)
REMARK    1  A    between atoms: C_1  and  C_2
REMARK    2  A    between atoms: C_2  and  C_3
REMARK    3  A    between atoms: C_2  and  C_4
REMARK    4  A    between atoms: C_2  and  C_5
REMARK    5  A    between atoms: C_7  and  C_8
REMARK    6  A    between atoms: C_10  and  C_11
REMARK    7  A    between atoms: C_15  and  O_16
REMARK    8  A    between atoms: C_23  and  C_24
REMARK    9  A    between atoms: C_24  and  C_25
REMARK   10  A    between atoms: C_24  and  C_26
REMARK   11  A    between atoms: C_24  and  C_27
REMARK   12  A    between atoms: C_28  and  O_29
REMARK                            x       y       z     vdW  Elec       q    Type
REMARK                         _______ _______ _______ _____ _____    ______ ____
ROOT
ATOM      1  C   UNL     1       3.263   4.481  18.916  0.00  0.00    +0.000 A 
ATOM      2  C   UNL     1       2.537   5.676  18.739  0.00  0.00    +0.000 A 
ATOM      3  C   UNL     1       3.142   6.859  18.309  0.00  0.00    +0.000 A 
ATOM      4  C   UNL     1       4.510   6.854  18.032  0.00  0.00    +0.000 A 
ATOM      5  C   UNL     1       5.313   5.704  18.179  0.00  0.00    +0.000 A 
ATOM      6  C   UNL     1       4.649   4.533  18.625  0.00  0.00    +0.000 A 
ENDROOT
BRANCH   3   7
ATOM      7  C   UNL     1       2.369   8.097  18.187  0.00  0.00    +0.000 A 
ATOM      8  C   UNL     1       1.137   8.407  18.822  0.00  0.00    +0.000 A 
ATOM      9  C   UNL     1       0.804   9.688  18.423  0.00  0.00    +0.000 A 
ATOM     10  N   UNL     1       1.821  10.062  17.591  0.00  0.00    +0.000 N 
ATOM     11  N   UNL     1       2.782   9.132  17.441  0.00  0.00    +0.000 NA
ATOM     12  H   UNL     1       1.941  10.947  17.109  0.00  0.00    +0.000 HD
BRANCH   9  13
ATOM     13  C   UNL     1      -0.337  10.525  18.787  0.00  0.00    +0.000 A 
ATOM     14  C   UNL     1      -1.457  10.558  17.950  0.00  0.00    +0.000 A 
ATOM     15  C   UNL     1      -2.532  11.390  18.251  0.00  0.00    +0.000 A 
ATOM     16  F   UNL     1      -3.594  11.420  17.435  0.00  0.00    +0.000 F 
ATOM     17  C   UNL     1      -2.515  12.191  19.384  0.00  0.00    +0.000 A 
ATOM     18  C   UNL     1      -1.410  12.150  20.226  0.00  0.00    +0.000 A 
ATOM     19  F   UNL     1      -1.365  12.921  21.323  0.00  0.00    +0.000 F 
ATOM     20  C   UNL     1      -0.323  11.322  19.939  0.00  0.00    +0.000 A 
BRANCH  17  21
ATOM     21  O   UNL     1      -3.568  13.016  19.663  0.00  0.00    +0.000 OA
ATOM     22  H   UNL     1      -3.400  13.864  19.212  0.00  0.00    +0.000 HD
ENDBRANCH  17  21
ENDBRANCH   9  13
ENDBRANCH   3   7
BRANCH   1  24
ATOM     23  C   UNL     1       3.206   2.597  20.682  0.00  0.00    +0.000 C 
ATOM     24  C   UNL     1       2.548   3.196  19.409  0.00  0.00    +0.000 C 
ATOM     25  C   UNL     1       2.578   2.084  18.337  0.00  0.00    +0.000 C 
ATOM     26  C   UNL     1       1.078   3.485  19.783  0.00  0.00    +0.000 C 
ENDBRANCH   1  24
BRANCH   5  27
ATOM     27  C   UNL     1       6.840   5.797  17.932  0.00  0.00    +0.000 C 
ATOM     28  C   UNL     1       7.260   7.157  17.306  0.00  0.00    +0.000 C 
ATOM     29  C   UNL     1       7.609   5.668  19.266  0.00  0.00    +0.000 C 
ATOM     30  C   UNL     1       7.357   4.722  16.952  0.00  0.00    +0.000 C 
ENDBRANCH   5  27
BRANCH   6  31
ATOM     31  O   UNL     1       5.370   3.387  18.812  0.00  0.00    +0.000 OA
ATOM     32  H   UNL     1       4.998   2.730  18.204  0.00  0.00    +0.000 HD
ENDBRANCH   6  31
TORSDOF 6
ENDMDL
MODEL 4
REMARK VINA RESULT:      -9.3      0.536      1.784
REMARK  Name = 
REMARK  12 active torsions:
REMARK  status: ('A' for Active; 'I' for Inactive)
REMARK    1  A    between atoms: C_1  and  C_2
REMARK    2  A    between atoms: C_2  and  C_3
REMARK    3  A    between atoms: C_2  and  C_4
REMARK    4  A    between atoms: C_2  and  C_5
REMARK    5  A    between atoms: C_7  and  C_8
REMARK    6  A    between atoms: C_10  and  C_11
REMARK    7  A    between atoms: C_15  and  O_16
REMARK    8  A    between atoms: C_23  and  C_24
REMARK    9  A    between atoms: C_24  and  C_25
REMARK   10  A    between atoms: C_24  and  C_26
REMARK   11  A    between atoms: C_24  and  C_27
REMARK   12  A    between atoms: C_28  and  O_29
REMARK                            x       y       z     vdW  Elec       q    Type
REMARK                         _______ _______ _______ _____ _____    ______ ____
ROOT
ATOM      1  C   UNL     1       3.257   4.490  18.883  0.00  0.00    +0.000 A 
ATOM      2  C   UNL     1       2.528   5.683  18.711  0.00  0.00    +0.000 A 
ATOM      3  C   UNL     1       3.131   6.873  18.298  0.00  0.00    +0.000 A 
ATOM      4  C   UNL     1       4.502   6.877  18.035  0.00  0.00    +0.000 A 
ATOM      5  C   UNL     1       5.308   5.729  18.178  0.00  0.00    +0.000 A 
ATOM      6  C   UNL     1       4.646   4.551  18.605  0.00  0.00    +0.000 A 
ENDROOT
BRANCH   3   7
ATOM      7  C   UNL     1       2.353   8.109  18.182  0.00  0.00    +0.000 A 
ATOM      8  C   UNL     1       1.135   8.423  18.839  0.00  0.00    +0.000 A 
ATOM      9  C   UNL     1       0.791   9.699  18.436  0.00  0.00    +0.000 A 
ATOM     10  N   UNL     1       1.789  10.067  17.579  0.00  0.00    +0.000 N 
ATOM     11  N   UNL     1       2.749   9.137  17.417  0.00  0.00    +0.000 NA
ATOM     12  H   UNL     1       1.898  10.948  17.087  0.00  0.00    +0.000 HD
BRANCH   9  13
ATOM     13  C   UNL     1      -0.343  10.537  18.816  0.00  0.00    +0.000 A 
ATOM     14  C   UNL     1      -1.427  10.664  17.939  0.00  0.00    +0.000 A 
ATOM     15  C   UNL     1      -2.493  11.500  18.259  0.00  0.00    +0.000 A 
ATOM     16  F   UNL     1      -3.518  11.620  17.406  0.00  0.00    +0.000 F 
ATOM     17  C   UNL     1      -2.503  12.213  19.449  0.00  0.00    +0.000 A 
ATOM     18  C   UNL     1      -1.437  12.080  20.329  0.00  0.00    +0.000 A 
ATOM     19  F   UNL     1      -1.419  12.765  21.482  0.00  0.00    +0.000 F 
ATOM     20  C   UNL     1      -0.358  11.246  20.024  0.00  0.00    +0.000 A 
BRANCH  17  21
ATOM     21  O   UNL     1      -3.547  13.043  19.747  0.00  0.00    +0.000 OA
ATOM     22  H   UNL     1      -3.628  13.071  20.718  0.00  0.00    +0.000 HD
ENDBRANCH  17  21
ENDBRANCH   9  13
ENDBRANCH   3   7
BRANCH   1  24
ATOM     23  C   UNL     1       1.054   3.436  19.725  0.00  0.00    +0.000 C 
ATOM     24  C   UNL     1       2.544   3.196  19.356  0.00  0.00    +0.000 C 
ATOM     25  C   UNL     1       3.216   2.606  20.615  0.00  0.00    +0.000 C 
ATOM     26  C   UNL     1       2.542   2.124  18.245  0.00  0.00    +0.000 C 
ENDBRANCH   1  24
BRANCH   5  27
ATOM     27  C   UNL     1       6.838   5.832  17.947  0.00  0.00    +0.000 C 
ATOM     28  C   UNL     1       7.369   4.736  16.983  0.00  0.00    +0.000 C 
ATOM     29  C   UNL     1       7.195   7.194  17.310  0.00  0.00    +0.000 C 
ATOM     30  C   UNL     1       7.655   5.660  19.247  0.00  0.00    +0.000 C 
ENDBRANCH   5  27
BRANCH   6  31
ATOM     31  O   UNL     1       5.371   3.407  18.788  0.00  0.00    +0.000 OA
ATOM     32  H   UNL     1       5.362   3.229  19.741  0.00  0.00    +0.000 HD
ENDBRANCH   6  31
TORSDOF 6
ENDMDL
MODEL 5
REMARK VINA RESULT:      -9.3      1.082      1.958
REMARK  Name = 
REMARK  12 active torsions:
REMARK  status: ('A' for Active; 'I' for Inactive)
REMARK    1  A    between atoms: C_1  and  C_2
REMARK    2  A    between atoms: C_2  and  C_3
REMARK    3  A    between atoms: C_2  and  C_4
REMARK    4  A    between atoms: C_2  and  C_5
REMARK    5  A    between atoms: C_7  and  C_8
REMARK    6  A    between atoms: C_10  and  C_11
REMARK    7  A    between atoms: C_15  and  O_16
REMARK    8  A    between atoms: C_23  and  C_24
REMARK    9  A    between atoms: C_24  and  C_25
REMARK   10  A    between atoms: C_24  and  C_26
REMARK   11  A    between atoms: C_24  and  C_27
REMARK   12  A    between atoms: C_28  and  O_29
REMARK                            x       y       z     vdW  Elec       q    Type
REMARK                         _______ _______ _______ _____ _____    ______ ____
ROOT
ATOM      1  C   UNL     1       3.261   4.357  19.081  0.00  0.00    +0.000 A 
ATOM      2  C   UNL     1       2.528   5.552  18.944  0.00  0.00    +0.000 A 
ATOM      3  C   UNL     1       3.119   6.746  18.526  0.00  0.00    +0.000 A 
ATOM      4  C   UNL     1       4.481   6.752  18.221  0.00  0.00    +0.000 A 
ATOM      5  C   UNL     1       5.291   5.603  18.328  0.00  0.00    +0.000 A 
ATOM      6  C   UNL     1       4.641   4.420  18.762  0.00  0.00    +0.000 A 
ENDROOT
BRANCH   3   7
ATOM      7  C   UNL     1       2.338   7.983  18.446  0.00  0.00    +0.000 A 
ATOM      8  C   UNL     1       1.490   8.530  19.444  0.00  0.00    +0.000 A 
ATOM      9  C   UNL     1       0.988   9.709  18.927  0.00  0.00    +0.000 A 
ATOM     10  N   UNL     1       1.541   9.798  17.680  0.00  0.00    +0.000 N 
ATOM     11  N   UNL     1       2.367   8.782  17.369  0.00  0.00    +0.000 NA
ATOM     12  H   UNL     1       1.422  10.537  16.995  0.00  0.00    +0.000 HD
BRANCH   9  13
ATOM     13  C   UNL     1       0.093  10.698  19.523  0.00  0.00    +0.000 A 
ATOM     14  C   UNL     1      -1.165  10.918  18.951  0.00  0.00    +0.000 A 
ATOM     15  C   UNL     1      -2.010  11.893  19.471  0.00  0.00    +0.000 A 
ATOM     16  F   UNL     1      -3.207  12.101  18.907  0.00  0.00    +0.000 F 
ATOM     17  C   UNL     1      -1.626  12.656  20.565  0.00  0.00    +0.000 A 
ATOM     18  C   UNL     1      -0.384  12.431  21.146  0.00  0.00    +0.000 A 
ATOM     19  F   UNL     1       0.014  13.160  22.198  0.00  0.00    +0.000 F 
ATOM     20  C   UNL     1       0.477  11.457  20.636  0.00  0.00    +0.000 A 
BRANCH  17  21
ATOM     21  O   UNL     1      -2.457  13.621  21.060  0.00  0.00    +0.000 OA
ATOM     22  H   UNL     1      -3.340  13.221  21.161  0.00  0.00    +0.000 HD
ENDBRANCH  17  21
ENDBRANCH   9  13
ENDBRANCH   3   7
BRANCH   1  24
ATOM     23  C   UNL     1       1.022   3.220  19.688  0.00  0.00    +0.000 C 
ATOM     24  C   UNL     1       2.562   3.058  19.562  0.00  0.00    +0.000 C 
ATOM     25  C   UNL     1       3.071   2.622  20.954  0.00  0.00    +0.000 C 
ATOM     26  C   UNL     1       2.790   1.902  18.565  0.00  0.00    +0.000 C 
ENDBRANCH   1  24
BRANCH   5  27
ATOM     27  C   UNL     1       6.812   5.708  18.051  0.00  0.00    +0.000 C 
ATOM     28  C   UNL     1       7.204   7.054  17.379  0.00  0.00    +0.000 C 
ATOM     29  C   UNL     1       7.606   5.627  19.374  0.00  0.00    +0.000 C 
ATOM     30  C   UNL     1       7.327   4.611  17.093  0.00  0.00    +0.000 C 
ENDBRANCH   5  27
BRANCH   6  31
ATOM     31  O   UNL     1       5.371   3.274  18.910  0.00  0.00    +0.000 OA
ATOM     32  H   UNL     1       6.095   3.329  18.269  0.00  0.00    +0.000 HD
ENDBRANCH   6  31
TORSDOF 6
ENDMDL
MODEL 6
REMARK VINA RESULT:      -9.2      0.365      1.926
REMARK  Name = 
REMARK  12 active torsions:
REMARK  status: ('A' for Active; 'I' for Inactive)
REMARK    1  A    between atoms: C_1  and  C_2
REMARK    2  A    between atoms: C_2  and  C_3
REMARK    3  A    between atoms: C_2  and  C_4
REMARK    4  A    between atoms: C_2  and  C_5
REMARK    5  A    between atoms: C_7  and  C_8
REMARK    6  A    between atoms: C_10  and  C_11
REMARK    7  A    between atoms: C_15  and  O_16
REMARK    8  A    between atoms: C_23  and  C_24
REMARK    9  A    between atoms: C_24  and  C_25
REMARK   10  A    between atoms: C_24  and  C_26
REMARK   11  A    between atoms: C_24  and  C_27
REMARK   12  A    between atoms: C_28  and  O_29
REMARK                            x       y       z     vdW  Elec       q    Type
REMARK                         _______ _______ _______ _____ _____    ______ ____
ROOT
ATOM      1  C   UNL     1       3.346   4.440  18.823  0.00  0.00    +0.000 A 
ATOM      2  C   UNL     1       2.607   5.626  18.647  0.00  0.00    +0.000 A 
ATOM      3  C   UNL     1       3.203   6.824  18.249  0.00  0.00    +0.000 A 
ATOM      4  C   UNL     1       4.578   6.844  18.003  0.00  0.00    +0.000 A 
ATOM      5  C   UNL     1       5.394   5.704  18.152  0.00  0.00    +0.000 A 
ATOM      6  C   UNL     1       4.738   4.516  18.564  0.00  0.00    +0.000 A 
ENDROOT
BRANCH   3   7
ATOM      7  C   UNL     1       2.414   8.053  18.128  0.00  0.00    +0.000 A 
ATOM      8  C   UNL     1       1.148   8.321  18.711  0.00  0.00    +0.000 A 
ATOM      9  C   UNL     1       0.811   9.609  18.336  0.00  0.00    +0.000 A 
ATOM     10  N   UNL     1       1.860  10.026  17.566  0.00  0.00    +0.000 N 
ATOM     11  N   UNL     1       2.844   9.117  17.435  0.00  0.00    +0.000 NA
ATOM     12  H   UNL     1       1.987  10.928  17.119  0.00  0.00    +0.000 HD
BRANCH   9  13
ATOM     13  C   UNL     1      -0.361  10.413  18.670  0.00  0.00    +0.000 A 
ATOM     14  C   UNL     1      -1.461  10.416  17.804  0.00  0.00    +0.000 A 
ATOM     15  C   UNL     1      -2.565  11.217  18.077  0.00  0.00    +0.000 A 
ATOM     16  F   UNL     1      -3.607  11.218  17.234  0.00  0.00    +0.000 F 
ATOM     17  C   UNL     1      -2.599  12.020  19.209  0.00  0.00    +0.000 A 
ATOM     18  C   UNL     1      -1.515  12.010  20.078  0.00  0.00    +0.000 A 
ATOM     19  F   UNL     1      -1.519  12.783  21.175  0.00  0.00    +0.000 F 
ATOM     20  C   UNL     1      -0.398  11.212  19.820  0.00  0.00    +0.000 A 
BRANCH  17  21
ATOM     21  O   UNL     1      -3.681  12.815  19.459  0.00  0.00    +0.000 OA
ATOM     22  H   UNL     1      -3.560  13.639  18.951  0.00  0.00    +0.000 HD
ENDBRANCH  17  21
ENDBRANCH   9  13
ENDBRANCH   3   7
BRANCH   1  24
ATOM     23  C   UNL     1       2.924   1.939  18.331  0.00  0.00    +0.000 C 
ATOM     24  C   UNL     1       2.640   3.136  19.280  0.00  0.00    +0.000 C 
ATOM     25  C   UNL     1       1.105   3.307  19.321  0.00  0.00    +0.000 C 
ATOM     26  C   UNL     1       3.129   2.699  20.678  0.00  0.00    +0.000 C 
ENDBRANCH   1  24
BRANCH   5  27
ATOM     27  C   UNL     1       6.925   5.824  17.942  0.00  0.00    +0.000 C 
ATOM     28  C   UNL     1       7.721   5.675  19.268  0.00  0.00    +0.000 C 
ATOM     29  C   UNL     1       7.427   4.710  16.997  0.00  0.00    +0.000 C 
ATOM     30  C   UNL     1       7.347   7.194  17.367  0.00  0.00    +0.000 C 
ENDBRANCH   5  27
BRANCH   6  31
ATOM     31  O   UNL     1       5.472   3.379  18.750  0.00  0.00    +0.000 OA
ATOM     32  H   UNL     1       5.480   2.919  17.897  0.00  0.00    +0.000 HD
ENDBRANCH   6  31
TORSDOF 6
ENDMDL
MODEL 7
REMARK VINA RESULT:      -9.2      0.177      1.171
REMARK  Name = 
REMARK  12 active torsions:
REMARK  status: ('A' for Active; 'I' for Inactive)
REMARK    1  A    between atoms: C_1  and  C_2
REMARK    2  A    between atoms: C_2  and  C_3
REMARK    3  A    between atoms: C_2  and  C_4
REMARK    4  A    between atoms: C_2  and  C_5
REMARK    5  A    between atoms: C_7  and  C_8
REMARK    6  A    between atoms: C_10  and  C_11
REMARK    7  A    between atoms: C_15  and  O_16
REMARK    8  A    between atoms: C_23  and  C_24
REMARK    9  A    between atoms: C_24  and  C_25
REMARK   10  A    between atoms: C_24  and  C_26
REMARK   11  A    between atoms: C_24  and  C_27
REMARK   12  A    between atoms: C_28  and  O_29
REMARK                            x       y       z     vdW  Elec       q    Type
REMARK                         _______ _______ _______ _____ _____    ______ ____
ROOT
ATOM      1  C   UNL     1       3.321   4.447  18.705  0.00  0.00    +0.000 A 
ATOM      2  C   UNL     1       2.579   5.627  18.506  0.00  0.00    +0.000 A 
ATOM      3  C   UNL     1       3.179   6.831  18.132  0.00  0.00    +0.000 A 
ATOM      4  C   UNL     1       4.561   6.862  17.934  0.00  0.00    +0.000 A 
ATOM      5  C   UNL     1       5.381   5.729  18.109  0.00  0.00    +0.000 A 
ATOM      6  C   UNL     1       4.721   4.535  18.496  0.00  0.00    +0.000 A 
ENDROOT
BRANCH   3   7
ATOM      7  C   UNL     1       2.385   8.053  17.986  0.00  0.00    +0.000 A 
ATOM      8  C   UNL     1       1.015   8.232  18.310  0.00  0.00    +0.000 A 
ATOM      9  C   UNL     1       0.713   9.549  18.022  0.00  0.00    +0.000 A 
ATOM     10  N   UNL     1       1.883  10.072  17.548  0.00  0.00    +0.000 N 
ATOM     11  N   UNL     1       2.909   9.200  17.527  0.00  0.00    +0.000 NA
ATOM     12  H   UNL     1       2.066  11.023  17.245  0.00  0.00    +0.000 HD
BRANCH   9  13
ATOM     13  C   UNL     1      -0.534  10.291  18.186  0.00  0.00    +0.000 A 
ATOM     14  C   UNL     1      -0.628  11.263  19.189  0.00  0.00    +0.000 A 
ATOM     15  C   UNL     1      -1.824  11.943  19.396  0.00  0.00    +0.000 A 
ATOM     16  F   UNL     1      -1.903  12.863  20.366  0.00  0.00    +0.000 F 
ATOM     17  C   UNL     1      -2.938  11.675  18.613  0.00  0.00    +0.000 A 
ATOM     18  C   UNL     1      -2.846  10.721  17.607  0.00  0.00    +0.000 A 
ATOM     19  F   UNL     1      -3.911  10.438  16.842  0.00  0.00    +0.000 F 
ATOM     20  C   UNL     1      -1.653  10.029  17.385  0.00  0.00    +0.000 A 
BRANCH  17  21
ATOM     21  O   UNL     1      -4.113  12.337  18.835  0.00  0.00    +0.000 OA
ATOM     22  H   UNL     1      -4.818  11.837  18.383  0.00  0.00    +0.000 HD
ENDBRANCH  17  21
ENDBRANCH   9  13
ENDBRANCH   3   7
BRANCH   1  24
ATOM     23  C   UNL     1       3.103   1.899  18.334  0.00  0.00    +0.000 C 
ATOM     24  C   UNL     1       2.610   3.136  19.134  0.00  0.00    +0.000 C 
ATOM     25  C   UNL     1       1.084   3.220  18.912  0.00  0.00    +0.000 C 
ATOM     26  C   UNL     1       2.879   2.819  20.621  0.00  0.00    +0.000 C 
ENDBRANCH   1  24
BRANCH   5  27
ATOM     27  C   UNL     1       6.917   5.862  17.953  0.00  0.00    +0.000 C 
ATOM     28  C   UNL     1       7.668   5.713  19.306  0.00  0.00    +0.000 C 
ATOM     29  C   UNL     1       7.461   4.756  17.021  0.00  0.00    +0.000 C 
ATOM     30  C   UNL     1       7.349   7.238  17.400  0.00  0.00    +0.000 C 
ENDBRANCH   5  27
BRANCH   6  31
ATOM     31  O   UNL     1       5.457   3.403  18.705  0.00  0.00    +0.000 OA
ATOM     32  H   UNL     1       5.197   2.778  18.012  0.00  0.00    +0.000 HD
ENDBRANCH   6  31
TORSDOF 6
ENDMDL
MODEL 8
REMARK VINA RESULT:      -9.2      1.068      1.702
REMARK  Name = 
REMARK  12 active torsions:
REMARK  status: ('A' for Active; 'I' for Inactive)
REMARK    1  A    between atoms: C_1  and  C_2
REMARK    2  A    between atoms: C_2  and  C_3
REMARK    3  A    between atoms: C_2  and  C_4
REMARK    4  A    between atoms: C_2  and  C_5
REMARK    5  A    between atoms: C_7  and  C_8
REMARK    6  A    between atoms: C_10  and  C_11
REMARK    7  A    between atoms: C_15  and  O_16
REMARK    8  A    between atoms: C_23  and  C_24
REMARK    9  A    between atoms: C_24  and  C_25
REMARK   10  A    between atoms: C_24  and  C_26
REMARK   11  A    between atoms: C_24  and  C_27
REMARK   12  A    between atoms: C_28  and  O_29
REMARK                            x       y       z     vdW  Elec       q    Type
REMARK                         _______ _______ _______ _____ _____    ______ ____
ROOT
ATOM      1  C   UNL     1       3.303   4.398  19.071  0.00  0.00    +0.000 A 
ATOM      2  C   UNL     1       2.554   5.583  18.933  0.00  0.00    +0.000 A 
ATOM      3  C   UNL     1       3.122   6.777  18.485  0.00  0.00    +0.000 A 
ATOM      4  C   UNL     1       4.477   6.793  18.148  0.00  0.00    +0.000 A 
ATOM      5  C   UNL     1       5.301   5.654  18.254  0.00  0.00    +0.000 A 
ATOM      6  C   UNL     1       4.674   4.471  18.720  0.00  0.00    +0.000 A 
ENDROOT
BRANCH   3   7
ATOM      7  C   UNL     1       2.327   8.005  18.404  0.00  0.00    +0.000 A 
ATOM      8  C   UNL     1       1.431   8.514  19.381  0.00  0.00    +0.000 A 
ATOM      9  C   UNL     1       0.932   9.699  18.873  0.00  0.00    +0.000 A 
ATOM     10  N   UNL     1       1.534   9.828  17.653  0.00  0.00    +0.000 N 
ATOM     11  N   UNL     1       2.388   8.832  17.350  0.00  0.00    +0.000 NA
ATOM     12  H   UNL     1       1.432  10.583  16.982  0.00  0.00    +0.000 HD
BRANCH   9  13
ATOM     13  C   UNL     1      -0.001  10.659  19.457  0.00  0.00    +0.000 A 
ATOM     14  C   UNL     1       0.300  11.244  20.692  0.00  0.00    +0.000 A 
ATOM     15  C   UNL     1      -0.600  12.120  21.290  0.00  0.00    +0.000 A 
ATOM     16  F   UNL     1      -0.304  12.665  22.477  0.00  0.00    +0.000 F 
ATOM     17  C   UNL     1      -1.804  12.432  20.673  0.00  0.00    +0.000 A 
ATOM     18  C   UNL     1      -2.101  11.865  19.441  0.00  0.00    +0.000 A 
ATOM     19  F   UNL     1      -3.261  12.144  18.828  0.00  0.00    +0.000 F 
ATOM     20  C   UNL     1      -1.209  10.983  18.826  0.00  0.00    +0.000 A 
BRANCH  17  21
ATOM     21  O   UNL     1      -2.688  13.282  21.276  0.00  0.00    +0.000 OA
ATOM     22  H   UNL     1      -3.289  12.738  21.818  0.00  0.00    +0.000 HD
ENDBRANCH  17  21
ENDBRANCH   9  13
ENDBRANCH   3   7
BRANCH   1  24
ATOM     23  C   UNL     1       3.299   2.550  20.876  0.00  0.00    +0.000 C 
ATOM     24  C   UNL     1       2.628   3.100  19.587  0.00  0.00    +0.000 C 
ATOM     25  C   UNL     1       2.702   1.968  18.539  0.00  0.00    +0.000 C 
ATOM     26  C   UNL     1       1.147   3.347  19.947  0.00  0.00    +0.000 C 
ENDBRANCH   1  24
BRANCH   5  27
ATOM     27  C   UNL     1       6.815   5.771  17.941  0.00  0.00    +0.000 C 
ATOM     28  C   UNL     1       7.305   4.676  16.953  0.00  0.00    +0.000 C 
ATOM     29  C   UNL     1       7.124   7.133  17.282  0.00  0.00    +0.000 C 
ATOM     30  C   UNL     1       7.702   5.611  19.196  0.00  0.00    +0.000 C 
ENDBRANCH   5  27
BRANCH   6  31
ATOM     31  O   UNL     1       5.419   3.335  18.869  0.00  0.00    +0.000 OA
ATOM     32  H   UNL     1       4.907   2.620  18.462  0.00  0.00    +0.000 HD
ENDBRANCH   6  31
TORSDOF 6
ENDMDL
MODEL 9
REMARK VINA RESULT:      -9.2      0.593      3.784
REMARK  Name = 
REMARK  12 active torsions:
REMARK  status: ('A' for Active; 'I' for Inactive)
REMARK    1  A    between atoms: C_1  and  C_2
REMARK    2  A    between atoms: C_2  and  C_3
REMARK    3  A    between atoms: C_2  and  C_4
REMARK    4  A    between atoms: C_2  and  C_5
REMARK    5  A    between atoms: C_7  and  C_8
REMARK    6  A    between atoms: C_10  and  C_11
REMARK    7  A    between atoms: C_15  and  O_16
REMARK    8  A    between atoms: C_23  and  C_24
REMARK    9  A    between atoms: C_24  and  C_25
REMARK   10  A    between atoms: C_24  and  C_26
REMARK   11  A    between atoms: C_24  and  C_27
REMARK   12  A    between atoms: C_28  and  O_29
REMARK                            x       y       z     vdW  Elec       q    Type
REMARK                         _______ _______ _______ _____ _____    ______ ____
ROOT
ATOM      1  C   UNL     1       5.277   5.728  18.254  0.00  0.00    +0.000 A 
ATOM      2  C   UNL     1       4.483   6.887  18.145  0.00  0.00    +0.000 A 
ATOM      3  C   UNL     1       3.123   6.892  18.461  0.00  0.00    +0.000 A 
ATOM      4  C   UNL     1       2.533   5.710  18.913  0.00  0.00    +0.000 A 
ATOM      5  C   UNL     1       3.251   4.505  19.054  0.00  0.00    +0.000 A 
ATOM      6  C   UNL     1       4.626   4.555  18.714  0.00  0.00    +0.000 A 
ENDROOT
BRANCH   3   7
ATOM      7  C   UNL     1       2.315   8.101  18.284  0.00  0.00    +0.000 A 
ATOM      8  C   UNL     1       1.148   8.467  19.005  0.00  0.00    +0.000 A 
ATOM      9  C   UNL     1       0.749   9.692  18.504  0.00  0.00    +0.000 A 
ATOM     10  N   UNL     1       1.667   9.981  17.534  0.00  0.00    +0.000 N 
ATOM     11  N   UNL     1       2.628   9.049  17.389  0.00  0.00    +0.000 NA
ATOM     12  H   UNL     1       1.719  10.808  16.948  0.00  0.00    +0.000 HD
BRANCH   9  13
ATOM     13  C   UNL     1      -0.366  10.553  18.890  0.00  0.00    +0.000 A 
ATOM     14  C   UNL     1      -1.452  10.701  18.019  0.00  0.00    +0.000 A 
ATOM     15  C   UNL     1      -2.499  11.558  18.344  0.00  0.00    +0.000 A 
ATOM     16  F   UNL     1      -3.526  11.699  17.496  0.00  0.00    +0.000 F 
ATOM     17  C   UNL     1      -2.489  12.272  19.534  0.00  0.00    +0.000 A 
ATOM     18  C   UNL     1      -1.421  12.117  20.409  0.00  0.00    +0.000 A 
ATOM     19  F   UNL     1      -1.383  12.802  21.561  0.00  0.00    +0.000 F 
ATOM     20  C   UNL     1      -0.361  11.262  20.098  0.00  0.00    +0.000 A 
BRANCH  17  21
ATOM     21  O   UNL     1      -3.514  13.123  19.838  0.00  0.00    +0.000 OA
ATOM     22  H   UNL     1      -3.653  13.698  19.063  0.00  0.00    +0.000 HD
ENDBRANCH  17  21
ENDBRANCH   9  13
ENDBRANCH   3   7
BRANCH   1  24
ATOM     23  C   UNL     1       7.191   7.105  17.200  0.00  0.00    +0.000 C 
ATOM     24  C   UNL     1       6.782   5.769  17.878  0.00  0.00    +0.000 C 
ATOM     25  C   UNL     1       7.150   4.644  16.885  0.00  0.00    +0.000 C 
ATOM     26  C   UNL     1       7.672   5.635  19.132  0.00  0.00    +0.000 C 
ENDBRANCH   1  24
BRANCH   5  27
ATOM     27  C   UNL     1       2.507   3.215  19.483  0.00  0.00    +0.000 C 
ATOM     28  C   UNL     1       3.137   2.555  20.741  0.00  0.00    +0.000 C 
ATOM     29  C   UNL     1       1.038   3.533  19.838  0.00  0.00    +0.000 C 
ATOM     30  C   UNL     1       2.531   2.118  18.395  0.00  0.00    +0.000 C 
ENDBRANCH   5  27
BRANCH   6  31
ATOM     31  O   UNL     1       5.378   3.418  18.805  0.00  0.00    +0.000 OA
ATOM     32  H   UNL     1       5.034   2.811  18.132  0.00  0.00    +0.000 HD
ENDBRANCH   6  31
TORSDOF 6
ENDMDL
