MODEL 1
REMARK VINA RESULT:      -6.0      0.000      0.000
REMARK  Name = 
REMARK  12 active torsions:
REMARK  status: ('A' for Active; 'I' for Inactive)
REMARK    1  A    between atoms: C_1  and  C_2
REMARK    2  A    between atoms: C_2  and  C_3
REMARK    3  A    between atoms: C_3  and  S_4
REMARK    4  A    between atoms: S_4  and  C_7
REMARK    5  A    between atoms: C_8  and  S_9
REMARK    6  A    between atoms: S_9  and  C_12
REMARK    7  A    between atoms: C_12  and  C_13
REMARK    8  A    between atoms: C_13  and  C_14
REMARK    9  A    between atoms: C_17  and  C_18
REMARK   10  A    between atoms: C_18  and  C_19
REMARK   11  A    between atoms: C_23  and  C_24
REMARK   12  A    between atoms: C_24  and  C_26
REMARK                            x       y       z     vdW  Elec       q    Type
REMARK                         _______ _______ _______ _____ _____    ______ ____
ROOT
ATOM      1  C   UNL     1      -1.588  12.930  21.084  0.00  0.00    +0.000 A 
ATOM      2  C   UNL     1      -2.778  12.671  20.317  0.00  0.00    +0.000 A 
ATOM      3  C   UNL     1      -2.400  11.856  19.251  0.00  0.00    +0.000 A 
ATOM      4  C   UNL     1      -3.090  11.225  18.158  0.00  0.00    +0.000 A 
ATOM      5  C   UNL     1      -2.453  10.367  17.330  0.00  0.00    +0.000 A 
ATOM      6  C   UNL     1      -1.058  10.028  17.566  0.00  0.00    +0.000 A 
ATOM      7  C   UNL     1      -0.403  10.620  18.574  0.00  0.00    +0.000 A 
ATOM      8  N   UNL     1      -1.041  11.570  19.382  0.00  0.00    +0.000 N 
ATOM      9  C   UNL     1      -0.506  12.338  20.410  0.00  0.00    +0.000 A 
ENDROOT
BRANCH   1  10
ATOM     10  S   UNL     1      -1.427  13.906  22.535  0.00  0.00    +0.000 S 
ATOM     11  O   UNL     1      -0.107  13.636  23.054  0.00  0.00    +0.000 OA
ATOM     12  O   UNL     1      -2.594  13.534  23.307  0.00  0.00    +0.000 OA
BRANCH  10  13
ATOM     13  C   UNL     1      -1.464  15.613  22.037  0.00  0.00    +0.000 C 
BRANCH  13  15
ATOM     14  C   UNL     1       0.188  17.087  20.882  0.00  0.00    +0.000 C 
ATOM     15  C   UNL     1      -0.080  16.245  22.117  0.00  0.00    +0.000 C 
ENDBRANCH  13  15
ENDBRANCH  10  13
ENDBRANCH   1  10
BRANCH   2  16
ATOM     16  S   UNL     1      -4.413  13.157  20.703  0.00  0.00    +0.000 S 
ATOM     17  O   UNL     1      -4.766  12.395  21.887  0.00  0.00    +0.000 OA
ATOM     18  O   UNL     1      -4.331  14.599  20.774  0.00  0.00    +0.000 OA
BRANCH  16  19
ATOM     19  C   UNL     1      -5.477  12.571  19.388  0.00  0.00    +0.000 C 
BRANCH  19  20
ATOM     20  C   UNL     1      -6.439  11.497  19.894  0.00  0.00    +0.000 C 
ATOM     21  C   UNL     1      -6.657  10.413  18.849  0.00  0.00    +0.000 C 
ENDBRANCH  19  20
ENDBRANCH  16  19
ENDBRANCH   2  16
BRANCH   5  22
ATOM     22  C   UNL     1      -3.164   9.637  16.211  0.00  0.00    +0.000 C 
ATOM     23  C   UNL     1      -3.242  10.427  14.907  0.00  0.00    +0.000 C 
ENDBRANCH   5  22
BRANCH   9  24
ATOM     24  C   UNL     1       0.907  12.415  20.767  0.00  0.00    +0.000 C 
ATOM     25  O   UNL     1       1.449  11.576  21.481  0.00  0.00    +0.000 OA
BRANCH  24  26
ATOM     26  C   UNL     1       1.820  13.485  20.286  0.00  0.00    +0.000 A 
ATOM     27  C   UNL     1       1.589  14.010  19.000  0.00  0.00    +0.000 A 
ATOM     28  C   UNL     1       2.414  15.009  18.485  0.00  0.00    +0.000 A 
ATOM     29  C   UNL     1       3.473  15.486  19.252  0.00  0.00    +0.000 A 
ATOM     30 CL   UNL     1       4.499  16.710  18.618  0.00  0.00    +0.000 Cl
ATOM     31  C   UNL     1       3.713  14.971  20.528  0.00  0.00    +0.000 A 
ATOM     32  C   UNL     1       2.897  13.958  21.043  0.00  0.00    +0.000 A 
ENDBRANCH  24  26
ENDBRANCH   9  24
TORSDOF 9
ENDMDL
MODEL 2
REMARK VINA RESULT:      -5.9      3.638      6.105
REMARK  Name = 
REMARK  12 active torsions:
REMARK  status: ('A' for Active; 'I' for Inactive)
REMARK    1  A    between atoms: C_1  and  C_2
REMARK    2  A    between atoms: C_2  and  C_3
REMARK    3  A    between atoms: C_3  and  S_4
REMARK    4  A    between atoms: S_4  and  C_7
REMARK    5  A    between atoms: C_8  and  S_9
REMARK    6  A    between atoms: S_9  and  C_12
REMARK    7  A    between atoms: C_12  and  C_13
REMARK    8  A    between atoms: C_13  and  C_14
REMARK    9  A    between atoms: C_17  and  C_18
REMARK   10  A    between atoms: C_18  and  C_19
REMARK   11  A    between atoms: C_23  and  C_24
REMARK   12  A    between atoms: C_24  and  C_26
REMARK                            x       y       z     vdW  Elec       q    Type
REMARK                         _______ _______ _______ _____ _____    ______ ____
ROOT
ATOM      1  C   UNL     1      -3.850  12.137  19.357  0.00  0.00    +0.000 A 
ATOM      2  C   UNL     1      -4.725  12.454  20.454  0.00  0.00    +0.000 A 
ATOM      3  C   UNL     1      -3.927  12.990  21.464  0.00  0.00    +0.000 A 
ATOM      4  C   UNL     1      -4.171  13.525  22.777  0.00  0.00    +0.000 A 
ATOM      5  C   UNL     1      -3.179  14.102  23.493  0.00  0.00    +0.000 A 
ATOM      6  C   UNL     1      -1.850  14.237  22.918  0.00  0.00    +0.000 A 
ATOM      7  C   UNL     1      -1.610  13.731  21.700  0.00  0.00    +0.000 A 
ATOM      8  N   UNL     1      -2.617  13.061  20.992  0.00  0.00    +0.000 N 
ATOM      9  C   UNL     1      -2.533  12.409  19.767  0.00  0.00    +0.000 A 
ENDROOT
BRANCH   1  10
ATOM     10  S   UNL     1      -4.269  11.421  17.810  0.00  0.00    +0.000 S 
ATOM     11  O   UNL     1      -5.116  12.381  17.141  0.00  0.00    +0.000 OA
ATOM     12  O   UNL     1      -4.803  10.129  18.185  0.00  0.00    +0.000 OA
BRANCH  10  13
ATOM     13  C   UNL     1      -2.772  11.283  16.861  0.00  0.00    +0.000 C 
BRANCH  13  15
ATOM     14  C   UNL     1      -3.259  10.085  14.725  0.00  0.00    +0.000 C 
ATOM     15  C   UNL     1      -2.698   9.949  16.130  0.00  0.00    +0.000 C 
ENDBRANCH  13  15
ENDBRANCH  10  13
ENDBRANCH   1  10
BRANCH   2  16
ATOM     16  S   UNL     1      -6.469  12.327  20.488  0.00  0.00    +0.000 S 
ATOM     17  O   UNL     1      -6.915  12.902  19.231  0.00  0.00    +0.000 OA
ATOM     18  O   UNL     1      -6.703  10.926  20.760  0.00  0.00    +0.000 OA
BRANCH  16  19
ATOM     19  C   UNL     1      -7.067  13.410  21.781  0.00  0.00    +0.000 C 
BRANCH  19  20
ATOM     20  C   UNL     1      -7.618  12.611  22.960  0.00  0.00    +0.000 C 
ATOM     21  C   UNL     1      -7.609  13.432  24.240  0.00  0.00    +0.000 C 
ENDBRANCH  19  20
ENDBRANCH  16  19
ENDBRANCH   2  16
BRANCH   5  22
ATOM     22  C   UNL     1      -3.415  14.731  24.849  0.00  0.00    +0.000 C 
ATOM     23  C   UNL     1      -3.423  16.257  24.831  0.00  0.00    +0.000 C 
ENDBRANCH   5  22
BRANCH   9  24
ATOM     24  C   UNL     1      -1.304  12.159  19.020  0.00  0.00    +0.000 C 
ATOM     25  O   UNL     1      -0.895  12.928  18.155  0.00  0.00    +0.000 OA
BRANCH  24  26
ATOM     26  C   UNL     1      -0.428  10.980  19.248  0.00  0.00    +0.000 A 
ATOM     27  C   UNL     1      -0.496  10.351  20.506  0.00  0.00    +0.000 A 
ATOM     28  C   UNL     1       0.306   9.246  20.789  0.00  0.00    +0.000 A 
ATOM     29  C   UNL     1       1.179   8.767  19.817  0.00  0.00    +0.000 A 
ATOM     30 CL   UNL     1       2.177   7.412  20.164  0.00  0.00    +0.000 Cl
ATOM     31  C   UNL     1       1.257   9.384  18.566  0.00  0.00    +0.000 A 
ATOM     32  C   UNL     1       0.465  10.502  18.284  0.00  0.00    +0.000 A 
ENDBRANCH  24  26
ENDBRANCH   9  24
TORSDOF 9
ENDMDL
MODEL 3
REMARK VINA RESULT:      -5.9      3.701      6.111
REMARK  Name = 
REMARK  12 active torsions:
REMARK  status: ('A' for Active; 'I' for Inactive)
REMARK    1  A    between atoms: C_1  and  C_2
REMARK    2  A    between atoms: C_2  and  C_3
REMARK    3  A    between atoms: C_3  and  S_4
REMARK    4  A    between atoms: S_4  and  C_7
REMARK    5  A    between atoms: C_8  and  S_9
REMARK    6  A    between atoms: S_9  and  C_12
REMARK    7  A    between atoms: C_12  and  C_13
REMARK    8  A    between atoms: C_13  and  C_14
REMARK    9  A    between atoms: C_17  and  C_18
REMARK   10  A    between atoms: C_18  and  C_19
REMARK   11  A    between atoms: C_23  and  C_24
REMARK   12  A    between atoms: C_24  and  C_26
REMARK                            x       y       z     vdW  Elec       q    Type
REMARK                         _______ _______ _______ _____ _____    ______ ____
ROOT
ATOM      1  C   UNL     1      -3.941  11.924  19.175  0.00  0.00    +0.000 A 
ATOM      2  C   UNL     1      -4.862  12.367  20.188  0.00  0.00    +0.000 A 
ATOM      3  C   UNL     1      -4.132  13.148  21.083  0.00  0.00    +0.000 A 
ATOM      4  C   UNL     1      -4.445  13.898  22.269  0.00  0.00    +0.000 A 
ATOM      5  C   UNL     1      -3.519  14.679  22.869  0.00  0.00    +0.000 A 
ATOM      6  C   UNL     1      -2.193  14.814  22.286  0.00  0.00    +0.000 A 
ATOM      7  C   UNL     1      -1.887  14.110  21.187  0.00  0.00    +0.000 A 
ATOM      8  N   UNL     1      -2.821  13.238  20.613  0.00  0.00    +0.000 N 
ATOM      9  C   UNL     1      -2.659  12.376  19.534  0.00  0.00    +0.000 A 
ENDROOT
BRANCH   1  10
ATOM     10  S   UNL     1      -4.268  10.898  17.789  0.00  0.00    +0.000 S 
ATOM     11  O   UNL     1      -5.669  11.072  17.485  0.00  0.00    +0.000 OA
ATOM     12  O   UNL     1      -3.781   9.604  18.221  0.00  0.00    +0.000 OA
BRANCH  10  13
ATOM     13  C   UNL     1      -3.342  11.543  16.415  0.00  0.00    +0.000 C 
BRANCH  13  15
ATOM     14  C   UNL     1      -3.491  10.061  14.411  0.00  0.00    +0.000 C 
ATOM     15  C   UNL     1      -2.663  10.428  15.630  0.00  0.00    +0.000 C 
ENDBRANCH  13  15
ENDBRANCH  10  13
ENDBRANCH   1  10
BRANCH   2  16
ATOM     16  S   UNL     1      -6.590  12.104  20.235  0.00  0.00    +0.000 S 
ATOM     17  O   UNL     1      -7.094  12.668  18.995  0.00  0.00    +0.000 OA
ATOM     18  O   UNL     1      -6.712  10.684  20.480  0.00  0.00    +0.000 OA
BRANCH  16  19
ATOM     19  C   UNL     1      -7.257  13.112  21.555  0.00  0.00    +0.000 C 
BRANCH  19  20
ATOM     20  C   UNL     1      -7.580  12.266  22.786  0.00  0.00    +0.000 C 
ATOM     21  C   UNL     1      -7.599  13.112  24.050  0.00  0.00    +0.000 C 
ENDBRANCH  19  20
ENDBRANCH  16  19
ENDBRANCH   2  16
BRANCH   5  22
ATOM     22  C   UNL     1      -3.834  15.530  24.081  0.00  0.00    +0.000 C 
ATOM     23  C   UNL     1      -2.803  15.418  25.200  0.00  0.00    +0.000 C 
ENDBRANCH   5  22
BRANCH   9  24
ATOM     24  C   UNL     1      -1.399  12.093  18.854  0.00  0.00    +0.000 C 
ATOM     25  O   UNL     1      -0.966  12.806  17.954  0.00  0.00    +0.000 OA
BRANCH  24  26
ATOM     26  C   UNL     1      -0.517  10.947  19.200  0.00  0.00    +0.000 A 
ATOM     27  C   UNL     1       0.275  10.400  18.173  0.00  0.00    +0.000 A 
ATOM     28  C   UNL     1       1.116   9.318  18.428  0.00  0.00    +0.000 A 
ATOM     29  C   UNL     1       1.168   8.779  19.710  0.00  0.00    +0.000 A 
ATOM     30 CL   UNL     1       2.196   7.438  20.027  0.00  0.00    +0.000 Cl
ATOM     31  C   UNL     1       0.385   9.311  20.737  0.00  0.00    +0.000 A 
ATOM     32  C   UNL     1      -0.472  10.387  20.481  0.00  0.00    +0.000 A 
ENDBRANCH  24  26
ENDBRANCH   9  24
TORSDOF 9
ENDMDL
MODEL 4
REMARK VINA RESULT:      -5.8      2.949      4.564
REMARK  Name = 
REMARK  12 active torsions:
REMARK  status: ('A' for Active; 'I' for Inactive)
REMARK    1  A    between atoms: C_1  and  C_2
REMARK    2  A    between atoms: C_2  and  C_3
REMARK    3  A    between atoms: C_3  and  S_4
REMARK    4  A    between atoms: S_4  and  C_7
REMARK    5  A    between atoms: C_8  and  S_9
REMARK    6  A    between atoms: S_9  and  C_12
REMARK    7  A    between atoms: C_12  and  C_13
REMARK    8  A    between atoms: C_13  and  C_14
REMARK    9  A    between atoms: C_17  and  C_18
REMARK   10  A    between atoms: C_18  and  C_19
REMARK   11  A    between atoms: C_23  and  C_24
REMARK   12  A    between atoms: C_24  and  C_26
REMARK                            x       y       z     vdW  Elec       q    Type
REMARK                         _______ _______ _______ _____ _____    ______ ____
ROOT
ATOM      1  C   UNL     1      -0.323  12.707  20.174  0.00  0.00    +0.000 A 
ATOM      2  C   UNL     1      -1.701  13.116  20.219  0.00  0.00    +0.000 A 
ATOM      3  C   UNL     1      -2.398  12.283  19.345  0.00  0.00    +0.000 A 
ATOM      4  C   UNL     1      -3.776  12.141  18.956  0.00  0.00    +0.000 A 
ATOM      5  C   UNL     1      -4.176  11.128  18.155  0.00  0.00    +0.000 A 
ATOM      6  C   UNL     1      -3.217  10.128  17.712  0.00  0.00    +0.000 A 
ATOM      7  C   UNL     1      -1.929  10.258  18.060  0.00  0.00    +0.000 A 
ATOM      8  N   UNL     1      -1.500  11.352  18.822  0.00  0.00    +0.000 N 
ATOM      9  C   UNL     1      -0.208  11.694  19.205  0.00  0.00    +0.000 A 
ENDROOT
BRANCH   1  10
ATOM     10  S   UNL     1       1.039  13.390  21.046  0.00  0.00    +0.000 S 
ATOM     11  O   UNL     1       2.079  12.389  21.013  0.00  0.00    +0.000 OA
ATOM     12  O   UNL     1       0.452  13.776  22.312  0.00  0.00    +0.000 OA
BRANCH  10  13
ATOM     13  C   UNL     1       1.620  14.791  20.117  0.00  0.00    +0.000 C 
BRANCH  13  15
ATOM     14  C   UNL     1       3.383  14.677  18.352  0.00  0.00    +0.000 C 
ATOM     15  C   UNL     1       3.116  14.696  19.847  0.00  0.00    +0.000 C 
ENDBRANCH  13  15
ENDBRANCH  10  13
ENDBRANCH   1  10
BRANCH   2  16
ATOM     16  S   UNL     1      -2.411  14.329  21.261  0.00  0.00    +0.000 S 
ATOM     17  O   UNL     1      -1.523  15.474  21.170  0.00  0.00    +0.000 OA
ATOM     18  O   UNL     1      -3.772  14.435  20.781  0.00  0.00    +0.000 OA
BRANCH  16  19
ATOM     19  C   UNL     1      -2.297  13.732  22.945  0.00  0.00    +0.000 C 
BRANCH  19  20
ATOM     20  C   UNL     1      -2.841  12.309  23.064  0.00  0.00    +0.000 C 
ATOM     21  C   UNL     1      -1.719  11.303  23.266  0.00  0.00    +0.000 C 
ENDBRANCH  19  20
ENDBRANCH  16  19
ENDBRANCH   2  16
BRANCH   5  22
ATOM     22  C   UNL     1      -5.626  10.913  17.779  0.00  0.00    +0.000 C 
ATOM     23  C   UNL     1      -6.489  10.378  18.918  0.00  0.00    +0.000 C 
ENDBRANCH   5  22
BRANCH   9  24
ATOM     24  C   UNL     1       1.014  11.038  18.752  0.00  0.00    +0.000 C 
ATOM     25  O   UNL     1       1.830  11.600  18.027  0.00  0.00    +0.000 OA
BRANCH  24  26
ATOM     26  C   UNL     1       1.397   9.655  19.141  0.00  0.00    +0.000 A 
ATOM     27  C   UNL     1       2.056   8.866  18.178  0.00  0.00    +0.000 A 
ATOM     28  C   UNL     1       2.434   7.557  18.475  0.00  0.00    +0.000 A 
ATOM     29  C   UNL     1       2.154   7.032  19.733  0.00  0.00    +0.000 A 
ATOM     30 CL   UNL     1       2.609   5.416  20.101  0.00  0.00    +0.000 Cl
ATOM     31  C   UNL     1       1.499   7.805  20.695  0.00  0.00    +0.000 A 
ATOM     32  C   UNL     1       1.105   9.113  20.397  0.00  0.00    +0.000 A 
ENDBRANCH  24  26
ENDBRANCH   9  24
TORSDOF 9
ENDMDL
MODEL 5
REMARK VINA RESULT:      -5.8      0.992      1.151
REMARK  Name = 
REMARK  12 active torsions:
REMARK  status: ('A' for Active; 'I' for Inactive)
REMARK    1  A    between atoms: C_1  and  C_2
REMARK    2  A    between atoms: C_2  and  C_3
REMARK    3  A    between atoms: C_3  and  S_4
REMARK    4  A    between atoms: S_4  and  C_7
REMARK    5  A    between atoms: C_8  and  S_9
REMARK    6  A    between atoms: S_9  and  C_12
REMARK    7  A    between atoms: C_12  and  C_13
REMARK    8  A    between atoms: C_13  and  C_14
REMARK    9  A    between atoms: C_17  and  C_18
REMARK   10  A    between atoms: C_18  and  C_19
REMARK   11  A    between atoms: C_23  and  C_24
REMARK   12  A    between atoms: C_24  and  C_26
REMARK                            x       y       z     vdW  Elec       q    Type
REMARK                         _______ _______ _______ _____ _____    ______ ____
ROOT
ATOM      1  C   UNL     1      -1.929  12.590  21.160  0.00  0.00    +0.000 A 
ATOM      2  C   UNL     1      -3.140  12.575  20.383  0.00  0.00    +0.000 A 
ATOM      3  C   UNL     1      -2.851  11.898  19.199  0.00  0.00    +0.000 A 
ATOM      4  C   UNL     1      -3.606  11.516  18.036  0.00  0.00    +0.000 A 
ATOM      5  C   UNL     1      -3.063  10.733  17.076  0.00  0.00    +0.000 A 
ATOM      6  C   UNL     1      -1.712  10.219  17.233  0.00  0.00    +0.000 A 
ATOM      7  C   UNL     1      -0.996  10.579  18.308  0.00  0.00    +0.000 A 
ATOM      8  N   UNL     1      -1.530  11.456  19.262  0.00  0.00    +0.000 N 
ATOM      9  C   UNL     1      -0.915  11.999  20.385  0.00  0.00    +0.000 A 
ENDROOT
BRANCH   1  10
ATOM     10  S   UNL     1      -1.664  13.311  22.739  0.00  0.00    +0.000 S 
ATOM     11  O   UNL     1      -0.363  12.857  23.172  0.00  0.00    +0.000 OA
ATOM     12  O   UNL     1      -2.846  12.918  23.477  0.00  0.00    +0.000 OA
BRANCH  10  13
ATOM     13  C   UNL     1      -1.564  15.072  22.512  0.00  0.00    +0.000 C 
BRANCH  13  15
ATOM     14  C   UNL     1      -2.277  16.434  24.480  0.00  0.00    +0.000 C 
ATOM     15  C   UNL     1      -1.101  15.770  23.784  0.00  0.00    +0.000 C 
ENDBRANCH  13  15
ENDBRANCH  10  13
ENDBRANCH   1  10
BRANCH   2  16
ATOM     16  S   UNL     1      -4.715  13.164  20.867  0.00  0.00    +0.000 S 
ATOM     17  O   UNL     1      -5.132  12.287  21.946  0.00  0.00    +0.000 OA
ATOM     18  O   UNL     1      -4.487  14.568  21.128  0.00  0.00    +0.000 OA
BRANCH  16  19
ATOM     19  C   UNL     1      -5.844  12.868  19.510  0.00  0.00    +0.000 C 
BRANCH  19  20
ATOM     20  C   UNL     1      -6.991  11.953  19.936  0.00  0.00    +0.000 C 
ATOM     21  C   UNL     1      -6.871  10.579  19.295  0.00  0.00    +0.000 C 
ENDBRANCH  19  20
ENDBRANCH  16  19
ENDBRANCH   2  16
BRANCH   5  22
ATOM     22  C   UNL     1      -3.849  10.260  15.872  0.00  0.00    +0.000 C 
ATOM     23  C   UNL     1      -3.005  10.081  14.613  0.00  0.00    +0.000 C 
ENDBRANCH   5  22
BRANCH   9  24
ATOM     24  C   UNL     1       0.498  11.873  20.725  0.00  0.00    +0.000 C 
ATOM     25  O   UNL     1       0.917  10.993  21.470  0.00  0.00    +0.000 OA
BRANCH  24  26
ATOM     26  C   UNL     1       1.556  12.770  20.187  0.00  0.00    +0.000 A 
ATOM     27  C   UNL     1       1.935  12.598  18.843  0.00  0.00    +0.000 A 
ATOM     28  C   UNL     1       2.927  13.399  18.279  0.00  0.00    +0.000 A 
ATOM     29  C   UNL     1       3.544  14.373  19.058  0.00  0.00    +0.000 A 
ATOM     30 CL   UNL     1       4.775  15.357  18.372  0.00  0.00    +0.000 Cl
ATOM     31  C   UNL     1       3.178  14.551  20.394  0.00  0.00    +0.000 A 
ATOM     32  C   UNL     1       2.194  13.739  20.968  0.00  0.00    +0.000 A 
ENDBRANCH  24  26
ENDBRANCH   9  24
TORSDOF 9
ENDMDL
MODEL 6
REMARK VINA RESULT:      -5.8      3.049      3.835
REMARK  Name = 
REMARK  12 active torsions:
REMARK  status: ('A' for Active; 'I' for Inactive)
REMARK    1  A    between atoms: C_1  and  C_2
REMARK    2  A    between atoms: C_2  and  C_3
REMARK    3  A    between atoms: C_3  and  S_4
REMARK    4  A    between atoms: S_4  and  C_7
REMARK    5  A    between atoms: C_8  and  S_9
REMARK    6  A    between atoms: S_9  and  C_12
REMARK    7  A    between atoms: C_12  and  C_13
REMARK    8  A    between atoms: C_13  and  C_14
REMARK    9  A    between atoms: C_17  and  C_18
REMARK   10  A    between atoms: C_18  and  C_19
REMARK   11  A    between atoms: C_23  and  C_24
REMARK   12  A    between atoms: C_24  and  C_26
REMARK                            x       y       z     vdW  Elec       q    Type
REMARK                         _______ _______ _______ _____ _____    ______ ____
ROOT
ATOM      1  C   UNL     1      -1.672  12.003  20.581  0.00  0.00    +0.000 A 
ATOM      2  C   UNL     1      -2.931  12.256  19.933  0.00  0.00    +0.000 A 
ATOM      3  C   UNL     1      -2.854  11.682  18.665  0.00  0.00    +0.000 A 
ATOM      4  C   UNL     1      -3.754  11.550  17.551  0.00  0.00    +0.000 A 
ATOM      5  C   UNL     1      -3.426  10.809  16.469  0.00  0.00    +0.000 A 
ATOM      6  C   UNL     1      -2.164  10.085  16.438  0.00  0.00    +0.000 A 
ATOM      7  C   UNL     1      -1.313  10.211  17.466  0.00  0.00    +0.000 A 
ATOM      8  N   UNL     1      -1.619  11.044  18.550  0.00  0.00    +0.000 N 
ATOM      9  C   UNL     1      -0.834  11.359  19.654  0.00  0.00    +0.000 A 
ENDROOT
BRANCH   1  10
ATOM     10  S   UNL     1      -1.164  12.494  22.188  0.00  0.00    +0.000 S 
ATOM     11  O   UNL     1       0.280  12.504  22.166  0.00  0.00    +0.000 OA
ATOM     12  O   UNL     1      -1.865  11.563  23.048  0.00  0.00    +0.000 OA
BRANCH  10  13
ATOM     13  C   UNL     1      -1.703  14.172  22.430  0.00  0.00    +0.000 C 
BRANCH  13  15
ATOM     14  C   UNL     1      -3.305  15.280  23.992  0.00  0.00    +0.000 C 
ATOM     15  C   UNL     1      -2.042  14.441  23.890  0.00  0.00    +0.000 C 
ENDBRANCH  13  15
ENDBRANCH  10  13
ENDBRANCH   1  10
BRANCH   2  16
ATOM     16  S   UNL     1      -4.346  13.014  20.627  0.00  0.00    +0.000 S 
ATOM     17  O   UNL     1      -4.576  12.314  21.879  0.00  0.00    +0.000 OA
ATOM     18  O   UNL     1      -4.007  14.419  20.643  0.00  0.00    +0.000 OA
BRANCH  16  19
ATOM     19  C   UNL     1      -5.740  12.632  19.571  0.00  0.00    +0.000 C 
BRANCH  19  20
ATOM     20  C   UNL     1      -6.650  11.588  20.214  0.00  0.00    +0.000 C 
ATOM     21  C   UNL     1      -6.810  10.367  19.322  0.00  0.00    +0.000 C 
ENDBRANCH  19  20
ENDBRANCH  16  19
ENDBRANCH   2  16
BRANCH   5  22
ATOM     22  C   UNL     1      -4.375  10.597  15.309  0.00  0.00    +0.000 C 
ATOM     23  C   UNL     1      -3.705  10.049  14.053  0.00  0.00    +0.000 C 
ENDBRANCH   5  22
BRANCH   9  24
ATOM     24  C   UNL     1       0.566  10.988  19.836  0.00  0.00    +0.000 C 
ATOM     25  O   UNL     1       1.465  11.822  19.881  0.00  0.00    +0.000 OA
BRANCH  24  26
ATOM     26  C   UNL     1       1.028   9.585  20.009  0.00  0.00    +0.000 A 
ATOM     27  C   UNL     1       1.771   9.010  18.961  0.00  0.00    +0.000 A 
ATOM     28  C   UNL     1       2.227   7.695  19.055  0.00  0.00    +0.000 A 
ATOM     29  C   UNL     1       1.940   6.951  20.196  0.00  0.00    +0.000 A 
ATOM     30 CL   UNL     1       2.490   5.328  20.313  0.00  0.00    +0.000 Cl
ATOM     31  C   UNL     1       1.201   7.511  21.241  0.00  0.00    +0.000 A 
ATOM     32  C   UNL     1       0.729   8.824  21.144  0.00  0.00    +0.000 A 
ENDBRANCH  24  26
ENDBRANCH   9  24
TORSDOF 9
ENDMDL
MODEL 7
REMARK VINA RESULT:      -5.8      0.568      1.074
REMARK  Name = 
REMARK  12 active torsions:
REMARK  status: ('A' for Active; 'I' for Inactive)
REMARK    1  A    between atoms: C_1  and  C_2
REMARK    2  A    between atoms: C_2  and  C_3
REMARK    3  A    between atoms: C_3  and  S_4
REMARK    4  A    between atoms: S_4  and  C_7
REMARK    5  A    between atoms: C_8  and  S_9
REMARK    6  A    between atoms: S_9  and  C_12
REMARK    7  A    between atoms: C_12  and  C_13
REMARK    8  A    between atoms: C_13  and  C_14
REMARK    9  A    between atoms: C_17  and  C_18
REMARK   10  A    between atoms: C_18  and  C_19
REMARK   11  A    between atoms: C_23  and  C_24
REMARK   12  A    between atoms: C_24  and  C_26
REMARK                            x       y       z     vdW  Elec       q    Type
REMARK                         _______ _______ _______ _____ _____    ______ ____
ROOT
ATOM      1  C   UNL     1      -1.707  12.863  21.049  0.00  0.00    +0.000 A 
ATOM      2  C   UNL     1      -2.892  12.597  20.278  0.00  0.00    +0.000 A 
ATOM      3  C   UNL     1      -2.502  11.801  19.202  0.00  0.00    +0.000 A 
ATOM      4  C   UNL     1      -3.182  11.174  18.100  0.00  0.00    +0.000 A 
ATOM      5  C   UNL     1      -2.533  10.336  17.262  0.00  0.00    +0.000 A 
ATOM      6  C   UNL     1      -1.134  10.013  17.495  0.00  0.00    +0.000 A 
ATOM      7  C   UNL     1      -0.487  10.601  18.511  0.00  0.00    +0.000 A 
ATOM      8  N   UNL     1      -1.139  11.532  19.330  0.00  0.00    +0.000 N 
ATOM      9  C   UNL     1      -0.615  12.295  20.368  0.00  0.00    +0.000 A 
ENDROOT
BRANCH   1  10
ATOM     10  S   UNL     1      -1.560  13.823  22.512  0.00  0.00    +0.000 S 
ATOM     11  O   UNL     1      -0.377  13.345  23.187  0.00  0.00    +0.000 OA
ATOM     12  O   UNL     1      -2.858  13.665  23.134  0.00  0.00    +0.000 OA
BRANCH  10  13
ATOM     13  C   UNL     1      -1.248  15.503  22.019  0.00  0.00    +0.000 C 
BRANCH  13  15
ATOM     14  C   UNL     1       0.687  16.986  21.477  0.00  0.00    +0.000 C 
ATOM     15  C   UNL     1       0.138  15.961  22.454  0.00  0.00    +0.000 C 
ENDBRANCH  13  15
ENDBRANCH  10  13
ENDBRANCH   1  10
BRANCH   2  16
ATOM     16  S   UNL     1      -4.534  13.056  20.668  0.00  0.00    +0.000 S 
ATOM     17  O   UNL     1      -4.853  12.326  21.882  0.00  0.00    +0.000 OA
ATOM     18  O   UNL     1      -4.488  14.501  20.689  0.00  0.00    +0.000 OA
BRANCH  16  19
ATOM     19  C   UNL     1      -5.599  12.399  19.388  0.00  0.00    +0.000 C 
BRANCH  19  20
ATOM     20  C   UNL     1      -7.071  12.655  19.710  0.00  0.00    +0.000 C 
ATOM     21  C   UNL     1      -7.774  13.360  18.560  0.00  0.00    +0.000 C 
ENDBRANCH  19  20
ENDBRANCH  16  19
ENDBRANCH   2  16
BRANCH   5  22
ATOM     22  C   UNL     1      -3.233   9.610  16.133  0.00  0.00    +0.000 C 
ATOM     23  C   UNL     1      -3.015  10.242  14.761  0.00  0.00    +0.000 C 
ENDBRANCH   5  22
BRANCH   9  24
ATOM     24  C   UNL     1       0.796  12.387  20.728  0.00  0.00    +0.000 C 
ATOM     25  O   UNL     1       1.337  11.576  21.474  0.00  0.00    +0.000 OA
BRANCH  24  26
ATOM     26  C   UNL     1       1.709  13.441  20.211  0.00  0.00    +0.000 A 
ATOM     27  C   UNL     1       2.868  13.723  20.958  0.00  0.00    +0.000 A 
ATOM     28  C   UNL     1       3.761  14.706  20.534  0.00  0.00    +0.000 A 
ATOM     29  C   UNL     1       3.498  15.411  19.363  0.00  0.00    +0.000 A 
ATOM     30 CL   UNL     1       4.590  16.631  18.842  0.00  0.00    +0.000 Cl
ATOM     31  C   UNL     1       2.350  15.142  18.615  0.00  0.00    +0.000 A 
ATOM     32  C   UNL     1       1.444  14.167  19.045  0.00  0.00    +0.000 A 
ENDBRANCH  24  26
ENDBRANCH   9  24
TORSDOF 9
ENDMDL
MODEL 8
REMARK VINA RESULT:      -5.8      1.053      1.113
REMARK  Name = 
REMARK  12 active torsions:
REMARK  status: ('A' for Active; 'I' for Inactive)
REMARK    1  A    between atoms: C_1  and  C_2
REMARK    2  A    between atoms: C_2  and  C_3
REMARK    3  A    between atoms: C_3  and  S_4
REMARK    4  A    between atoms: S_4  and  C_7
REMARK    5  A    between atoms: C_8  and  S_9
REMARK    6  A    between atoms: S_9  and  C_12
REMARK    7  A    between atoms: C_12  and  C_13
REMARK    8  A    between atoms: C_13  and  C_14
REMARK    9  A    between atoms: C_17  and  C_18
REMARK   10  A    between atoms: C_18  and  C_19
REMARK   11  A    between atoms: C_23  and  C_24
REMARK   12  A    between atoms: C_24  and  C_26
REMARK                            x       y       z     vdW  Elec       q    Type
REMARK                         _______ _______ _______ _____ _____    ______ ____
ROOT
ATOM      1  C   UNL     1      -2.444  12.739  21.228  0.00  0.00    +0.000 A 
ATOM      2  C   UNL     1      -3.618  12.594  20.410  0.00  0.00    +0.000 A 
ATOM      3  C   UNL     1      -3.209  11.992  19.221  0.00  0.00    +0.000 A 
ATOM      4  C   UNL     1      -3.872  11.550  18.023  0.00  0.00    +0.000 A 
ATOM      5  C   UNL     1      -3.206  10.868  17.065  0.00  0.00    +0.000 A 
ATOM      6  C   UNL     1      -1.806  10.523  17.257  0.00  0.00    +0.000 A 
ATOM      7  C   UNL     1      -1.175  10.940  18.365  0.00  0.00    +0.000 A 
ATOM      8  N   UNL     1      -1.845  11.716  19.320  0.00  0.00    +0.000 N 
ATOM      9  C   UNL     1      -1.340  12.301  20.476  0.00  0.00    +0.000 A 
ENDROOT
BRANCH   1  10
ATOM     10  S   UNL     1      -2.322  13.444  22.831  0.00  0.00    +0.000 S 
ATOM     11  O   UNL     1      -0.911  13.511  23.132  0.00  0.00    +0.000 OA
ATOM     12  O   UNL     1      -3.188  12.596  23.625  0.00  0.00    +0.000 OA
BRANCH  10  13
ATOM     13  C   UNL     1      -2.924  15.114  22.728  0.00  0.00    +0.000 C 
BRANCH  13  15
ATOM     14  C   UNL     1      -2.523  17.386  21.772  0.00  0.00    +0.000 C 
ATOM     15  C   UNL     1      -2.166  15.913  21.675  0.00  0.00    +0.000 C 
ENDBRANCH  13  15
ENDBRANCH  10  13
ENDBRANCH   1  10
BRANCH   2  16
ATOM     16  S   UNL     1      -5.269  12.968  20.851  0.00  0.00    +0.000 S 
ATOM     17  O   UNL     1      -5.526  12.192  22.051  0.00  0.00    +0.000 OA
ATOM     18  O   UNL     1      -5.286  14.413  20.912  0.00  0.00    +0.000 OA
BRANCH  16  19
ATOM     19  C   UNL     1      -6.336  12.299  19.579  0.00  0.00    +0.000 C 
BRANCH  19  20
ATOM     20  C   UNL     1      -7.150  11.119  20.106  0.00  0.00    +0.000 C 
ATOM     21  C   UNL     1      -6.901   9.863  19.284  0.00  0.00    +0.000 C 
ENDBRANCH  19  20
ENDBRANCH  16  19
ENDBRANCH   2  16
BRANCH   5  22
ATOM     22  C   UNL     1      -3.887  10.334  15.823  0.00  0.00    +0.000 C 
ATOM     23  C   UNL     1      -2.944  10.121  14.643  0.00  0.00    +0.000 C 
ENDBRANCH   5  22
BRANCH   9  24
ATOM     24  C   UNL     1       0.067  12.343  20.862  0.00  0.00    +0.000 C 
ATOM     25  O   UNL     1       0.568  11.506  21.606  0.00  0.00    +0.000 OA
BRANCH  24  26
ATOM     26  C   UNL     1       1.021  13.375  20.377  0.00  0.00    +0.000 A 
ATOM     27  C   UNL     1       0.514  14.395  19.549  0.00  0.00    +0.000 A 
ATOM     28  C   UNL     1       1.358  15.388  19.053  0.00  0.00    +0.000 A 
ATOM     29  C   UNL     1       2.710  15.364  19.381  0.00  0.00    +0.000 A 
ATOM     30 CL   UNL     1       3.756  16.580  18.763  0.00  0.00    +0.000 Cl
ATOM     31  C   UNL     1       3.225  14.357  20.200  0.00  0.00    +0.000 A 
ATOM     32  C   UNL     1       2.385  13.350  20.687  0.00  0.00    +0.000 A 
ENDBRANCH  24  26
ENDBRANCH   9  24
TORSDOF 9
ENDMDL
MODEL 9
REMARK VINA RESULT:      -5.7      2.107      3.456
REMARK  Name = 
REMARK  12 active torsions:
REMARK  status: ('A' for Active; 'I' for Inactive)
REMARK    1  A    between atoms: C_1  and  C_2
REMARK    2  A    between atoms: C_2  and  C_3
REMARK    3  A    between atoms: C_3  and  S_4
REMARK    4  A    between atoms: S_4  and  C_7
REMARK    5  A    between atoms: C_8  and  S_9
REMARK    6  A    between atoms: S_9  and  C_12
REMARK    7  A    between atoms: C_12  and  C_13
REMARK    8  A    between atoms: C_13  and  C_14
REMARK    9  A    between atoms: C_17  and  C_18
REMARK   10  A    between atoms: C_18  and  C_19
REMARK   11  A    between atoms: C_23  and  C_24
REMARK   12  A    between atoms: C_24  and  C_26
REMARK                            x       y       z     vdW  Elec       q    Type
REMARK                         _______ _______ _______ _____ _____    ______ ____
ROOT
ATOM      1  C   UNL     1      -2.056  12.212  21.161  0.00  0.00    +0.000 A 
ATOM      2  C   UNL     1      -3.439  12.603  21.235  0.00  0.00    +0.000 A 
ATOM      3  C   UNL     1      -3.966  12.466  19.952  0.00  0.00    +0.000 A 
ATOM      4  C   UNL     1      -5.263  12.655  19.359  0.00  0.00    +0.000 A 
ATOM      5  C   UNL     1      -5.502  12.311  18.073  0.00  0.00    +0.000 A 
ATOM      6  C   UNL     1      -4.453  11.691  17.279  0.00  0.00    +0.000 A 
ATOM      7  C   UNL     1      -3.238  11.521  17.818  0.00  0.00    +0.000 A 
ATOM      8  N   UNL     1      -2.968  11.952  19.124  0.00  0.00    +0.000 N 
ATOM      9  C   UNL     1      -1.761  11.934  19.814  0.00  0.00    +0.000 A 
ENDROOT
BRANCH   1  10
ATOM     10  S   UNL     1      -0.867  12.189  22.452  0.00  0.00    +0.000 S 
ATOM     11  O   UNL     1      -1.309  13.165  23.420  0.00  0.00    +0.000 OA
ATOM     12  O   UNL     1       0.382  12.390  21.746  0.00  0.00    +0.000 OA
BRANCH  10  13
ATOM     13  C   UNL     1      -0.953  10.592  23.229  0.00  0.00    +0.000 C 
BRANCH  13  15
ATOM     14  C   UNL     1       0.977   9.200  22.472  0.00  0.00    +0.000 C 
ATOM     15  C   UNL     1      -0.503   9.488  22.281  0.00  0.00    +0.000 C 
ENDBRANCH  13  15
ENDBRANCH  10  13
ENDBRANCH   1  10
BRANCH   2  16
ATOM     16  S   UNL     1      -4.340  13.038  22.670  0.00  0.00    +0.000 S 
ATOM     17  O   UNL     1      -4.011  12.017  23.648  0.00  0.00    +0.000 OA
ATOM     18  O   UNL     1      -3.958  14.412  22.908  0.00  0.00    +0.000 OA
BRANCH  16  19
ATOM     19  C   UNL     1      -6.080  12.840  22.298  0.00  0.00    +0.000 C 
BRANCH  19  20
ATOM     20  C   UNL     1      -6.863  14.109  22.630  0.00  0.00    +0.000 C 
ATOM     21  C   UNL     1      -7.558  14.669  21.399  0.00  0.00    +0.000 C 
ENDBRANCH  19  20
ENDBRANCH  16  19
ENDBRANCH   2  16
BRANCH   5  22
ATOM     22  C   UNL     1      -6.870  12.438  17.438  0.00  0.00    +0.000 C 
ATOM     23  C   UNL     1      -7.532  13.795  17.659  0.00  0.00    +0.000 C 
ENDBRANCH   5  22
BRANCH   9  24
ATOM     24  C   UNL     1      -0.463  11.585  19.247  0.00  0.00    +0.000 C 
ATOM     25  O   UNL     1      -0.143  10.425  19.006  0.00  0.00    +0.000 OA
BRANCH  24  26
ATOM     26  C   UNL     1       0.573  12.589  18.886  0.00  0.00    +0.000 A 
ATOM     27  C   UNL     1       0.186  13.942  18.851  0.00  0.00    +0.000 A 
ATOM     28  C   UNL     1       1.106  14.933  18.511  0.00  0.00    +0.000 A 
ATOM     29  C   UNL     1       2.415  14.575  18.203  0.00  0.00    +0.000 A 
ATOM     30 CL   UNL     1       3.550  15.791  17.773  0.00  0.00    +0.000 Cl
ATOM     31  C   UNL     1       2.810  13.236  18.231  0.00  0.00    +0.000 A 
ATOM     32  C   UNL     1       1.886  12.237  18.557  0.00  0.00    +0.000 A 
ENDBRANCH  24  26
ENDBRANCH   9  24
TORSDOF 9
ENDMDL
