MODEL 1
REMARK VINA RESULT:      -9.0      0.000      0.000
REMARK  Name = 
REMARK  6 active torsions:
REMARK  status: ('A' for Active; 'I' for Inactive)
REMARK    1  A    between atoms: C_1  and  N_2
REMARK    2  A    between atoms: C_3  and  C_5
REMARK    3  A    between atoms: N_7  and  C_8
REMARK    4  A    between atoms: N_17  and  C_18
REMARK    5  A    between atoms: C_21  and  N_22
REMARK    6  A    between atoms: N_25  and  C_26
REMARK                            x       y       z     vdW  Elec       q    Type
REMARK                         _______ _______ _______ _____ _____    ______ ____
ROOT
ATOM      1  C   UNL     1       5.302   5.410  15.923  0.00  0.00    +0.000 A 
ATOM      2  N   UNL     1       5.060   6.739  15.975  0.00  0.00    +0.000 NA
ATOM      3  N   UNL     1       4.119   6.875  16.948  0.00  0.00    +0.000 N 
ATOM      4  C   UNL     1       3.593   8.186  17.256  0.00  0.00    +0.000 C 
ATOM      5  C   UNL     1       3.748   5.685  17.497  0.00  0.00    +0.000 A 
ATOM      6  C   UNL     1       4.482   4.718  16.841  0.00  0.00    +0.000 A 
ATOM      7  C   UNL     1       4.371   3.273  17.199  0.00  0.00    +0.000 C 
ATOM      8  C   UNL     1       2.984   2.966  17.814  0.00  0.00    +0.000 C 
ATOM      9  C   UNL     1       2.516   4.033  18.774  0.00  0.00    +0.000 A 
ATOM     10  C   UNL     1       1.735   3.785  19.872  0.00  0.00    +0.000 A 
ATOM     11  N   UNL     1       1.356   4.746  20.737  0.00  0.00    +0.000 NA
ATOM     12  C   UNL     1       1.723   6.009  20.456  0.00  0.00    +0.000 A 
ATOM     13  N   UNL     1       1.404   6.969  21.413  0.00  0.00    +0.000 N 
ATOM     14  N   UNL     1       2.431   6.365  19.371  0.00  0.00    +0.000 NA
ATOM     15  C   UNL     1       2.825   5.371  18.575  0.00  0.00    +0.000 A 
ATOM     16  H   UNL     1       0.949   6.523  22.199  0.00  0.00    +0.000 HD
ENDROOT
BRANCH  13  17
ATOM     17  C   UNL     1       1.026   8.300  21.202  0.00  0.00    +0.000 A 
ATOM     18  C   UNL     1       1.230   8.957  19.990  0.00  0.00    +0.000 A 
ATOM     19  C   UNL     1       0.848  10.290  19.824  0.00  0.00    +0.000 A 
ATOM     20  C   UNL     1       0.263  11.030  20.861  0.00  0.00    +0.000 A 
ATOM     21  C   UNL     1       0.067  10.360  22.074  0.00  0.00    +0.000 A 
ATOM     22  C   UNL     1       0.429   9.015  22.241  0.00  0.00    +0.000 A 
BRANCH  20  23
ATOM     23  N   UNL     1      -0.027  12.368  20.686  0.00  0.00    +0.000 N 
ATOM     24  C   UNL     1      -0.880  12.820  19.574  0.00  0.00    +0.000 C 
ATOM     25  C   UNL     1      -0.350  14.168  19.036  0.00  0.00    +0.000 C 
ATOM     26  N   UNL     1      -0.271  15.204  20.094  0.00  0.00    +0.000 NA
ATOM     27  C   UNL     1       0.284  16.443  19.554  0.00  0.00    +0.000 C 
ATOM     28  C   UNL     1       0.569  14.700  21.206  0.00  0.00    +0.000 C 
ATOM     29  C   UNL     1       0.076  13.347  21.777  0.00  0.00    +0.000 C 
ENDBRANCH  20  23
ENDBRANCH  13  17
BRANCH   1  32
ATOM     30  C   UNL     1       6.625   3.666  12.883  0.00  0.00    +0.000 C 
ATOM     31  N   UNL     1       5.786   4.316  13.851  0.00  0.00    +0.000 N 
ATOM     32  C   UNL     1       6.302   4.814  15.022  0.00  0.00    +0.000 C 
ATOM     33  O   UNL     1       7.499   4.765  15.296  0.00  0.00    +0.000 OA
ATOM     34  H   UNL     1       4.776   4.373  13.742  0.00  0.00    +0.000 HD
ENDBRANCH   1  32
TORSDOF 3
ENDMDL
MODEL 2
REMARK VINA RESULT:      -8.7      0.661      1.221
REMARK  Name = 
REMARK  6 active torsions:
REMARK  status: ('A' for Active; 'I' for Inactive)
REMARK    1  A    between atoms: C_1  and  N_2
REMARK    2  A    between atoms: C_3  and  C_5
REMARK    3  A    between atoms: N_7  and  C_8
REMARK    4  A    between atoms: N_17  and  C_18
REMARK    5  A    between atoms: C_21  and  N_22
REMARK    6  A    between atoms: N_25  and  C_26
REMARK                            x       y       z     vdW  Elec       q    Type
REMARK                         _______ _______ _______ _____ _____    ______ ____
ROOT
ATOM      1  C   UNL     1       5.334   5.380  15.882  0.00  0.00    +0.000 A 
ATOM      2  N   UNL     1       5.094   6.710  15.937  0.00  0.00    +0.000 NA
ATOM      3  N   UNL     1       4.161   6.846  16.917  0.00  0.00    +0.000 N 
ATOM      4  C   UNL     1       3.639   8.158  17.229  0.00  0.00    +0.000 C 
ATOM      5  C   UNL     1       3.793   5.656  17.469  0.00  0.00    +0.000 A 
ATOM      6  C   UNL     1       4.521   4.689  16.806  0.00  0.00    +0.000 A 
ATOM      7  C   UNL     1       4.411   3.244  17.165  0.00  0.00    +0.000 C 
ATOM      8  C   UNL     1       3.029   2.938  17.791  0.00  0.00    +0.000 C 
ATOM      9  C   UNL     1       2.570   4.005  18.755  0.00  0.00    +0.000 A 
ATOM     10  C   UNL     1       1.797   3.757  19.859  0.00  0.00    +0.000 A 
ATOM     11  N   UNL     1       1.427   4.719  20.727  0.00  0.00    +0.000 NA
ATOM     12  C   UNL     1       1.793   5.981  20.444  0.00  0.00    +0.000 A 
ATOM     13  N   UNL     1       1.482   6.941  21.404  0.00  0.00    +0.000 N 
ATOM     14  N   UNL     1       2.493   6.337  19.354  0.00  0.00    +0.000 NA
ATOM     15  C   UNL     1       2.879   5.342  18.554  0.00  0.00    +0.000 A 
ATOM     16  H   UNL     1       1.033   6.495  22.194  0.00  0.00    +0.000 HD
ENDROOT
BRANCH  13  17
ATOM     17  C   UNL     1       1.104   8.273  21.197  0.00  0.00    +0.000 A 
ATOM     18  C   UNL     1       0.549   9.062  22.203  0.00  0.00    +0.000 A 
ATOM     19  C   UNL     1       0.175  10.385  21.951  0.00  0.00    +0.000 A 
ATOM     20  C   UNL     1       0.321  10.971  20.687  0.00  0.00    +0.000 A 
ATOM     21  C   UNL     1       0.877  10.166  19.685  0.00  0.00    +0.000 A 
ATOM     22  C   UNL     1       1.274   8.844  19.936  0.00  0.00    +0.000 A 
BRANCH  20  23
ATOM     23  N   UNL     1      -0.134  12.252  20.454  0.00  0.00    +0.000 N 
ATOM     24  C   UNL     1       0.779  13.307  19.979  0.00  0.00    +0.000 C 
ATOM     25  C   UNL     1       0.397  14.651  20.638  0.00  0.00    +0.000 C 
ATOM     26  N   UNL     1      -1.015  15.022  20.382  0.00  0.00    +0.000 NA
ATOM     27  C   UNL     1      -1.346  16.270  21.065  0.00  0.00    +0.000 C 
ATOM     28  C   UNL     1      -1.898  13.926  20.845  0.00  0.00    +0.000 C 
ATOM     29  C   UNL     1      -1.551  12.555  20.210  0.00  0.00    +0.000 C 
ENDBRANCH  20  23
ENDBRANCH  13  17
BRANCH   1  32
ATOM     30  C   UNL     1       6.630   3.633  12.832  0.00  0.00    +0.000 C 
ATOM     31  N   UNL     1       5.800   4.284  13.807  0.00  0.00    +0.000 N 
ATOM     32  C   UNL     1       6.327   4.784  14.972  0.00  0.00    +0.000 C 
ATOM     33  O   UNL     1       7.526   4.736  15.235  0.00  0.00    +0.000 OA
ATOM     34  H   UNL     1       4.789   4.340  13.708  0.00  0.00    +0.000 HD
ENDBRANCH   1  32
TORSDOF 3
ENDMDL
MODEL 3
REMARK VINA RESULT:      -8.3      4.213     10.067
REMARK  Name = 
REMARK  6 active torsions:
REMARK  status: ('A' for Active; 'I' for Inactive)
REMARK    1  A    between atoms: C_1  and  N_2
REMARK    2  A    between atoms: C_3  and  C_5
REMARK    3  A    between atoms: N_7  and  C_8
REMARK    4  A    between atoms: N_17  and  C_18
REMARK    5  A    between atoms: C_21  and  N_22
REMARK    6  A    between atoms: N_25  and  C_26
REMARK                            x       y       z     vdW  Elec       q    Type
REMARK                         _______ _______ _______ _____ _____    ______ ____
ROOT
ATOM      1  C   UNL     1      -4.835  11.943  17.968  0.00  0.00    +0.000 A 
ATOM      2  N   UNL     1      -4.206  10.979  17.259  0.00  0.00    +0.000 NA
ATOM      3  N   UNL     1      -3.057  10.745  17.950  0.00  0.00    +0.000 N 
ATOM      4  C   UNL     1      -2.108   9.776  17.451  0.00  0.00    +0.000 C 
ATOM      5  C   UNL     1      -2.932  11.533  19.054  0.00  0.00    +0.000 A 
ATOM      6  C   UNL     1      -4.058  12.331  19.081  0.00  0.00    +0.000 A 
ATOM      7  C   UNL     1      -4.296  13.313  20.181  0.00  0.00    +0.000 C 
ATOM      8  C   UNL     1      -2.955  13.772  20.804  0.00  0.00    +0.000 C 
ATOM      9  C   UNL     1      -1.971  12.643  20.983  0.00  0.00    +0.000 A 
ATOM     10  C   UNL     1      -1.053  12.582  21.999  0.00  0.00    +0.000 A 
ATOM     11  N   UNL     1      -0.206  11.546  22.163  0.00  0.00    +0.000 NA
ATOM     12  C   UNL     1      -0.239  10.569  21.241  0.00  0.00    +0.000 A 
ATOM     13  N   UNL     1       0.575   9.466  21.484  0.00  0.00    +0.000 N 
ATOM     14  N   UNL     1      -1.055  10.568  20.172  0.00  0.00    +0.000 NA
ATOM     15  C   UNL     1      -1.909  11.588  20.084  0.00  0.00    +0.000 A 
ATOM     16  H   UNL     1       1.057   9.590  22.365  0.00  0.00    +0.000 HD
ENDROOT
BRANCH  13  17
ATOM     17  C   UNL     1       1.267   8.686  20.550  0.00  0.00    +0.000 A 
ATOM     18  C   UNL     1       1.683   7.383  20.820  0.00  0.00    +0.000 A 
ATOM     19  C   UNL     1       2.381   6.641  19.863  0.00  0.00    +0.000 A 
ATOM     20  C   UNL     1       2.707   7.169  18.607  0.00  0.00    +0.000 A 
ATOM     21  C   UNL     1       2.286   8.479  18.350  0.00  0.00    +0.000 A 
ATOM     22  C   UNL     1       1.567   9.222  19.298  0.00  0.00    +0.000 A 
BRANCH  20  23
ATOM     23  N   UNL     1       3.468   6.437  17.718  0.00  0.00    +0.000 N 
ATOM     24  C   UNL     1       3.221   4.999  17.514  0.00  0.00    +0.000 C 
ATOM     25  C   UNL     1       4.568   4.272  17.304  0.00  0.00    +0.000 C 
ATOM     26  N   UNL     1       5.343   4.839  16.174  0.00  0.00    +0.000 NA
ATOM     27  C   UNL     1       6.628   4.158  16.044  0.00  0.00    +0.000 C 
ATOM     28  C   UNL     1       5.543   6.290  16.400  0.00  0.00    +0.000 C 
ATOM     29  C   UNL     1       4.217   7.062  16.619  0.00  0.00    +0.000 C 
ENDBRANCH  20  23
ENDBRANCH  13  17
BRANCH   1  32
ATOM     30  C   UNL     1      -7.327  14.360  16.559  0.00  0.00    +0.000 C 
ATOM     31  N   UNL     1      -6.121  13.687  16.953  0.00  0.00    +0.000 N 
ATOM     32  C   UNL     1      -6.157  12.475  17.596  0.00  0.00    +0.000 C 
ATOM     33  O   UNL     1      -7.206  11.883  17.843  0.00  0.00    +0.000 OA
ATOM     34  H   UNL     1      -5.202  14.108  16.834  0.00  0.00    +0.000 HD
ENDBRANCH   1  32
TORSDOF 3
ENDMDL
MODEL 4
REMARK VINA RESULT:      -7.9      3.195      9.644
REMARK  Name = 
REMARK  6 active torsions:
REMARK  status: ('A' for Active; 'I' for Inactive)
REMARK    1  A    between atoms: C_1  and  N_2
REMARK    2  A    between atoms: C_3  and  C_5
REMARK    3  A    between atoms: N_7  and  C_8
REMARK    4  A    between atoms: N_17  and  C_18
REMARK    5  A    between atoms: C_21  and  N_22
REMARK    6  A    between atoms: N_25  and  C_26
REMARK                            x       y       z     vdW  Elec       q    Type
REMARK                         _______ _______ _______ _____ _____    ______ ____
ROOT
ATOM      1  C   UNL     1      -0.315  14.528  19.554  0.00  0.00    +0.000 A 
ATOM      2  N   UNL     1       0.514  13.911  18.682  0.00  0.00    +0.000 NA
ATOM      3  N   UNL     1       0.708  12.674  19.216  0.00  0.00    +0.000 N 
ATOM      4  C   UNL     1       1.585  11.738  18.550  0.00  0.00    +0.000 C 
ATOM      5  C   UNL     1       0.047  12.496  20.394  0.00  0.00    +0.000 A 
ATOM      6  C   UNL     1      -0.607  13.684  20.647  0.00  0.00    +0.000 A 
ATOM      7  C   UNL     1      -1.475  13.860  21.849  0.00  0.00    +0.000 C 
ATOM      8  C   UNL     1      -1.026  12.917  22.991  0.00  0.00    +0.000 C 
ATOM      9  C   UNL     1      -0.657  11.537  22.506  0.00  0.00    +0.000 A 
ATOM     10  C   UNL     1      -0.838  10.394  23.240  0.00  0.00    +0.000 A 
ATOM     11  N   UNL     1      -0.535   9.166  22.775  0.00  0.00    +0.000 NA
ATOM     12  C   UNL     1       0.025   9.088  21.555  0.00  0.00    +0.000 A 
ATOM     13  N   UNL     1       0.240   7.805  21.058  0.00  0.00    +0.000 N 
ATOM     14  N   UNL     1       0.305  10.153  20.784  0.00  0.00    +0.000 NA
ATOM     15  C   UNL     1      -0.062  11.340  21.268  0.00  0.00    +0.000 A 
ATOM     16  H   UNL     1      -0.100   7.124  21.724  0.00  0.00    +0.000 HD
ENDROOT
BRANCH  13  17
ATOM     17  C   UNL     1       1.300   7.359  20.260  0.00  0.00    +0.000 A 
ATOM     18  C   UNL     1       1.798   8.098  19.189  0.00  0.00    +0.000 A 
ATOM     19  C   UNL     1       2.851   7.611  18.410  0.00  0.00    +0.000 A 
ATOM     20  C   UNL     1       3.440   6.363  18.654  0.00  0.00    +0.000 A 
ATOM     21  C   UNL     1       2.928   5.629  19.731  0.00  0.00    +0.000 A 
ATOM     22  C   UNL     1       1.885   6.122  20.529  0.00  0.00    +0.000 A 
BRANCH  20  23
ATOM     23  N   UNL     1       4.423   5.879  17.815  0.00  0.00    +0.000 N 
ATOM     24  C   UNL     1       5.121   6.770  16.871  0.00  0.00    +0.000 C 
ATOM     25  C   UNL     1       5.395   6.007  15.555  0.00  0.00    +0.000 C 
ATOM     26  N   UNL     1       6.171   4.763  15.777  0.00  0.00    +0.000 NA
ATOM     27  C   UNL     1       6.362   4.050  14.517  0.00  0.00    +0.000 C 
ATOM     28  C   UNL     1       5.453   3.910  16.753  0.00  0.00    +0.000 C 
ATOM     29  C   UNL     1       5.153   4.634  18.090  0.00  0.00    +0.000 C 
ENDBRANCH  20  23
ENDBRANCH  13  17
BRANCH   1  32
ATOM     30  C   UNL     1      -0.879  17.780  17.780  0.00  0.00    +0.000 C 
ATOM     31  N   UNL     1      -0.492  16.441  18.127  0.00  0.00    +0.000 N 
ATOM     32  C   UNL     1      -0.826  15.893  19.340  0.00  0.00    +0.000 C 
ATOM     33  O   UNL     1      -1.495  16.491  20.180  0.00  0.00    +0.000 OA
ATOM     34  H   UNL     1       0.098  15.874  17.523  0.00  0.00    +0.000 HD
ENDBRANCH   1  32
TORSDOF 3
ENDMDL
MODEL 5
REMARK VINA RESULT:      -7.7      4.080      9.855
REMARK  Name = 
REMARK  6 active torsions:
REMARK  status: ('A' for Active; 'I' for Inactive)
REMARK    1  A    between atoms: C_1  and  N_2
REMARK    2  A    between atoms: C_3  and  C_5
REMARK    3  A    between atoms: N_7  and  C_8
REMARK    4  A    between atoms: N_17  and  C_18
REMARK    5  A    between atoms: C_21  and  N_22
REMARK    6  A    between atoms: N_25  and  C_26
REMARK                            x       y       z     vdW  Elec       q    Type
REMARK                         _______ _______ _______ _____ _____    ______ ____
ROOT
ATOM      1  C   UNL     1      -4.476  11.690  17.814  0.00  0.00    +0.000 A 
ATOM      2  N   UNL     1      -3.807  10.760  17.094  0.00  0.00    +0.000 NA
ATOM      3  N   UNL     1      -2.698  10.491  17.835  0.00  0.00    +0.000 N 
ATOM      4  C   UNL     1      -1.722   9.545  17.341  0.00  0.00    +0.000 C 
ATOM      5  C   UNL     1      -2.635  11.224  18.981  0.00  0.00    +0.000 A 
ATOM      6  C   UNL     1      -3.761  12.021  18.985  0.00  0.00    +0.000 A 
ATOM      7  C   UNL     1      -4.059  12.949  20.116  0.00  0.00    +0.000 C 
ATOM      8  C   UNL     1      -2.755  13.375  20.833  0.00  0.00    +0.000 C 
ATOM      9  C   UNL     1      -1.782  12.236  21.012  0.00  0.00    +0.000 A 
ATOM     10  C   UNL     1      -0.921  12.123  22.072  0.00  0.00    +0.000 A 
ATOM     11  N   UNL     1      -0.083  11.080  22.231  0.00  0.00    +0.000 NA
ATOM     12  C   UNL     1      -0.065  10.148  21.262  0.00  0.00    +0.000 A 
ATOM     13  N   UNL     1       0.736   9.034  21.495  0.00  0.00    +0.000 N 
ATOM     14  N   UNL     1      -0.821  10.201  20.151  0.00  0.00    +0.000 NA
ATOM     15  C   UNL     1      -1.669  11.226  20.067  0.00  0.00    +0.000 A 
ATOM     16  H   UNL     1       1.168   9.114  22.407  0.00  0.00    +0.000 HD
ENDROOT
BRANCH  13  17
ATOM     17  C   UNL     1       1.478   8.298  20.563  0.00  0.00    +0.000 A 
ATOM     18  C   UNL     1       1.911   6.996  20.807  0.00  0.00    +0.000 A 
ATOM     19  C   UNL     1       2.659   6.300  19.854  0.00  0.00    +0.000 A 
ATOM     20  C   UNL     1       3.022   6.875  18.629  0.00  0.00    +0.000 A 
ATOM     21  C   UNL     1       2.583   8.185  18.399  0.00  0.00    +0.000 A 
ATOM     22  C   UNL     1       1.814   8.881  19.342  0.00  0.00    +0.000 A 
BRANCH  20  23
ATOM     23  N   UNL     1       3.830   6.188  17.746  0.00  0.00    +0.000 N 
ATOM     24  C   UNL     1       4.964   6.854  17.082  0.00  0.00    +0.000 C 
ATOM     25  C   UNL     1       5.093   6.325  15.635  0.00  0.00    +0.000 C 
ATOM     26  N   UNL     1       5.244   4.851  15.586  0.00  0.00    +0.000 NA
ATOM     27  C   UNL     1       5.309   4.391  14.201  0.00  0.00    +0.000 C 
ATOM     28  C   UNL     1       4.102   4.221  16.290  0.00  0.00    +0.000 C 
ATOM     29  C   UNL     1       3.933   4.723  17.747  0.00  0.00    +0.000 C 
ENDBRANCH  20  23
ENDBRANCH  13  17
BRANCH   1  32
ATOM     30  C   UNL     1      -6.895  14.198  16.438  0.00  0.00    +0.000 C 
ATOM     31  N   UNL     1      -5.710  13.503  16.857  0.00  0.00    +0.000 N 
ATOM     32  C   UNL     1      -5.775  12.242  17.396  0.00  0.00    +0.000 C 
ATOM     33  O   UNL     1      -6.831  11.625  17.521  0.00  0.00    +0.000 OA
ATOM     34  H   UNL     1      -4.790  13.938  16.836  0.00  0.00    +0.000 HD
ENDBRANCH   1  32
TORSDOF 3
ENDMDL
MODEL 6
REMARK VINA RESULT:      -7.6      3.364      9.776
REMARK  Name = 
REMARK  6 active torsions:
REMARK  status: ('A' for Active; 'I' for Inactive)
REMARK    1  A    between atoms: C_1  and  N_2
REMARK    2  A    between atoms: C_3  and  C_5
REMARK    3  A    between atoms: N_7  and  C_8
REMARK    4  A    between atoms: N_17  and  C_18
REMARK    5  A    between atoms: C_21  and  N_22
REMARK    6  A    between atoms: N_25  and  C_26
REMARK                            x       y       z     vdW  Elec       q    Type
REMARK                         _______ _______ _______ _____ _____    ______ ____
ROOT
ATOM      1  C   UNL     1       0.926  15.619  18.966  0.00  0.00    +0.000 A 
ATOM      2  N   UNL     1       1.668  14.763  18.227  0.00  0.00    +0.000 NA
ATOM      3  N   UNL     1       1.531  13.564  18.856  0.00  0.00    +0.000 N 
ATOM      4  C   UNL     1       2.229  12.406  18.346  0.00  0.00    +0.000 C 
ATOM      5  C   UNL     1       0.747  13.635  19.968  0.00  0.00    +0.000 A 
ATOM      6  C   UNL     1       0.356  14.954  20.075  0.00  0.00    +0.000 A 
ATOM      7  C   UNL     1      -0.552  15.417  21.166  0.00  0.00    +0.000 C 
ATOM      8  C   UNL     1      -0.427  14.500  22.407  0.00  0.00    +0.000 C 
ATOM      9  C   UNL     1      -0.338  13.036  22.051  0.00  0.00    +0.000 A 
ATOM     10  C   UNL     1      -0.834  12.026  22.834  0.00  0.00    +0.000 A 
ATOM     11  N   UNL     1      -0.776  10.727  22.482  0.00  0.00    +0.000 NA
ATOM     12  C   UNL     1      -0.143  10.426  21.335  0.00  0.00    +0.000 A 
ATOM     13  N   UNL     1      -0.180   9.089  20.945  0.00  0.00    +0.000 N 
ATOM     14  N   UNL     1       0.435  11.335  20.531  0.00  0.00    +0.000 NA
ATOM     15  C   UNL     1       0.304  12.610  20.897  0.00  0.00    +0.000 A 
ATOM     16  H   UNL     1      -0.721   8.558  21.614  0.00  0.00    +0.000 HD
ENDROOT
BRANCH  13  17
ATOM     17  C   UNL     1       0.819   8.356  20.292  0.00  0.00    +0.000 A 
ATOM     18  C   UNL     1       1.408   7.224  20.852  0.00  0.00    +0.000 A 
ATOM     19  C   UNL     1       2.409   6.527  20.172  0.00  0.00    +0.000 A 
ATOM     20  C   UNL     1       2.877   6.936  18.916  0.00  0.00    +0.000 A 
ATOM     21  C   UNL     1       2.279   8.076  18.366  0.00  0.00    +0.000 A 
ATOM     22  C   UNL     1       1.259   8.768  19.035  0.00  0.00    +0.000 A 
BRANCH  20  23
ATOM     23  N   UNL     1       3.924   6.271  18.310  0.00  0.00    +0.000 N 
ATOM     24  C   UNL     1       3.988   4.799  18.309  0.00  0.00    +0.000 C 
ATOM     25  C   UNL     1       5.458   4.350  18.464  0.00  0.00    +0.000 C 
ATOM     26  N   UNL     1       6.333   4.915  17.410  0.00  0.00    +0.000 NA
ATOM     27  C   UNL     1       7.719   4.508  17.625  0.00  0.00    +0.000 C 
ATOM     28  C   UNL     1       6.217   6.393  17.422  0.00  0.00    +0.000 C 
ATOM     29  C   UNL     1       4.757   6.891  17.271  0.00  0.00    +0.000 C 
ENDBRANCH  20  23
ENDBRANCH  13  17
BRANCH   1  32
ATOM     30  C   UNL     1      -0.625  18.630  17.366  0.00  0.00    +0.000 C 
ATOM     31  N   UNL     1      -0.341  17.301  17.830  0.00  0.00    +0.000 N 
ATOM     32  C   UNL     1       0.755  17.038  18.615  0.00  0.00    +0.000 C 
ATOM     33  O   UNL     1       1.530  17.915  18.991  0.00  0.00    +0.000 OA
ATOM     34  H   UNL     1      -0.893  16.496  17.543  0.00  0.00    +0.000 HD
ENDBRANCH   1  32
TORSDOF 3
ENDMDL
MODEL 7
REMARK VINA RESULT:      -7.4      3.201      9.714
REMARK  Name = 
REMARK  6 active torsions:
REMARK  status: ('A' for Active; 'I' for Inactive)
REMARK    1  A    between atoms: C_1  and  N_2
REMARK    2  A    between atoms: C_3  and  C_5
REMARK    3  A    between atoms: N_7  and  C_8
REMARK    4  A    between atoms: N_17  and  C_18
REMARK    5  A    between atoms: C_21  and  N_22
REMARK    6  A    between atoms: N_25  and  C_26
REMARK                            x       y       z     vdW  Elec       q    Type
REMARK                         _______ _______ _______ _____ _____    ______ ____
ROOT
ATOM      1  C   UNL     1       1.292  15.504  18.967  0.00  0.00    +0.000 A 
ATOM      2  N   UNL     1       2.088  14.728  18.197  0.00  0.00    +0.000 NA
ATOM      3  N   UNL     1       1.961  13.481  18.727  0.00  0.00    +0.000 N 
ATOM      4  C   UNL     1       2.713  12.384  18.161  0.00  0.00    +0.000 C 
ATOM      5  C   UNL     1       1.132  13.446  19.807  0.00  0.00    +0.000 A 
ATOM      6  C   UNL     1       0.699  14.743  19.997  0.00  0.00    +0.000 A 
ATOM      7  C   UNL     1      -0.265  15.096  21.081  0.00  0.00    +0.000 C 
ATOM      8  C   UNL     1      -0.163  14.090  22.253  0.00  0.00    +0.000 C 
ATOM      9  C   UNL     1      -0.017  12.661  21.792  0.00  0.00    +0.000 A 
ATOM     10  C   UNL     1      -0.514  11.582  22.475  0.00  0.00    +0.000 A 
ATOM     11  N   UNL     1      -0.404  10.315  22.028  0.00  0.00    +0.000 NA
ATOM     12  C   UNL     1       0.283  10.119  20.889  0.00  0.00    +0.000 A 
ATOM     13  N   UNL     1       0.301   8.816  20.399  0.00  0.00    +0.000 N 
ATOM     14  N   UNL     1       0.866  11.102  20.181  0.00  0.00    +0.000 NA
ATOM     15  C   UNL     1       0.683  12.342  20.637  0.00  0.00    +0.000 A 
ATOM     16  H   UNL     1      -0.250   8.221  21.003  0.00  0.00    +0.000 HD
ENDROOT
BRANCH  13  17
ATOM     17  C   UNL     1       1.346   8.162  19.735  0.00  0.00    +0.000 A 
ATOM     18  C   UNL     1       1.848   8.598  18.510  0.00  0.00    +0.000 A 
ATOM     19  C   UNL     1       2.886   7.910  17.876  0.00  0.00    +0.000 A 
ATOM     20  C   UNL     1       3.452   6.751  18.423  0.00  0.00    +0.000 A 
ATOM     21  C   UNL     1       2.936   6.322  19.651  0.00  0.00    +0.000 A 
ATOM     22  C   UNL     1       1.909   7.020  20.304  0.00  0.00    +0.000 A 
BRANCH  20  23
ATOM     23  N   UNL     1       4.418   6.051  17.729  0.00  0.00    +0.000 N 
ATOM     24  C   UNL     1       5.849   6.363  17.898  0.00  0.00    +0.000 C 
ATOM     25  C   UNL     1       6.569   6.214  16.539  0.00  0.00    +0.000 C 
ATOM     26  N   UNL     1       6.391   4.864  15.952  0.00  0.00    +0.000 NA
ATOM     27  C   UNL     1       7.043   4.785  14.648  0.00  0.00    +0.000 C 
ATOM     28  C   UNL     1       4.942   4.576  15.828  0.00  0.00    +0.000 C 
ATOM     29  C   UNL     1       4.176   4.715  17.168  0.00  0.00    +0.000 C 
ENDBRANCH  20  23
ENDBRANCH  13  17
BRANCH   1  32
ATOM     30  C   UNL     1       0.082  18.580  17.203  0.00  0.00    +0.000 C 
ATOM     31  N   UNL     1       0.334  17.226  17.608  0.00  0.00    +0.000 N 
ATOM     32  C   UNL     1       1.094  16.942  18.716  0.00  0.00    +0.000 C 
ATOM     33  O   UNL     1       1.571  17.815  19.438  0.00  0.00    +0.000 OA
ATOM     34  H   UNL     1       0.022  16.428  17.059  0.00  0.00    +0.000 HD
ENDBRANCH   1  32
TORSDOF 3
ENDMDL
MODEL 8
REMARK VINA RESULT:      -7.3      3.052      9.668
REMARK  Name = 
REMARK  6 active torsions:
REMARK  status: ('A' for Active; 'I' for Inactive)
REMARK    1  A    between atoms: C_1  and  N_2
REMARK    2  A    between atoms: C_3  and  C_5
REMARK    3  A    between atoms: N_7  and  C_8
REMARK    4  A    between atoms: N_17  and  C_18
REMARK    5  A    between atoms: C_21  and  N_22
REMARK    6  A    between atoms: N_25  and  C_26
REMARK                            x       y       z     vdW  Elec       q    Type
REMARK                         _______ _______ _______ _____ _____    ______ ____
ROOT
ATOM      1  C   UNL     1       0.331  14.837  19.304  0.00  0.00    +0.000 A 
ATOM      2  N   UNL     1       1.113  14.103  18.480  0.00  0.00    +0.000 NA
ATOM      3  N   UNL     1       1.147  12.869  19.054  0.00  0.00    +0.000 N 
ATOM      4  C   UNL     1       1.933  11.820  18.445  0.00  0.00    +0.000 C 
ATOM      5  C   UNL     1       0.432  12.803  20.211  0.00  0.00    +0.000 A 
ATOM      6  C   UNL     1      -0.092  14.065  20.408  0.00  0.00    +0.000 A 
ATOM      7  C   UNL     1      -0.973  14.374  21.572  0.00  0.00    +0.000 C 
ATOM      8  C   UNL     1      -0.672  13.422  22.755  0.00  0.00    +0.000 C 
ATOM      9  C   UNL     1      -0.447  11.995  22.321  0.00  0.00    +0.000 A 
ATOM     10  C   UNL     1      -0.781  10.902  23.078  0.00  0.00    +0.000 A 
ATOM     11  N   UNL     1      -0.604   9.634  22.657  0.00  0.00    +0.000 NA
ATOM     12  C   UNL     1      -0.016   9.457  21.461  0.00  0.00    +0.000 A 
ATOM     13  N   UNL     1       0.067   8.143  21.006  0.00  0.00    +0.000 N 
ATOM     14  N   UNL     1       0.408  10.459  20.672  0.00  0.00    +0.000 NA
ATOM     15  C   UNL     1       0.163  11.695  21.111  0.00  0.00    +0.000 A 
ATOM     16  H   UNL     1      -0.370   7.525  21.678  0.00  0.00    +0.000 HD
ENDROOT
BRANCH  13  17
ATOM     17  C   UNL     1       1.095   7.556  20.259  0.00  0.00    +0.000 A 
ATOM     18  C   UNL     1       1.697   6.353  20.626  0.00  0.00    +0.000 A 
ATOM     19  C   UNL     1       2.729   5.806  19.858  0.00  0.00    +0.000 A 
ATOM     20  C   UNL     1       3.215   6.439  18.707  0.00  0.00    +0.000 A 
ATOM     21  C   UNL     1       2.603   7.647  18.352  0.00  0.00    +0.000 A 
ATOM     22  C   UNL     1       1.553   8.192  19.106  0.00  0.00    +0.000 A 
BRANCH  20  23
ATOM     23  N   UNL     1       4.289   5.911  18.019  0.00  0.00    +0.000 N 
ATOM     24  C   UNL     1       5.368   6.779  17.516  0.00  0.00    +0.000 C 
ATOM     25  C   UNL     1       5.856   6.250  16.149  0.00  0.00    +0.000 C 
ATOM     26  N   UNL     1       6.305   4.839  16.220  0.00  0.00    +0.000 NA
ATOM     27  C   UNL     1       6.707   4.365  14.898  0.00  0.00    +0.000 C 
ATOM     28  C   UNL     1       5.205   4.005  16.758  0.00  0.00    +0.000 C 
ATOM     29  C   UNL     1       4.680   4.499  18.130  0.00  0.00    +0.000 C 
ENDBRANCH  20  23
ENDBRANCH  13  17
BRANCH   1  32
ATOM     30  C   UNL     1      -1.865  17.829  18.794  0.00  0.00    +0.000 C 
ATOM     31  N   UNL     1      -1.360  16.514  19.074  0.00  0.00    +0.000 N 
ATOM     32  C   UNL     1      -0.014  16.243  19.036  0.00  0.00    +0.000 C 
ATOM     33  O   UNL     1       0.831  17.102  18.797  0.00  0.00    +0.000 OA
ATOM     34  H   UNL     1      -1.976  15.721  19.241  0.00  0.00    +0.000 HD
ENDBRANCH   1  32
TORSDOF 3
ENDMDL
MODEL 9
REMARK VINA RESULT:      -7.2      3.385      9.833
REMARK  Name = 
REMARK  6 active torsions:
REMARK  status: ('A' for Active; 'I' for Inactive)
REMARK    1  A    between atoms: C_1  and  N_2
REMARK    2  A    between atoms: C_3  and  C_5
REMARK    3  A    between atoms: N_7  and  C_8
REMARK    4  A    between atoms: N_17  and  C_18
REMARK    5  A    between atoms: C_21  and  N_22
REMARK    6  A    between atoms: N_25  and  C_26
REMARK                            x       y       z     vdW  Elec       q    Type
REMARK                         _______ _______ _______ _____ _____    ______ ____
ROOT
ATOM      1  C   UNL     1      -0.468  15.149  19.601  0.00  0.00    +0.000 A 
ATOM      2  N   UNL     1       0.327  14.473  18.741  0.00  0.00    +0.000 NA
ATOM      3  N   UNL     1       0.474  13.245  19.309  0.00  0.00    +0.000 N 
ATOM      4  C   UNL     1       1.305  12.254  18.663  0.00  0.00    +0.000 C 
ATOM      5  C   UNL     1      -0.183  13.128  20.496  0.00  0.00    +0.000 A 
ATOM      6  C   UNL     1      -0.785  14.349  20.720  0.00  0.00    +0.000 A 
ATOM      7  C   UNL     1      -1.635  14.594  21.923  0.00  0.00    +0.000 C 
ATOM      8  C   UNL     1      -1.215  13.666  23.088  0.00  0.00    +0.000 C 
ATOM      9  C   UNL     1      -0.908  12.259  22.640  0.00  0.00    +0.000 A 
ATOM     10  C   UNL     1      -1.129  11.145  23.408  0.00  0.00    +0.000 A 
ATOM     11  N   UNL     1      -0.882   9.893  22.976  0.00  0.00    +0.000 NA
ATOM     12  C   UNL     1      -0.336   9.758  21.754  0.00  0.00    +0.000 A 
ATOM     13  N   UNL     1      -0.179   8.454  21.292  0.00  0.00    +0.000 N 
ATOM     14  N   UNL     1      -0.019  10.788  20.951  0.00  0.00    +0.000 NA
ATOM     15  C   UNL     1      -0.332  12.003  21.404  0.00  0.00    +0.000 A 
ATOM     16  H   UNL     1      -0.541   7.806  21.981  0.00  0.00    +0.000 HD
ENDROOT
BRANCH  13  17
ATOM     17  C   UNL     1       0.855   7.941  20.499  0.00  0.00    +0.000 A 
ATOM     18  C   UNL     1       1.356   8.617  19.389  0.00  0.00    +0.000 A 
ATOM     19  C   UNL     1       2.382   8.065  18.617  0.00  0.00    +0.000 A 
ATOM     20  C   UNL     1       2.938   6.812  18.908  0.00  0.00    +0.000 A 
ATOM     21  C   UNL     1       2.423   6.143  20.024  0.00  0.00    +0.000 A 
ATOM     22  C   UNL     1       1.408   6.700  20.815  0.00  0.00    +0.000 A 
BRANCH  20  23
ATOM     23  N   UNL     1       3.893   6.262  18.077  0.00  0.00    +0.000 N 
ATOM     24  C   UNL     1       3.808   4.853  17.653  0.00  0.00    +0.000 C 
ATOM     25  C   UNL     1       5.229   4.251  17.586  0.00  0.00    +0.000 C 
ATOM     26  N   UNL     1       6.124   5.019  16.687  0.00  0.00    +0.000 NA
ATOM     27  C   UNL     1       7.468   4.447  16.695  0.00  0.00    +0.000 C 
ATOM     28  C   UNL     1       6.159   6.434  17.128  0.00  0.00    +0.000 C 
ATOM     29  C   UNL     1       4.753   7.081  17.211  0.00  0.00    +0.000 C 
ENDBRANCH  20  23
ENDBRANCH  13  17
BRANCH   1  32
ATOM     30  C   UNL     1      -1.074  18.305  17.675  0.00  0.00    +0.000 C 
ATOM     31  N   UNL     1      -0.722  16.969  18.068  0.00  0.00    +0.000 N 
ATOM     32  C   UNL     1      -0.924  16.527  19.353  0.00  0.00    +0.000 C 
ATOM     33  O   UNL     1      -1.441  17.224  20.223  0.00  0.00    +0.000 OA
ATOM     34  H   UNL     1      -0.249  16.325  17.438  0.00  0.00    +0.000 HD
ENDBRANCH   1  32
TORSDOF 3
ENDMDL
