MODEL 1
REMARK VINA RESULT:      -8.5      0.000      0.000
REMARK  Name = 
REMARK  7 active torsions:
REMARK  status: ('A' for Active; 'I' for Inactive)
REMARK    1  A    between atoms: C_2  and  C_3
REMARK    2  A    between atoms: N_5  and  C_6
REMARK    3  A    between atoms: C_9  and  N_10
REMARK    4  A    between atoms: C_12  and  C_13
REMARK    5  A    between atoms: C_13  and  O_14
REMARK    6  A    between atoms: C_13  and  C_15
REMARK    7  A    between atoms: C_13  and  C_21
REMARK                            x       y       z     vdW  Elec       q    Type
REMARK                         _______ _______ _______ _____ _____    ______ ____
ROOT
ATOM      1  N   UNL     1       1.919   8.199  19.406  0.00  0.00    +0.000 N 
ATOM      2  C   UNL     1       2.275   6.923  19.765  0.00  0.00    +0.000 A 
ATOM      3  C   UNL     1       2.832   6.366  18.628  0.00  0.00    +0.000 A 
ATOM      4  N   UNL     1       2.919   7.345  17.670  0.00  0.00    +0.000 NA
ATOM      5  N   UNL     1       2.372   8.454  18.155  0.00  0.00    +0.000 NA
ENDROOT
BRANCH   1   9
ATOM      6  C   UNL     1      -0.412  10.946  21.634  0.00  0.00    +0.000 A 
ATOM      7  C   UNL     1       0.232   9.883  22.265  0.00  0.00    +0.000 A 
ATOM      8  C   UNL     1       1.002   8.977  21.532  0.00  0.00    +0.000 A 
ATOM      9  C   UNL     1       1.143   9.125  20.148  0.00  0.00    +0.000 A 
ATOM     10  C   UNL     1       0.483  10.177  19.503  0.00  0.00    +0.000 A 
ATOM     11  C   UNL     1      -0.299  11.076  20.244  0.00  0.00    +0.000 A 
BRANCH   6  14
ATOM     12  O   UNL     1       0.271  13.689  22.468  0.00  0.00    +0.000 OA
ATOM     13  C   UNL     1      -0.809  13.160  22.725  0.00  0.00    +0.000 C 
ATOM     14  N   UNL     1      -1.195  11.888  22.332  0.00  0.00    +0.000 N 
ATOM     15  H   UNL     1      -2.177  11.662  22.465  0.00  0.00    +0.000 HD
BRANCH  13  16
ATOM     16  C   UNL     1      -1.803  13.891  23.610  0.00  0.00    +0.000 C 
ATOM     17 CL   UNL     1      -3.296  12.964  23.860  0.00  0.00    +0.000 Cl
ENDBRANCH  13  16
ENDBRANCH   6  14
ENDBRANCH   1   9
BRANCH   3  18
ATOM     18  C   UNL     1       3.253   4.942  18.338  0.00  0.00    +0.000 C 
BRANCH  18  19
ATOM     19  C   UNL     1       4.777   5.026  18.172  0.00  0.00    +0.000 A 
ATOM     20  C   UNL     1       5.442   4.529  17.035  0.00  0.00    +0.000 A 
ATOM     21  C   UNL     1       6.836   4.521  16.960  0.00  0.00    +0.000 A 
ATOM     22  C   UNL     1       7.603   5.010  18.018  0.00  0.00    +0.000 A 
ATOM     23  C   UNL     1       6.979   5.526  19.146  0.00  0.00    +0.000 A 
ATOM     24  C   UNL     1       5.581   5.532  19.221  0.00  0.00    +0.000 A 
ENDBRANCH  18  19
BRANCH  18  25
ATOM     25  C   UNL     1       2.731   4.037  19.473  0.00  0.00    +0.000 A 
ATOM     26  C   UNL     1       3.545   3.329  20.388  0.00  0.00    +0.000 A 
ATOM     27  C   UNL     1       3.008   2.508  21.380  0.00  0.00    +0.000 A 
ATOM     28  C   UNL     1       1.629   2.388  21.515  0.00  0.00    +0.000 A 
ATOM     29  C   UNL     1       0.796   3.093  20.652  0.00  0.00    +0.000 A 
ATOM     30  C   UNL     1       1.335   3.906  19.650  0.00  0.00    +0.000 A 
ENDBRANCH  18  25
BRANCH  18  31
ATOM     31  O   UNL     1       2.691   4.447  17.114  0.00  0.00    +0.000 OA
ATOM     32  H   UNL     1       1.788   4.161  17.342  0.00  0.00    +0.000 HD
ENDBRANCH  18  31
ENDBRANCH   3  18
TORSDOF 7
ENDMDL
MODEL 2
REMARK VINA RESULT:      -8.5      0.253      1.268
REMARK  Name = 
REMARK  7 active torsions:
REMARK  status: ('A' for Active; 'I' for Inactive)
REMARK    1  A    between atoms: C_2  and  C_3
REMARK    2  A    between atoms: N_5  and  C_6
REMARK    3  A    between atoms: C_9  and  N_10
REMARK    4  A    between atoms: C_12  and  C_13
REMARK    5  A    between atoms: C_13  and  O_14
REMARK    6  A    between atoms: C_13  and  C_15
REMARK    7  A    between atoms: C_13  and  C_21
REMARK                            x       y       z     vdW  Elec       q    Type
REMARK                         _______ _______ _______ _____ _____    ______ ____
ROOT
ATOM      1  N   UNL     1       2.021   8.199  19.235  0.00  0.00    +0.000 N 
ATOM      2  C   UNL     1       2.307   6.923  19.649  0.00  0.00    +0.000 A 
ATOM      3  C   UNL     1       2.922   6.318  18.568  0.00  0.00    +0.000 A 
ATOM      4  N   UNL     1       3.109   7.268  17.595  0.00  0.00    +0.000 NA
ATOM      5  N   UNL     1       2.568   8.406  18.014  0.00  0.00    +0.000 NA
ENDROOT
BRANCH   1   9
ATOM      6  C   UNL     1      -0.335  11.115  21.208  0.00  0.00    +0.000 A 
ATOM      7  C   UNL     1      -0.062  11.223  19.846  0.00  0.00    +0.000 A 
ATOM      8  C   UNL     1       0.713  10.262  19.194  0.00  0.00    +0.000 A 
ATOM      9  C   UNL     1       1.228   9.170  19.899  0.00  0.00    +0.000 A 
ATOM     10  C   UNL     1       0.976   9.063  21.272  0.00  0.00    +0.000 A 
ATOM     11  C   UNL     1       0.206  10.039  21.923  0.00  0.00    +0.000 A 
BRANCH   6  14
ATOM     12  O   UNL     1       0.458  13.711  22.356  0.00  0.00    +0.000 OA
ATOM     13  C   UNL     1      -0.679  13.254  22.455  0.00  0.00    +0.000 C 
ATOM     14  N   UNL     1      -1.116  12.057  21.909  0.00  0.00    +0.000 N 
ATOM     15  H   UNL     1      -2.120  11.904  21.923  0.00  0.00    +0.000 HD
BRANCH  13  16
ATOM     16  C   UNL     1      -1.704  13.989  23.300  0.00  0.00    +0.000 C 
ATOM     17 CL   UNL     1      -3.068  12.952  23.764  0.00  0.00    +0.000 Cl
ENDBRANCH  13  16
ENDBRANCH   6  14
ENDBRANCH   1   9
BRANCH   3  18
ATOM     18  C   UNL     1       3.312   4.874  18.343  0.00  0.00    +0.000 C 
BRANCH  18  19
ATOM     19  C   UNL     1       4.845   4.906  18.263  0.00  0.00    +0.000 A 
ATOM     20  C   UNL     1       5.644   5.471  19.276  0.00  0.00    +0.000 A 
ATOM     21  C   UNL     1       7.027   5.583  19.127  0.00  0.00    +0.000 A 
ATOM     22  C   UNL     1       7.650   5.135  17.962  0.00  0.00    +0.000 A 
ATOM     23  C   UNL     1       6.896   4.554  16.951  0.00  0.00    +0.000 A 
ATOM     24  C   UNL     1       5.507   4.443  17.101  0.00  0.00    +0.000 A 
ENDBRANCH  18  19
BRANCH  18  25
ATOM     25  C   UNL     1       2.697   4.018  19.469  0.00  0.00    +0.000 A 
ATOM     26  C   UNL     1       3.428   3.389  20.504  0.00  0.00    +0.000 A 
ATOM     27  C   UNL     1       2.810   2.609  21.483  0.00  0.00    +0.000 A 
ATOM     28  C   UNL     1       1.428   2.455  21.482  0.00  0.00    +0.000 A 
ATOM     29  C   UNL     1       0.673   3.085  20.497  0.00  0.00    +0.000 A 
ATOM     30  C   UNL     1       1.293   3.856  19.509  0.00  0.00    +0.000 A 
ENDBRANCH  18  25
BRANCH  18  31
ATOM     31  O   UNL     1       2.806   4.361  17.102  0.00  0.00    +0.000 OA
ATOM     32  H   UNL     1       2.305   5.096  16.703  0.00  0.00    +0.000 HD
ENDBRANCH  18  31
ENDBRANCH   3  18
TORSDOF 7
ENDMDL
MODEL 3
REMARK VINA RESULT:      -8.4      0.157      1.251
REMARK  Name = 
REMARK  7 active torsions:
REMARK  status: ('A' for Active; 'I' for Inactive)
REMARK    1  A    between atoms: C_2  and  C_3
REMARK    2  A    between atoms: N_5  and  C_6
REMARK    3  A    between atoms: C_9  and  N_10
REMARK    4  A    between atoms: C_12  and  C_13
REMARK    5  A    between atoms: C_13  and  O_14
REMARK    6  A    between atoms: C_13  and  C_15
REMARK    7  A    between atoms: C_13  and  C_21
REMARK                            x       y       z     vdW  Elec       q    Type
REMARK                         _______ _______ _______ _____ _____    ______ ____
ROOT
ATOM      1  N   UNL     1       1.951   8.154  19.409  0.00  0.00    +0.000 N 
ATOM      2  C   UNL     1       2.287   6.875  19.777  0.00  0.00    +0.000 A 
ATOM      3  C   UNL     1       2.817   6.296  18.638  0.00  0.00    +0.000 A 
ATOM      4  N   UNL     1       2.909   7.263  17.669  0.00  0.00    +0.000 NA
ATOM      5  N   UNL     1       2.391   8.387  18.150  0.00  0.00    +0.000 NA
ENDROOT
BRANCH   1   9
ATOM      6  C   UNL     1      -0.296  10.970  21.638  0.00  0.00    +0.000 A 
ATOM      7  C   UNL     1       0.208   9.821  22.245  0.00  0.00    +0.000 A 
ATOM      8  C   UNL     1       0.950   8.892  21.512  0.00  0.00    +0.000 A 
ATOM      9  C   UNL     1       1.203   9.103  20.153  0.00  0.00    +0.000 A 
ATOM     10  C   UNL     1       0.684  10.244  19.530  0.00  0.00    +0.000 A 
ATOM     11  C   UNL     1      -0.071  11.166  20.270  0.00  0.00    +0.000 A 
BRANCH   6  14
ATOM     12  O   UNL     1       0.431  13.735  22.354  0.00  0.00    +0.000 OA
ATOM     13  C   UNL     1      -0.639  13.219  22.673  0.00  0.00    +0.000 C 
ATOM     14  N   UNL     1      -1.046  11.937  22.338  0.00  0.00    +0.000 N 
ATOM     15  H   UNL     1      -2.022  11.720  22.520  0.00  0.00    +0.000 HD
BRANCH  13  16
ATOM     16  C   UNL     1      -1.592  13.983  23.575  0.00  0.00    +0.000 C 
ATOM     17 CL   UNL     1      -3.187  13.210  23.685  0.00  0.00    +0.000 Cl
ENDBRANCH  13  16
ENDBRANCH   6  14
ENDBRANCH   1   9
BRANCH   3  18
ATOM     18  C   UNL     1       3.206   4.861  18.357  0.00  0.00    +0.000 C 
BRANCH  18  19
ATOM     19  C   UNL     1       4.734   4.905  18.221  0.00  0.00    +0.000 A 
ATOM     20  C   UNL     1       5.566   5.474  19.205  0.00  0.00    +0.000 A 
ATOM     21  C   UNL     1       6.941   5.597  19.004  0.00  0.00    +0.000 A 
ATOM     22  C   UNL     1       7.524   5.155  17.817  0.00  0.00    +0.000 A 
ATOM     23  C   UNL     1       6.737   4.571  16.832  0.00  0.00    +0.000 A 
ATOM     24  C   UNL     1       5.356   4.450  17.034  0.00  0.00    +0.000 A 
ENDBRANCH  18  19
BRANCH  18  25
ATOM     25  C   UNL     1       2.638   3.971  19.482  0.00  0.00    +0.000 A 
ATOM     26  C   UNL     1       1.263   3.803  19.770  0.00  0.00    +0.000 A 
ATOM     27  C   UNL     1       0.816   2.996  20.818  0.00  0.00    +0.000 A 
ATOM     28  C   UNL     1       1.730   2.300  21.601  0.00  0.00    +0.000 A 
ATOM     29  C   UNL     1       3.090   2.417  21.327  0.00  0.00    +0.000 A 
ATOM     30  C   UNL     1       3.538   3.234  20.285  0.00  0.00    +0.000 A 
ENDBRANCH  18  25
BRANCH  18  31
ATOM     31  O   UNL     1       2.655   4.380  17.122  0.00  0.00    +0.000 OA
ATOM     32  H   UNL     1       3.211   3.619  16.871  0.00  0.00    +0.000 HD
ENDBRANCH  18  31
ENDBRANCH   3  18
TORSDOF 7
ENDMDL
MODEL 4
REMARK VINA RESULT:      -8.3      0.283      1.264
REMARK  Name = 
REMARK  7 active torsions:
REMARK  status: ('A' for Active; 'I' for Inactive)
REMARK    1  A    between atoms: C_2  and  C_3
REMARK    2  A    between atoms: N_5  and  C_6
REMARK    3  A    between atoms: C_9  and  N_10
REMARK    4  A    between atoms: C_12  and  C_13
REMARK    5  A    between atoms: C_13  and  O_14
REMARK    6  A    between atoms: C_13  and  C_15
REMARK    7  A    between atoms: C_13  and  C_21
REMARK                            x       y       z     vdW  Elec       q    Type
REMARK                         _______ _______ _______ _____ _____    ______ ____
ROOT
ATOM      1  N   UNL     1       1.966   8.224  19.158  0.00  0.00    +0.000 N 
ATOM      2  C   UNL     1       2.314   6.963  19.575  0.00  0.00    +0.000 A 
ATOM      3  C   UNL     1       2.927   6.374  18.484  0.00  0.00    +0.000 A 
ATOM      4  N   UNL     1       3.051   7.322  17.499  0.00  0.00    +0.000 NA
ATOM      5  N   UNL     1       2.475   8.441  17.922  0.00  0.00    +0.000 NA
ENDROOT
BRANCH   1   9
ATOM      6  C   UNL     1      -0.456  11.059  21.168  0.00  0.00    +0.000 A 
ATOM      7  C   UNL     1      -0.084  11.255  19.840  0.00  0.00    +0.000 A 
ATOM      8  C   UNL     1       0.714  10.321  19.175  0.00  0.00    +0.000 A 
ATOM      9  C   UNL     1       1.150   9.167  19.833  0.00  0.00    +0.000 A 
ATOM     10  C   UNL     1       0.798   8.971  21.174  0.00  0.00    +0.000 A 
ATOM     11  C   UNL     1       0.006   9.920  21.838  0.00  0.00    +0.000 A 
BRANCH   6  14
ATOM     12  O   UNL     1       0.301  13.580  22.493  0.00  0.00    +0.000 OA
ATOM     13  C   UNL     1      -0.844  13.132  22.509  0.00  0.00    +0.000 C 
ATOM     14  N   UNL     1      -1.263  11.971  21.878  0.00  0.00    +0.000 N 
ATOM     15  H   UNL     1      -2.268  11.829  21.834  0.00  0.00    +0.000 HD
BRANCH  13  16
ATOM     16  C   UNL     1      -1.904  13.832  23.341  0.00  0.00    +0.000 C 
ATOM     17 CL   UNL     1      -3.212  12.737  23.834  0.00  0.00    +0.000 Cl
ENDBRANCH  13  16
ENDBRANCH   6  14
ENDBRANCH   1   9
BRANCH   3  18
ATOM     18  C   UNL     1       3.370   4.945  18.261  0.00  0.00    +0.000 C 
BRANCH  18  19
ATOM     19  C   UNL     1       4.900   5.035  18.170  0.00  0.00    +0.000 A 
ATOM     20  C   UNL     1       5.623   4.543  17.067  0.00  0.00    +0.000 A 
ATOM     21  C   UNL     1       7.018   4.540  17.061  0.00  0.00    +0.000 A 
ATOM     22  C   UNL     1       7.730   5.029  18.157  0.00  0.00    +0.000 A 
ATOM     23  C   UNL     1       7.049   5.540  19.254  0.00  0.00    +0.000 A 
ATOM     24  C   UNL     1       5.649   5.541  19.259  0.00  0.00    +0.000 A 
ENDBRANCH  18  19
BRANCH  18  25
ATOM     25  C   UNL     1       2.795   4.071  19.395  0.00  0.00    +0.000 A 
ATOM     26  C   UNL     1       1.430   4.007  19.760  0.00  0.00    +0.000 A 
ATOM     27  C   UNL     1       0.979   3.209  20.813  0.00  0.00    +0.000 A 
ATOM     28  C   UNL     1       1.875   2.418  21.522  0.00  0.00    +0.000 A 
ATOM     29  C   UNL     1       3.222   2.432  21.172  0.00  0.00    +0.000 A 
ATOM     30  C   UNL     1       3.676   3.241  20.125  0.00  0.00    +0.000 A 
ENDBRANCH  18  25
BRANCH  18  31
ATOM     31  O   UNL     1       2.874   4.408  17.025  0.00  0.00    +0.000 OA
ATOM     32  H   UNL     1       2.836   5.166  16.412  0.00  0.00    +0.000 HD
ENDBRANCH  18  31
ENDBRANCH   3  18
TORSDOF 7
ENDMDL
MODEL 5
REMARK VINA RESULT:      -8.2      1.706      3.977
REMARK  Name = 
REMARK  7 active torsions:
REMARK  status: ('A' for Active; 'I' for Inactive)
REMARK    1  A    between atoms: C_2  and  C_3
REMARK    2  A    between atoms: N_5  and  C_6
REMARK    3  A    between atoms: C_9  and  N_10
REMARK    4  A    between atoms: C_12  and  C_13
REMARK    5  A    between atoms: C_13  and  O_14
REMARK    6  A    between atoms: C_13  and  C_15
REMARK    7  A    between atoms: C_13  and  C_21
REMARK                            x       y       z     vdW  Elec       q    Type
REMARK                         _______ _______ _______ _____ _____    ______ ____
ROOT
ATOM      1  N   UNL     1       1.922   8.521  18.685  0.00  0.00    +0.000 N 
ATOM      2  C   UNL     1       2.456   7.513  19.448  0.00  0.00    +0.000 A 
ATOM      3  C   UNL     1       3.283   6.807  18.592  0.00  0.00    +0.000 A 
ATOM      4  N   UNL     1       3.329   7.475  17.394  0.00  0.00    +0.000 NA
ATOM      5  N   UNL     1       2.509   8.517  17.465  0.00  0.00    +0.000 NA
ENDROOT
BRANCH   1   9
ATOM      6  C   UNL     1      -1.216  11.162  19.743  0.00  0.00    +0.000 A 
ATOM      7  C   UNL     1      -0.373  10.632  20.718  0.00  0.00    +0.000 A 
ATOM      8  C   UNL     1       0.663   9.762  20.371  0.00  0.00    +0.000 A 
ATOM      9  C   UNL     1       0.874   9.410  19.034  0.00  0.00    +0.000 A 
ATOM     10  C   UNL     1       0.019   9.922  18.050  0.00  0.00    +0.000 A 
ATOM     11  C   UNL     1      -1.027  10.785  18.408  0.00  0.00    +0.000 A 
BRANCH   6  14
ATOM     12  O   UNL     1      -1.108  14.017  20.469  0.00  0.00    +0.000 OA
ATOM     13  C   UNL     1      -2.158  13.379  20.410  0.00  0.00    +0.000 C 
ATOM     14  N   UNL     1      -2.272  12.047  20.045  0.00  0.00    +0.000 N 
ATOM     15  H   UNL     1      -3.216  11.714  19.872  0.00  0.00    +0.000 HD
BRANCH  13  16
ATOM     16  C   UNL     1      -3.455  14.043  20.840  0.00  0.00    +0.000 C 
ATOM     17 CL   UNL     1      -4.818  12.905  20.875  0.00  0.00    +0.000 Cl
ENDBRANCH  13  16
ENDBRANCH   6  14
ENDBRANCH   1   9
BRANCH   3  18
ATOM     18  C   UNL     1       4.011   5.496  18.790  0.00  0.00    +0.000 C 
BRANCH  18  19
ATOM     19  C   UNL     1       2.889   4.474  19.022  0.00  0.00    +0.000 A 
ATOM     20  C   UNL     1       1.941   4.153  18.032  0.00  0.00    +0.000 A 
ATOM     21  C   UNL     1       0.870   3.302  18.307  0.00  0.00    +0.000 A 
ATOM     22  C   UNL     1       0.716   2.748  19.578  0.00  0.00    +0.000 A 
ATOM     23  C   UNL     1       1.643   3.028  20.573  0.00  0.00    +0.000 A 
ATOM     24  C   UNL     1       2.717   3.883  20.297  0.00  0.00    +0.000 A 
ENDBRANCH  18  19
BRANCH  18  25
ATOM     25  C   UNL     1       4.925   5.254  17.571  0.00  0.00    +0.000 A 
ATOM     26  C   UNL     1       4.619   4.406  16.481  0.00  0.00    +0.000 A 
ATOM     27  C   UNL     1       5.502   4.214  15.418  0.00  0.00    +0.000 A 
ATOM     28  C   UNL     1       6.717   4.890  15.389  0.00  0.00    +0.000 A 
ATOM     29  C   UNL     1       7.039   5.757  16.430  0.00  0.00    +0.000 A 
ATOM     30  C   UNL     1       6.159   5.939  17.501  0.00  0.00    +0.000 A 
ENDBRANCH  18  25
BRANCH  18  31
ATOM     31  O   UNL     1       4.855   5.513  19.951  0.00  0.00    +0.000 OA
ATOM     32  H   UNL     1       4.267   5.745  20.694  0.00  0.00    +0.000 HD
ENDBRANCH  18  31
ENDBRANCH   3  18
TORSDOF 7
ENDMDL
MODEL 6
REMARK VINA RESULT:      -8.2      1.506      3.882
REMARK  Name = 
REMARK  7 active torsions:
REMARK  status: ('A' for Active; 'I' for Inactive)
REMARK    1  A    between atoms: C_2  and  C_3
REMARK    2  A    between atoms: N_5  and  C_6
REMARK    3  A    between atoms: C_9  and  N_10
REMARK    4  A    between atoms: C_12  and  C_13
REMARK    5  A    between atoms: C_13  and  O_14
REMARK    6  A    between atoms: C_13  and  C_15
REMARK    7  A    between atoms: C_13  and  C_21
REMARK                            x       y       z     vdW  Elec       q    Type
REMARK                         _______ _______ _______ _____ _____    ______ ____
ROOT
ATOM      1  N   UNL     1       2.513   7.980  18.799  0.00  0.00    +0.000 N 
ATOM      2  C   UNL     1       3.017   6.834  19.362  0.00  0.00    +0.000 A 
ATOM      3  C   UNL     1       3.782   6.247  18.370  0.00  0.00    +0.000 A 
ATOM      4  N   UNL     1       3.828   7.105  17.300  0.00  0.00    +0.000 NA
ATOM      5  N   UNL     1       3.065   8.156  17.574  0.00  0.00    +0.000 NA
ENDROOT
BRANCH   1   9
ATOM      6  C   UNL     1      -0.460  10.543  20.391  0.00  0.00    +0.000 A 
ATOM      7  C   UNL     1       0.054   9.493  21.148  0.00  0.00    +0.000 A 
ATOM      8  C   UNL     1       1.036   8.647  20.626  0.00  0.00    +0.000 A 
ATOM      9  C   UNL     1       1.522   8.844  19.330  0.00  0.00    +0.000 A 
ATOM     10  C   UNL     1       0.997   9.884  18.553  0.00  0.00    +0.000 A 
ATOM     11  C   UNL     1       0.002  10.722  19.081  0.00  0.00    +0.000 A 
BRANCH   6  14
ATOM     12  O   UNL     1      -0.580  11.974  22.965  0.00  0.00    +0.000 OA
ATOM     13  C   UNL     1      -1.466  12.048  22.115  0.00  0.00    +0.000 C 
ATOM     14  N   UNL     1      -1.448  11.424  20.877  0.00  0.00    +0.000 N 
ATOM     15  H   UNL     1      -2.162  11.723  20.220  0.00  0.00    +0.000 HD
BRANCH  13  16
ATOM     16  C   UNL     1      -2.739  12.812  22.433  0.00  0.00    +0.000 C 
ATOM     17 CL   UNL     1      -3.497  12.264  23.943  0.00  0.00    +0.000 Cl
ENDBRANCH  13  16
ENDBRANCH   6  14
ENDBRANCH   1   9
BRANCH   3  18
ATOM     18  C   UNL     1       4.448   4.890  18.320  0.00  0.00    +0.000 C 
BRANCH  18  19
ATOM     19  C   UNL     1       3.283   3.895  18.416  0.00  0.00    +0.000 A 
ATOM     20  C   UNL     1       1.976   4.217  18.002  0.00  0.00    +0.000 A 
ATOM     21  C   UNL     1       0.916   3.332  18.203  0.00  0.00    +0.000 A 
ATOM     22  C   UNL     1       1.132   2.100  18.821  0.00  0.00    +0.000 A 
ATOM     23  C   UNL     1       2.412   1.741  19.224  0.00  0.00    +0.000 A 
ATOM     24  C   UNL     1       3.474   2.631  19.024  0.00  0.00    +0.000 A 
ENDBRANCH  18  19
BRANCH  18  25
ATOM     25  C   UNL     1       5.315   4.816  17.046  0.00  0.00    +0.000 A 
ATOM     26  C   UNL     1       6.665   5.230  16.956  0.00  0.00    +0.000 A 
ATOM     27  C   UNL     1       7.388   5.156  15.764  0.00  0.00    +0.000 A 
ATOM     28  C   UNL     1       6.795   4.633  14.620  0.00  0.00    +0.000 A 
ATOM     29  C   UNL     1       5.477   4.188  14.679  0.00  0.00    +0.000 A 
ATOM     30  C   UNL     1       4.750   4.274  15.870  0.00  0.00    +0.000 A 
ENDBRANCH  18  25
BRANCH  18  31
ATOM     31  O   UNL     1       5.323   4.671  19.436  0.00  0.00    +0.000 OA
ATOM     32  H   UNL     1       4.897   5.120  20.189  0.00  0.00    +0.000 HD
ENDBRANCH  18  31
ENDBRANCH   3  18
TORSDOF 7
ENDMDL
MODEL 7
REMARK VINA RESULT:      -8.2      1.452      1.927
REMARK  Name = 
REMARK  7 active torsions:
REMARK  status: ('A' for Active; 'I' for Inactive)
REMARK    1  A    between atoms: C_2  and  C_3
REMARK    2  A    between atoms: N_5  and  C_6
REMARK    3  A    between atoms: C_9  and  N_10
REMARK    4  A    between atoms: C_12  and  C_13
REMARK    5  A    between atoms: C_13  and  O_14
REMARK    6  A    between atoms: C_13  and  C_15
REMARK    7  A    between atoms: C_13  and  C_21
REMARK                            x       y       z     vdW  Elec       q    Type
REMARK                         _______ _______ _______ _____ _____    ______ ____
ROOT
ATOM      1  N   UNL     1       2.120   8.231  18.832  0.00  0.00    +0.000 N 
ATOM      2  C   UNL     1       2.301   6.960  19.315  0.00  0.00    +0.000 A 
ATOM      3  C   UNL     1       3.076   6.317  18.367  0.00  0.00    +0.000 A 
ATOM      4  N   UNL     1       3.448   7.238  17.421  0.00  0.00    +0.000 NA
ATOM      5  N   UNL     1       2.871   8.397  17.717  0.00  0.00    +0.000 NA
ENDROOT
BRANCH   1   9
ATOM      6  C   UNL     1      -0.467  11.241  20.314  0.00  0.00    +0.000 A 
ATOM      7  C   UNL     1       0.075  11.336  19.034  0.00  0.00    +0.000 A 
ATOM      8  C   UNL     1       0.928  10.344  18.543  0.00  0.00    +0.000 A 
ATOM      9  C   UNL     1       1.248   9.233  19.330  0.00  0.00    +0.000 A 
ATOM     10  C   UNL     1       0.724   9.139  20.625  0.00  0.00    +0.000 A 
ATOM     11  C   UNL     1      -0.121  10.146  21.115  0.00  0.00    +0.000 A 
BRANCH   6  14
ATOM     12  O   UNL     1      -3.152  12.050  19.406  0.00  0.00    +0.000 OA
ATOM     13  C   UNL     1      -2.581  12.575  20.361  0.00  0.00    +0.000 C 
ATOM     14  N   UNL     1      -1.335  12.214  20.850  0.00  0.00    +0.000 N 
ATOM     15  H   UNL     1      -1.078  12.616  21.747  0.00  0.00    +0.000 HD
BRANCH  13  16
ATOM     16  C   UNL     1      -3.219  13.772  21.042  0.00  0.00    +0.000 C 
ATOM     17 CL   UNL     1      -4.993  13.715  20.990  0.00  0.00    +0.000 Cl
ENDBRANCH  13  16
ENDBRANCH   6  14
ENDBRANCH   1   9
BRANCH   3  18
ATOM     18  C   UNL     1       3.465   4.860  18.242  0.00  0.00    +0.000 C 
BRANCH  18  19
ATOM     19  C   UNL     1       5.000   4.876  18.269  0.00  0.00    +0.000 A 
ATOM     20  C   UNL     1       5.733   5.444  19.329  0.00  0.00    +0.000 A 
ATOM     21  C   UNL     1       7.124   5.541  19.274  0.00  0.00    +0.000 A 
ATOM     22  C   UNL     1       7.821   5.074  18.160  0.00  0.00    +0.000 A 
ATOM     23  C   UNL     1       7.132   4.490  17.105  0.00  0.00    +0.000 A 
ATOM     24  C   UNL     1       5.736   4.395  17.160  0.00  0.00    +0.000 A 
ENDBRANCH  18  19
BRANCH  18  25
ATOM     25  C   UNL     1       2.763   4.067  19.365  0.00  0.00    +0.000 A 
ATOM     26  C   UNL     1       3.418   3.452  20.457  0.00  0.00    +0.000 A 
ATOM     27  C   UNL     1       2.724   2.729  21.429  0.00  0.00    +0.000 A 
ATOM     28  C   UNL     1       1.340   2.623  21.363  0.00  0.00    +0.000 A 
ATOM     29  C   UNL     1       0.658   3.242  20.318  0.00  0.00    +0.000 A 
ATOM     30  C   UNL     1       1.355   3.955  19.338  0.00  0.00    +0.000 A 
ENDBRANCH  18  25
BRANCH  18  31
ATOM     31  O   UNL     1       3.040   4.288  16.996  0.00  0.00    +0.000 OA
ATOM     32  H   UNL     1       2.139   4.631  16.849  0.00  0.00    +0.000 HD
ENDBRANCH  18  31
ENDBRANCH   3  18
TORSDOF 7
ENDMDL
MODEL 8
REMARK VINA RESULT:      -8.1      0.718      1.689
REMARK  Name = 
REMARK  7 active torsions:
REMARK  status: ('A' for Active; 'I' for Inactive)
REMARK    1  A    between atoms: C_2  and  C_3
REMARK    2  A    between atoms: N_5  and  C_6
REMARK    3  A    between atoms: C_9  and  N_10
REMARK    4  A    between atoms: C_12  and  C_13
REMARK    5  A    between atoms: C_13  and  O_14
REMARK    6  A    between atoms: C_13  and  C_15
REMARK    7  A    between atoms: C_13  and  C_21
REMARK                            x       y       z     vdW  Elec       q    Type
REMARK                         _______ _______ _______ _____ _____    ______ ____
ROOT
ATOM      1  N   UNL     1       2.104   8.221  18.901  0.00  0.00    +0.000 N 
ATOM      2  C   UNL     1       2.354   6.960  19.381  0.00  0.00    +0.000 A 
ATOM      3  C   UNL     1       3.026   6.309  18.362  0.00  0.00    +0.000 A 
ATOM      4  N   UNL     1       3.278   7.218  17.366  0.00  0.00    +0.000 NA
ATOM      5  N   UNL     1       2.724   8.376  17.707  0.00  0.00    +0.000 NA
ENDROOT
BRANCH   1   9
ATOM      6  C   UNL     1      -0.340  11.227  20.614  0.00  0.00    +0.000 A 
ATOM      7  C   UNL     1      -0.018  11.259  19.259  0.00  0.00    +0.000 A 
ATOM      8  C   UNL     1       0.787  10.268  18.691  0.00  0.00    +0.000 A 
ATOM      9  C   UNL     1       1.281   9.222  19.478  0.00  0.00    +0.000 A 
ATOM     10  C   UNL     1       0.979   9.193  20.845  0.00  0.00    +0.000 A 
ATOM     11  C   UNL     1       0.180  10.199  21.409  0.00  0.00    +0.000 A 
BRANCH   6  14
ATOM     12  O   UNL     1       0.452  13.623  22.138  0.00  0.00    +0.000 OA
ATOM     13  C   UNL     1      -0.721  13.297  21.962  0.00  0.00    +0.000 C 
ATOM     14  N   UNL     1      -1.152  12.202  21.230  0.00  0.00    +0.000 N 
ATOM     15  H   UNL     1      -2.147  12.168  21.027  0.00  0.00    +0.000 HD
BRANCH  13  16
ATOM     16  C   UNL     1      -1.821  14.085  22.651  0.00  0.00    +0.000 C 
ATOM     17 CL   UNL     1      -3.249  14.300  21.617  0.00  0.00    +0.000 Cl
ENDBRANCH  13  16
ENDBRANCH   6  14
ENDBRANCH   1   9
BRANCH   3  18
ATOM     18  C   UNL     1       3.417   4.855  18.217  0.00  0.00    +0.000 C 
BRANCH  18  19
ATOM     19  C   UNL     1       4.952   4.872  18.246  0.00  0.00    +0.000 A 
ATOM     20  C   UNL     1       5.683   5.439  19.308  0.00  0.00    +0.000 A 
ATOM     21  C   UNL     1       7.074   5.537  19.255  0.00  0.00    +0.000 A 
ATOM     22  C   UNL     1       7.773   5.073  18.141  0.00  0.00    +0.000 A 
ATOM     23  C   UNL     1       7.086   4.492  17.083  0.00  0.00    +0.000 A 
ATOM     24  C   UNL     1       5.690   4.394  17.136  0.00  0.00    +0.000 A 
ENDBRANCH  18  19
BRANCH  18  25
ATOM     25  C   UNL     1       2.715   4.046  19.328  0.00  0.00    +0.000 A 
ATOM     26  C   UNL     1       1.315   3.900  19.466  0.00  0.00    +0.000 A 
ATOM     27  C   UNL     1       0.743   3.170  20.510  0.00  0.00    +0.000 A 
ATOM     28  C   UNL     1       1.554   2.529  21.439  0.00  0.00    +0.000 A 
ATOM     29  C   UNL     1       2.938   2.625  21.317  0.00  0.00    +0.000 A 
ATOM     30  C   UNL     1       3.510   3.367  20.279  0.00  0.00    +0.000 A 
ENDBRANCH  18  25
BRANCH  18  31
ATOM     31  O   UNL     1       2.994   4.300  16.963  0.00  0.00    +0.000 OA
ATOM     32  H   UNL     1       3.159   4.999  16.303  0.00  0.00    +0.000 HD
ENDBRANCH  18  31
ENDBRANCH   3  18
TORSDOF 7
ENDMDL
MODEL 9
REMARK VINA RESULT:      -8.1      1.511      3.815
REMARK  Name = 
REMARK  7 active torsions:
REMARK  status: ('A' for Active; 'I' for Inactive)
REMARK    1  A    between atoms: C_2  and  C_3
REMARK    2  A    between atoms: N_5  and  C_6
REMARK    3  A    between atoms: C_9  and  N_10
REMARK    4  A    between atoms: C_12  and  C_13
REMARK    5  A    between atoms: C_13  and  O_14
REMARK    6  A    between atoms: C_13  and  C_15
REMARK    7  A    between atoms: C_13  and  C_21
REMARK                            x       y       z     vdW  Elec       q    Type
REMARK                         _______ _______ _______ _____ _____    ______ ____
ROOT
ATOM      1  N   UNL     1       1.428   8.682  19.645  0.00  0.00    +0.000 N 
ATOM      2  C   UNL     1       2.213   7.688  20.174  0.00  0.00    +0.000 A 
ATOM      3  C   UNL     1       2.704   6.992  19.084  0.00  0.00    +0.000 A 
ATOM      4  N   UNL     1       2.319   7.654  17.945  0.00  0.00    +0.000 NA
ATOM      5  N   UNL     1       1.555   8.681  18.296  0.00  0.00    +0.000 NA
ENDROOT
BRANCH   1   9
ATOM      6  C   UNL     1      -1.204  11.272  21.721  0.00  0.00    +0.000 A 
ATOM      7  C   UNL     1      -0.414  10.355  22.413  0.00  0.00    +0.000 A 
ATOM      8  C   UNL     1       0.455   9.501  21.730  0.00  0.00    +0.000 A 
ATOM      9  C   UNL     1       0.550   9.555  20.336  0.00  0.00    +0.000 A 
ATOM     10  C   UNL     1      -0.254  10.459  19.631  0.00  0.00    +0.000 A 
ATOM     11  C   UNL     1      -1.133  11.305  20.323  0.00  0.00    +0.000 A 
BRANCH   6  14
ATOM     12  O   UNL     1      -0.608  13.542  23.504  0.00  0.00    +0.000 OA
ATOM     13  C   UNL     1      -1.754  13.193  23.223  0.00  0.00    +0.000 C 
ATOM     14  N   UNL     1      -2.092  12.156  22.367  0.00  0.00    +0.000 N 
ATOM     15  H   UNL     1      -3.070  12.105  22.097  0.00  0.00    +0.000 HD
BRANCH  13  16
ATOM     16  C   UNL     1      -2.927  13.875  23.905  0.00  0.00    +0.000 C 
ATOM     17 CL   UNL     1      -4.308  12.782  24.129  0.00  0.00    +0.000 Cl
ENDBRANCH  13  16
ENDBRANCH   6  14
ENDBRANCH   1   9
BRANCH   3  18
ATOM     18  C   UNL     1       3.480   5.696  19.017  0.00  0.00    +0.000 C 
BRANCH  18  19
ATOM     19  C   UNL     1       2.429   4.613  19.303  0.00  0.00    +0.000 A 
ATOM     20  C   UNL     1       2.274   4.027  20.574  0.00  0.00    +0.000 A 
ATOM     21  C   UNL     1       1.387   2.969  20.778  0.00  0.00    +0.000 A 
ATOM     22  C   UNL     1       0.629   2.469  19.719  0.00  0.00    +0.000 A 
ATOM     23  C   UNL     1       0.742   3.036  18.456  0.00  0.00    +0.000 A 
ATOM     24  C   UNL     1       1.635   4.096  18.252  0.00  0.00    +0.000 A 
ENDBRANCH  18  19
BRANCH  18  25
ATOM     25  C   UNL     1       4.193   5.621  17.651  0.00  0.00    +0.000 A 
ATOM     26  C   UNL     1       4.704   6.732  16.939  0.00  0.00    +0.000 A 
ATOM     27  C   UNL     1       5.321   6.597  15.694  0.00  0.00    +0.000 A 
ATOM     28  C   UNL     1       5.480   5.337  15.127  0.00  0.00    +0.000 A 
ATOM     29  C   UNL     1       5.016   4.218  15.813  0.00  0.00    +0.000 A 
ATOM     30  C   UNL     1       4.387   4.355  17.054  0.00  0.00    +0.000 A 
ENDBRANCH  18  25
BRANCH  18  31
ATOM     31  O   UNL     1       4.497   5.617  20.026  0.00  0.00    +0.000 OA
ATOM     32  H   UNL     1       5.288   5.278  19.569  0.00  0.00    +0.000 HD
ENDBRANCH  18  31
ENDBRANCH   3  18
TORSDOF 7
ENDMDL
