MODEL 1
REMARK VINA RESULT:      -9.2      0.000      0.000
REMARK  Name = 
REMARK  6 active torsions:
REMARK  status: ('A' for Active; 'I' for Inactive)
REMARK    1  A    between atoms: C_1  and  N_2
REMARK    2  A    between atoms: N_6  and  C_7
REMARK    3  A    between atoms: C_7  and  C_8
REMARK    4  A    between atoms: C_11  and  N_12
REMARK    5  A    between atoms: C_13  and  C_15
REMARK    6  A    between atoms: C_26  and  C_27
REMARK                            x       y       z     vdW  Elec       q    Type
REMARK                         _______ _______ _______ _____ _____    ______ ____
ROOT
ATOM      1  C   UNL     1       2.810   8.609  17.992  0.00  0.00    +0.000 C 
ENDROOT
BRANCH   1   7
ATOM      2  C   UNL     1       7.365   7.535  17.272  0.00  0.00    +0.000 C 
ATOM      3  N   UNL     1       6.958   6.256  16.737  0.00  0.00    +0.000 N 
ATOM      4  C   UNL     1       5.697   5.840  17.144  0.00  0.00    +0.000 A 
ATOM      5  N   UNL     1       4.735   6.739  17.393  0.00  0.00    +0.000 NA
ATOM      6  C   UNL     1       3.525   6.281  17.740  0.00  0.00    +0.000 A 
ATOM      7  N   UNL     1       2.493   7.192  18.033  0.00  0.00    +0.000 N 
ATOM      8  C   UNL     1       3.262   4.908  17.864  0.00  0.00    +0.000 A 
ATOM      9  C   UNL     1       2.007   4.363  18.234  0.00  0.00    +0.000 A 
ATOM     10  C   UNL     1       1.819   2.986  18.359  0.00  0.00    +0.000 A 
ATOM     11  C   UNL     1       0.485   2.432  18.756  0.00  0.00    +0.000 C 
ATOM     12  C   UNL     1       2.909   2.147  18.138  0.00  0.00    +0.000 A 
ATOM     13  C   UNL     1       4.147   2.687  17.765  0.00  0.00    +0.000 A 
ATOM     14  C   UNL     1       4.342   4.057  17.616  0.00  0.00    +0.000 A 
ATOM     15  N   UNL     1       5.544   4.516  17.256  0.00  0.00    +0.000 NA
ATOM     16  H   UNL     1       7.585   5.480  16.921  0.00  0.00    +0.000 HD
ATOM     17  H   UNL     1       1.684   6.976  17.461  0.00  0.00    +0.000 HD
ENDBRANCH   1   7
BRANCH   1  18
ATOM     18  C   UNL     1       1.726   9.341  18.761  0.00  0.00    +0.000 A 
ATOM     19  C   UNL     1       1.222   8.807  19.951  0.00  0.00    +0.000 A 
ATOM     20  C   UNL     1       0.175   9.437  20.633  0.00  0.00    +0.000 A 
ATOM     21  C   UNL     1      -0.405  10.613  20.146  0.00  0.00    +0.000 A 
ATOM     22  C   UNL     1       0.087  11.142  18.945  0.00  0.00    +0.000 A 
ATOM     23  C   UNL     1       1.143  10.514  18.262  0.00  0.00    +0.000 A 
BRANCH  21  24
ATOM     24  N   UNL     1      -1.476  11.279  20.791  0.00  0.00    +0.000 N 
ATOM     25  C   UNL     1      -1.454  11.747  22.099  0.00  0.00    +0.000 C 
ATOM     26  O   UNL     1      -0.485  11.724  22.853  0.00  0.00    +0.000 OA
ATOM     27  H   UNL     1      -2.274  11.516  20.217  0.00  0.00    +0.000 HD
BRANCH  25  28
ATOM     28  C   UNL     1      -2.698  12.376  22.632  0.00  0.00    +0.000 A 
ATOM     29  C   UNL     1      -3.179  12.151  23.927  0.00  0.00    +0.000 A 
ATOM     30  C   UNL     1      -4.303  12.854  24.381  0.00  0.00    +0.000 A 
ATOM     31  C   UNL     1      -4.934  13.775  23.545  0.00  0.00    +0.000 A 
ATOM     32  F   UNL     1      -5.994  14.457  23.994  0.00  0.00    +0.000 F 
ATOM     33  C   UNL     1      -4.466  14.011  22.260  0.00  0.00    +0.000 A 
ATOM     34  C   UNL     1      -3.348  13.313  21.805  0.00  0.00    +0.000 A 
ENDBRANCH  25  28
ENDBRANCH  21  24
ENDBRANCH   1  18
TORSDOF 4
ENDMDL
MODEL 2
REMARK VINA RESULT:      -9.1      1.023      1.437
REMARK  Name = 
REMARK  6 active torsions:
REMARK  status: ('A' for Active; 'I' for Inactive)
REMARK    1  A    between atoms: C_1  and  N_2
REMARK    2  A    between atoms: N_6  and  C_7
REMARK    3  A    between atoms: C_7  and  C_8
REMARK    4  A    between atoms: C_11  and  N_12
REMARK    5  A    between atoms: C_13  and  C_15
REMARK    6  A    between atoms: C_26  and  C_27
REMARK                            x       y       z     vdW  Elec       q    Type
REMARK                         _______ _______ _______ _____ _____    ______ ____
ROOT
ATOM      1  C   UNL     1       2.745   8.237  17.769  0.00  0.00    +0.000 C 
ENDROOT
BRANCH   1   7
ATOM      2  C   UNL     1       7.356   7.206  17.452  0.00  0.00    +0.000 C 
ATOM      3  N   UNL     1       7.007   5.880  16.995  0.00  0.00    +0.000 N 
ATOM      4  C   UNL     1       5.727   5.471  17.346  0.00  0.00    +0.000 A 
ATOM      5  N   UNL     1       4.736   6.367  17.456  0.00  0.00    +0.000 NA
ATOM      6  C   UNL     1       3.512   5.911  17.754  0.00  0.00    +0.000 A 
ATOM      7  N   UNL     1       2.448   6.821  17.902  0.00  0.00    +0.000 N 
ATOM      8  C   UNL     1       3.263   4.547  17.969  0.00  0.00    +0.000 A 
ATOM      9  C   UNL     1       1.994   4.006  18.295  0.00  0.00    +0.000 A 
ATOM     10  C   UNL     1       1.818   2.640  18.516  0.00  0.00    +0.000 A 
ATOM     11  C   UNL     1       0.469   2.092  18.864  0.00  0.00    +0.000 C 
ATOM     12  C   UNL     1       2.934   1.810  18.438  0.00  0.00    +0.000 A 
ATOM     13  C   UNL     1       4.186   2.345  18.110  0.00  0.00    +0.000 A 
ATOM     14  C   UNL     1       4.370   3.703  17.865  0.00  0.00    +0.000 A 
ATOM     15  N   UNL     1       5.587   4.157  17.553  0.00  0.00    +0.000 NA
ATOM     16  H   UNL     1       7.632   5.134  17.283  0.00  0.00    +0.000 HD
ATOM     17  H   UNL     1       1.685   6.543  17.295  0.00  0.00    +0.000 HD
ENDBRANCH   1   7
BRANCH   1  18
ATOM     18  C   UNL     1       1.769   8.991  18.652  0.00  0.00    +0.000 A 
ATOM     19  C   UNL     1       1.109  10.125  18.166  0.00  0.00    +0.000 A 
ATOM     20  C   UNL     1       0.259  10.869  18.993  0.00  0.00    +0.000 A 
ATOM     21  C   UNL     1       0.046  10.509  20.327  0.00  0.00    +0.000 A 
ATOM     22  C   UNL     1       0.717   9.383  20.821  0.00  0.00    +0.000 A 
ATOM     23  C   UNL     1       1.566   8.630  19.992  0.00  0.00    +0.000 A 
BRANCH  21  24
ATOM     24  N   UNL     1      -0.793  11.238  21.207  0.00  0.00    +0.000 N 
ATOM     25  C   UNL     1      -0.410  12.362  21.927  0.00  0.00    +0.000 C 
ATOM     26  O   UNL     1       0.676  12.932  21.846  0.00  0.00    +0.000 OA
ATOM     27  H   UNL     1      -1.768  10.972  21.227  0.00  0.00    +0.000 HD
BRANCH  25  28
ATOM     28  C   UNL     1      -1.412  12.969  22.851  0.00  0.00    +0.000 A 
ATOM     29  C   UNL     1      -1.210  14.188  23.511  0.00  0.00    +0.000 A 
ATOM     30  C   UNL     1      -2.241  14.733  24.287  0.00  0.00    +0.000 A 
ATOM     31  C   UNL     1      -3.460  14.066  24.397  0.00  0.00    +0.000 A 
ATOM     32  F   UNL     1      -4.445  14.606  25.125  0.00  0.00    +0.000 F 
ATOM     33  C   UNL     1      -3.675  12.860  23.747  0.00  0.00    +0.000 A 
ATOM     34  C   UNL     1      -2.652  12.313  22.974  0.00  0.00    +0.000 A 
ENDBRANCH  25  28
ENDBRANCH  21  24
ENDBRANCH   1  18
TORSDOF 4
ENDMDL
MODEL 3
REMARK VINA RESULT:      -9.1      1.524      1.567
REMARK  Name = 
REMARK  6 active torsions:
REMARK  status: ('A' for Active; 'I' for Inactive)
REMARK    1  A    between atoms: C_1  and  N_2
REMARK    2  A    between atoms: N_6  and  C_7
REMARK    3  A    between atoms: C_7  and  C_8
REMARK    4  A    between atoms: C_11  and  N_12
REMARK    5  A    between atoms: C_13  and  C_15
REMARK    6  A    between atoms: C_26  and  C_27
REMARK                            x       y       z     vdW  Elec       q    Type
REMARK                         _______ _______ _______ _____ _____    ______ ____
ROOT
ATOM      1  C   UNL     1       2.566   8.000  18.042  0.00  0.00    +0.000 C 
ENDROOT
BRANCH   1   7
ATOM      2  C   UNL     1       7.159   7.213  17.201  0.00  0.00    +0.000 C 
ATOM      3  N   UNL     1       6.909   5.792  17.277  0.00  0.00    +0.000 N 
ATOM      4  C   UNL     1       5.761   5.449  17.981  0.00  0.00    +0.000 A 
ATOM      5  N   UNL     1       4.697   6.264  17.981  0.00  0.00    +0.000 NA
ATOM      6  C   UNL     1       3.603   5.863  18.640  0.00  0.00    +0.000 A 
ATOM      7  N   UNL     1       2.471   6.699  18.684  0.00  0.00    +0.000 N 
ATOM      8  C   UNL     1       3.561   4.643  19.332  0.00  0.00    +0.000 A 
ATOM      9  C   UNL     1       2.437   4.169  20.053  0.00  0.00    +0.000 A 
ATOM     10  C   UNL     1       2.469   2.953  20.737  0.00  0.00    +0.000 A 
ATOM     11  C   UNL     1       1.271   2.474  21.496  0.00  0.00    +0.000 C 
ATOM     12  C   UNL     1       3.653   2.218  20.722  0.00  0.00    +0.000 A 
ATOM     13  C   UNL     1       4.761   2.685  20.003  0.00  0.00    +0.000 A 
ATOM     14  C   UNL     1       4.734   3.885  19.299  0.00  0.00    +0.000 A 
ATOM     15  N   UNL     1       5.820   4.280  18.628  0.00  0.00    +0.000 NA
ATOM     16  H   UNL     1       7.659   5.231  17.667  0.00  0.00    +0.000 HD
ATOM     17  H   UNL     1       1.661   6.183  18.359  0.00  0.00    +0.000 HD
ENDBRANCH   1   7
BRANCH   1  18
ATOM     18  C   UNL     1       1.797   8.987  18.900  0.00  0.00    +0.000 A 
ATOM     19  C   UNL     1       1.464   8.666  20.220  0.00  0.00    +0.000 A 
ATOM     20  C   UNL     1       0.696   9.540  20.998  0.00  0.00    +0.000 A 
ATOM     21  C   UNL     1       0.232  10.754  20.483  0.00  0.00    +0.000 A 
ATOM     22  C   UNL     1       0.550  11.071  19.156  0.00  0.00    +0.000 A 
ATOM     23  C   UNL     1       1.327  10.199  18.374  0.00  0.00    +0.000 A 
BRANCH  21  24
ATOM     24  N   UNL     1      -0.560  11.664  21.226  0.00  0.00    +0.000 N 
ATOM     25  C   UNL     1      -0.889  11.526  22.569  0.00  0.00    +0.000 C 
ATOM     26  O   UNL     1      -0.477  10.648  23.322  0.00  0.00    +0.000 OA
ATOM     27  H   UNL     1      -0.817  12.525  20.762  0.00  0.00    +0.000 HD
BRANCH  25  28
ATOM     28  C   UNL     1      -1.783  12.557  23.174  0.00  0.00    +0.000 A 
ATOM     29  C   UNL     1      -3.077  12.278  23.630  0.00  0.00    +0.000 A 
ATOM     30  C   UNL     1      -3.816  13.282  24.271  0.00  0.00    +0.000 A 
ATOM     31  C   UNL     1      -3.261  14.548  24.454  0.00  0.00    +0.000 A 
ATOM     32  F   UNL     1      -3.967  15.494  25.085  0.00  0.00    +0.000 F 
ATOM     33  C   UNL     1      -1.979  14.837  24.009  0.00  0.00    +0.000 A 
ATOM     34  C   UNL     1      -1.241  13.842  23.370  0.00  0.00    +0.000 A 
ENDBRANCH  25  28
ENDBRANCH  21  24
ENDBRANCH   1  18
TORSDOF 4
ENDMDL
MODEL 4
REMARK VINA RESULT:      -9.0      1.094      1.438
REMARK  Name = 
REMARK  6 active torsions:
REMARK  status: ('A' for Active; 'I' for Inactive)
REMARK    1  A    between atoms: C_1  and  N_2
REMARK    2  A    between atoms: N_6  and  C_7
REMARK    3  A    between atoms: C_7  and  C_8
REMARK    4  A    between atoms: C_11  and  N_12
REMARK    5  A    between atoms: C_13  and  C_15
REMARK    6  A    between atoms: C_26  and  C_27
REMARK                            x       y       z     vdW  Elec       q    Type
REMARK                         _______ _______ _______ _____ _____    ______ ____
ROOT
ATOM      1  C   UNL     1       2.815   8.510  17.625  0.00  0.00    +0.000 C 
ENDROOT
BRANCH   1   7
ATOM      2  C   UNL     1       7.426   7.439  17.491  0.00  0.00    +0.000 C 
ATOM      3  N   UNL     1       7.077   6.063  17.223  0.00  0.00    +0.000 N 
ATOM      4  C   UNL     1       5.793   5.708  17.619  0.00  0.00    +0.000 A 
ATOM      5  N   UNL     1       4.804   6.612  17.594  0.00  0.00    +0.000 NA
ATOM      6  C   UNL     1       3.577   6.205  17.944  0.00  0.00    +0.000 A 
ATOM      7  N   UNL     1       2.513   7.128  17.953  0.00  0.00    +0.000 N 
ATOM      8  C   UNL     1       3.322   4.886  18.348  0.00  0.00    +0.000 A 
ATOM      9  C   UNL     1       2.050   4.398  18.738  0.00  0.00    +0.000 A 
ATOM     10  C   UNL     1       1.870   3.077  19.149  0.00  0.00    +0.000 A 
ATOM     11  C   UNL     1       0.516   2.585  19.560  0.00  0.00    +0.000 C 
ATOM     12  C   UNL     1       2.984   2.242  19.197  0.00  0.00    +0.000 A 
ATOM     13  C   UNL     1       4.240   2.724  18.806  0.00  0.00    +0.000 A 
ATOM     14  C   UNL     1       4.428   4.034  18.373  0.00  0.00    +0.000 A 
ATOM     15  N   UNL     1       5.649   4.438  18.009  0.00  0.00    +0.000 NA
ATOM     16  H   UNL     1       7.698   5.363  17.619  0.00  0.00    +0.000 HD
ATOM     17  H   UNL     1       1.754   6.768  17.386  0.00  0.00    +0.000 HD
ENDBRANCH   1   7
BRANCH   1  18
ATOM     18  C   UNL     1       1.891   9.387  18.449  0.00  0.00    +0.000 A 
ATOM     19  C   UNL     1       1.867  10.771  18.249  0.00  0.00    +0.000 A 
ATOM     20  C   UNL     1       1.069  11.597  19.050  0.00  0.00    +0.000 A 
ATOM     21  C   UNL     1       0.279  11.070  20.076  0.00  0.00    +0.000 A 
ATOM     22  C   UNL     1       0.313   9.685  20.289  0.00  0.00    +0.000 A 
ATOM     23  C   UNL     1       1.108   8.853  19.482  0.00  0.00    +0.000 A 
BRANCH  21  24
ATOM     24  N   UNL     1      -0.532  11.866  20.922  0.00  0.00    +0.000 N 
ATOM     25  C   UNL     1      -0.680  11.682  22.291  0.00  0.00    +0.000 C 
ATOM     26  O   UNL     1      -0.071  10.862  22.975  0.00  0.00    +0.000 OA
ATOM     27  H   UNL     1      -0.952  12.687  20.507  0.00  0.00    +0.000 HD
BRANCH  25  28
ATOM     28  C   UNL     1      -1.623  12.584  23.015  0.00  0.00    +0.000 A 
ATOM     29  C   UNL     1      -2.915  12.199  23.394  0.00  0.00    +0.000 A 
ATOM     30  C   UNL     1      -3.703  13.074  24.153  0.00  0.00    +0.000 A 
ATOM     31  C   UNL     1      -3.199  14.319  24.530  0.00  0.00    +0.000 A 
ATOM     32  F   UNL     1      -3.952  15.139  25.272  0.00  0.00    +0.000 F 
ATOM     33  C   UNL     1      -1.920  14.711  24.164  0.00  0.00    +0.000 A 
ATOM     34  C   UNL     1      -1.132  13.844  23.408  0.00  0.00    +0.000 A 
ENDBRANCH  25  28
ENDBRANCH  21  24
ENDBRANCH   1  18
TORSDOF 4
ENDMDL
MODEL 5
REMARK VINA RESULT:      -9.0      1.221      1.482
REMARK  Name = 
REMARK  6 active torsions:
REMARK  status: ('A' for Active; 'I' for Inactive)
REMARK    1  A    between atoms: C_1  and  N_2
REMARK    2  A    between atoms: N_6  and  C_7
REMARK    3  A    between atoms: C_7  and  C_8
REMARK    4  A    between atoms: C_11  and  N_12
REMARK    5  A    between atoms: C_13  and  C_15
REMARK    6  A    between atoms: C_26  and  C_27
REMARK                            x       y       z     vdW  Elec       q    Type
REMARK                         _______ _______ _______ _____ _____    ______ ____
ROOT
ATOM      1  C   UNL     1       2.585   8.080  18.196  0.00  0.00    +0.000 C 
ENDROOT
BRANCH   1   7
ATOM      2  C   UNL     1       7.124   7.203  17.171  0.00  0.00    +0.000 C 
ATOM      3  N   UNL     1       6.843   5.787  17.234  0.00  0.00    +0.000 N 
ATOM      4  C   UNL     1       5.715   5.458  17.975  0.00  0.00    +0.000 A 
ATOM      5  N   UNL     1       4.672   6.298  18.027  0.00  0.00    +0.000 NA
ATOM      6  C   UNL     1       3.593   5.911  18.721  0.00  0.00    +0.000 A 
ATOM      7  N   UNL     1       2.483   6.772  18.820  0.00  0.00    +0.000 N 
ATOM      8  C   UNL     1       3.549   4.681  19.395  0.00  0.00    +0.000 A 
ATOM      9  C   UNL     1       2.442   4.220  20.151  0.00  0.00    +0.000 A 
ATOM     10  C   UNL     1       2.471   2.994  20.814  0.00  0.00    +0.000 A 
ATOM     11  C   UNL     1       1.291   2.529  21.611  0.00  0.00    +0.000 C 
ATOM     12  C   UNL     1       3.636   2.232  20.743  0.00  0.00    +0.000 A 
ATOM     13  C   UNL     1       4.727   2.685  19.991  0.00  0.00    +0.000 A 
ATOM     14  C   UNL     1       4.701   3.897  19.306  0.00  0.00    +0.000 A 
ATOM     15  N   UNL     1       5.771   4.278  18.602  0.00  0.00    +0.000 NA
ATOM     16  H   UNL     1       7.594   5.202  17.587  0.00  0.00    +0.000 HD
ATOM     17  H   UNL     1       1.651   6.279  18.518  0.00  0.00    +0.000 HD
ENDBRANCH   1   7
BRANCH   1  18
ATOM     18  C   UNL     1       1.625   9.005  18.920  0.00  0.00    +0.000 A 
ATOM     19  C   UNL     1       1.127   8.660  20.181  0.00  0.00    +0.000 A 
ATOM     20  C   UNL     1       0.189   9.472  20.828  0.00  0.00    +0.000 A 
ATOM     21  C   UNL     1      -0.285  10.647  20.237  0.00  0.00    +0.000 A 
ATOM     22  C   UNL     1       0.200  10.988  18.967  0.00  0.00    +0.000 A 
ATOM     23  C   UNL     1       1.147  10.178  18.318  0.00  0.00    +0.000 A 
BRANCH  21  24
ATOM     24  N   UNL     1      -1.245  11.493  20.845  0.00  0.00    +0.000 N 
ATOM     25  C   UNL     1      -1.292  11.806  22.198  0.00  0.00    +0.000 C 
ATOM     26  O   UNL     1      -0.468  11.463  23.043  0.00  0.00    +0.000 OA
ATOM     27  H   UNL     1      -1.877  11.981  20.225  0.00  0.00    +0.000 HD
BRANCH  25  28
ATOM     28  C   UNL     1      -2.410  12.672  22.672  0.00  0.00    +0.000 A 
ATOM     29  C   UNL     1      -2.768  13.874  22.048  0.00  0.00    +0.000 A 
ATOM     30  C   UNL     1      -3.891  14.580  22.500  0.00  0.00    +0.000 A 
ATOM     31  C   UNL     1      -4.647  14.084  23.561  0.00  0.00    +0.000 A 
ATOM     32  F   UNL     1      -5.729  14.756  23.972  0.00  0.00    +0.000 F 
ATOM     33  C   UNL     1      -4.306  12.894  24.186  0.00  0.00    +0.000 A 
ATOM     34  C   UNL     1      -3.189  12.188  23.741  0.00  0.00    +0.000 A 
ENDBRANCH  25  28
ENDBRANCH  21  24
ENDBRANCH   1  18
TORSDOF 4
ENDMDL
MODEL 6
REMARK VINA RESULT:      -8.8      3.121      5.391
REMARK  Name = 
REMARK  6 active torsions:
REMARK  status: ('A' for Active; 'I' for Inactive)
REMARK    1  A    between atoms: C_1  and  N_2
REMARK    2  A    between atoms: N_6  and  C_7
REMARK    3  A    between atoms: C_7  and  C_8
REMARK    4  A    between atoms: C_11  and  N_12
REMARK    5  A    between atoms: C_13  and  C_15
REMARK    6  A    between atoms: C_26  and  C_27
REMARK                            x       y       z     vdW  Elec       q    Type
REMARK                         _______ _______ _______ _____ _____    ______ ____
ROOT
ATOM      1  C   UNL     1       4.498   2.945  18.006  0.00  0.00    +0.000 C 
ENDROOT
BRANCH   1   7
ATOM      2  C   UNL     1       7.916   6.095  18.908  0.00  0.00    +0.000 C 
ATOM      3  N   UNL     1       7.773   6.605  17.564  0.00  0.00    +0.000 N 
ATOM      4  C   UNL     1       7.197   5.711  16.670  0.00  0.00    +0.000 A 
ATOM      5  N   UNL     1       6.288   4.822  17.093  0.00  0.00    +0.000 NA
ATOM      6  C   UNL     1       5.732   4.014  16.181  0.00  0.00    +0.000 A 
ATOM      7  N   UNL     1       4.790   3.049  16.586  0.00  0.00    +0.000 N 
ATOM      8  C   UNL     1       6.095   4.067  14.827  0.00  0.00    +0.000 A 
ATOM      9  C   UNL     1       5.550   3.235  13.817  0.00  0.00    +0.000 A 
ATOM     10  C   UNL     1       5.971   3.327  12.490  0.00  0.00    +0.000 A 
ATOM     11  C   UNL     1       5.384   2.433  11.441  0.00  0.00    +0.000 C 
ATOM     12  C   UNL     1       6.970   4.245  12.176  0.00  0.00    +0.000 A 
ATOM     13  C   UNL     1       7.503   5.072  13.173  0.00  0.00    +0.000 A 
ATOM     14  C   UNL     1       7.076   5.005  14.497  0.00  0.00    +0.000 A 
ATOM     15  N   UNL     1       7.618   5.820  15.406  0.00  0.00    +0.000 NA
ATOM     16  H   UNL     1       8.625   6.936  17.123  0.00  0.00    +0.000 HD
ATOM     17  H   UNL     1       3.943   3.160  16.040  0.00  0.00    +0.000 HD
ENDBRANCH   1   7
BRANCH   1  18
ATOM     18  C   UNL     1       3.689   4.168  18.396  0.00  0.00    +0.000 A 
ATOM     19  C   UNL     1       2.543   4.515  17.672  0.00  0.00    +0.000 A 
ATOM     20  C   UNL     1       1.827   5.678  17.979  0.00  0.00    +0.000 A 
ATOM     21  C   UNL     1       2.235   6.531  19.010  0.00  0.00    +0.000 A 
ATOM     22  C   UNL     1       3.391   6.193  19.726  0.00  0.00    +0.000 A 
ATOM     23  C   UNL     1       4.108   5.023  19.424  0.00  0.00    +0.000 A 
BRANCH  21  24
ATOM     24  N   UNL     1       1.553   7.726  19.348  0.00  0.00    +0.000 N 
ATOM     25  C   UNL     1       1.561   8.892  18.593  0.00  0.00    +0.000 C 
ATOM     26  O   UNL     1       2.088   9.030  17.492  0.00  0.00    +0.000 OA
ATOM     27  H   UNL     1       0.936   7.685  20.149  0.00  0.00    +0.000 HD
BRANCH  25  28
ATOM     28  C   UNL     1       0.830  10.074  19.134  0.00  0.00    +0.000 A 
ATOM     29  C   UNL     1       1.235  10.770  20.280  0.00  0.00    +0.000 A 
ATOM     30  C   UNL     1       0.546  11.926  20.667  0.00  0.00    +0.000 A 
ATOM     31  C   UNL     1      -0.535  12.381  19.912  0.00  0.00    +0.000 A 
ATOM     32  F   UNL     1      -1.174  13.498  20.279  0.00  0.00    +0.000 F 
ATOM     33  C   UNL     1      -0.946  11.704  18.774  0.00  0.00    +0.000 A 
ATOM     34  C   UNL     1      -0.263  10.552  18.384  0.00  0.00    +0.000 A 
ENDBRANCH  25  28
ENDBRANCH  21  24
ENDBRANCH   1  18
TORSDOF 4
ENDMDL
MODEL 7
REMARK VINA RESULT:      -8.7      1.450      1.822
REMARK  Name = 
REMARK  6 active torsions:
REMARK  status: ('A' for Active; 'I' for Inactive)
REMARK    1  A    between atoms: C_1  and  N_2
REMARK    2  A    between atoms: N_6  and  C_7
REMARK    3  A    between atoms: C_7  and  C_8
REMARK    4  A    between atoms: C_11  and  N_12
REMARK    5  A    between atoms: C_13  and  C_15
REMARK    6  A    between atoms: C_26  and  C_27
REMARK                            x       y       z     vdW  Elec       q    Type
REMARK                         _______ _______ _______ _____ _____    ______ ____
ROOT
ATOM      1  C   UNL     1       2.587   8.052  18.312  0.00  0.00    +0.000 C 
ENDROOT
BRANCH   1   7
ATOM      2  C   UNL     1       7.121   7.211  17.237  0.00  0.00    +0.000 C 
ATOM      3  N   UNL     1       6.846   5.794  17.278  0.00  0.00    +0.000 N 
ATOM      4  C   UNL     1       5.725   5.447  18.022  0.00  0.00    +0.000 A 
ATOM      5  N   UNL     1       4.679   6.281  18.097  0.00  0.00    +0.000 NA
ATOM      6  C   UNL     1       3.607   5.878  18.792  0.00  0.00    +0.000 A 
ATOM      7  N   UNL     1       2.495   6.733  18.915  0.00  0.00    +0.000 N 
ATOM      8  C   UNL     1       3.573   4.637  19.445  0.00  0.00    +0.000 A 
ATOM      9  C   UNL     1       2.473   4.159  20.201  0.00  0.00    +0.000 A 
ATOM     10  C   UNL     1       2.513   2.921  20.843  0.00  0.00    +0.000 A 
ATOM     11  C   UNL     1       1.340   2.438  21.640  0.00  0.00    +0.000 C 
ATOM     12  C   UNL     1       3.680   2.165  20.749  0.00  0.00    +0.000 A 
ATOM     13  C   UNL     1       4.763   2.636  19.997  0.00  0.00    +0.000 A 
ATOM     14  C   UNL     1       4.728   3.859  19.334  0.00  0.00    +0.000 A 
ATOM     15  N   UNL     1       5.790   4.257  18.628  0.00  0.00    +0.000 NA
ATOM     16  H   UNL     1       7.602   5.206  17.615  0.00  0.00    +0.000 HD
ATOM     17  H   UNL     1       1.662   6.243  18.610  0.00  0.00    +0.000 HD
ENDBRANCH   1   7
BRANCH   1  18
ATOM     18  C   UNL     1       1.557   8.935  18.992  0.00  0.00    +0.000 A 
ATOM     19  C   UNL     1       1.063  10.072  18.343  0.00  0.00    +0.000 A 
ATOM     20  C   UNL     1       0.165  10.931  18.987  0.00  0.00    +0.000 A 
ATOM     21  C   UNL     1      -0.261  10.688  20.295  0.00  0.00    +0.000 A 
ATOM     22  C   UNL     1       0.244   9.559  20.954  0.00  0.00    +0.000 A 
ATOM     23  C   UNL     1       1.140   8.691  20.308  0.00  0.00    +0.000 A 
BRANCH  21  24
ATOM     24  N   UNL     1      -1.156  11.536  20.994  0.00  0.00    +0.000 N 
ATOM     25  C   UNL     1      -0.780  12.573  21.838  0.00  0.00    +0.000 C 
ATOM     26  O   UNL     1       0.370  12.955  22.037  0.00  0.00    +0.000 OA
ATOM     27  H   UNL     1      -2.139  11.435  20.777  0.00  0.00    +0.000 HD
BRANCH  25  28
ATOM     28  C   UNL     1      -1.862  13.327  22.536  0.00  0.00    +0.000 A 
ATOM     29  C   UNL     1      -1.948  14.725  22.533  0.00  0.00    +0.000 A 
ATOM     30  C   UNL     1      -3.048  15.352  23.134  0.00  0.00    +0.000 A 
ATOM     31  C   UNL     1      -4.051  14.585  23.726  0.00  0.00    +0.000 A 
ATOM     32  F   UNL     1      -5.107  15.193  24.279  0.00  0.00    +0.000 F 
ATOM     33  C   UNL     1      -3.980  13.200  23.733  0.00  0.00    +0.000 A 
ATOM     34  C   UNL     1      -2.887  12.572  23.137  0.00  0.00    +0.000 A 
ENDBRANCH  25  28
ENDBRANCH  21  24
ENDBRANCH   1  18
TORSDOF 4
ENDMDL
MODEL 8
REMARK VINA RESULT:      -8.6      0.897      1.262
REMARK  Name = 
REMARK  6 active torsions:
REMARK  status: ('A' for Active; 'I' for Inactive)
REMARK    1  A    between atoms: C_1  and  N_2
REMARK    2  A    between atoms: N_6  and  C_7
REMARK    3  A    between atoms: C_7  and  C_8
REMARK    4  A    between atoms: C_11  and  N_12
REMARK    5  A    between atoms: C_13  and  C_15
REMARK    6  A    between atoms: C_26  and  C_27
REMARK                            x       y       z     vdW  Elec       q    Type
REMARK                         _______ _______ _______ _____ _____    ______ ____
ROOT
ATOM      1  C   UNL     1       2.739   8.681  17.881  0.00  0.00    +0.000 C 
ENDROOT
BRANCH   1   7
ATOM      2  C   UNL     1       7.331   7.677  17.308  0.00  0.00    +0.000 C 
ATOM      3  N   UNL     1       6.962   6.375  16.802  0.00  0.00    +0.000 N 
ATOM      4  C   UNL     1       5.699   5.946  17.190  0.00  0.00    +0.000 A 
ATOM      5  N   UNL     1       4.714   6.833  17.387  0.00  0.00    +0.000 NA
ATOM      6  C   UNL     1       3.505   6.361  17.717  0.00  0.00    +0.000 A 
ATOM      7  N   UNL     1       2.448   7.259  17.956  0.00  0.00    +0.000 N 
ATOM      8  C   UNL     1       3.265   4.987  17.876  0.00  0.00    +0.000 A 
ATOM      9  C   UNL     1       2.012   4.428  18.231  0.00  0.00    +0.000 A 
ATOM     10  C   UNL     1       1.847   3.052  18.392  0.00  0.00    +0.000 A 
ATOM     11  C   UNL     1       0.514   2.484  18.772  0.00  0.00    +0.000 C 
ATOM     12  C   UNL     1       2.958   2.229  18.223  0.00  0.00    +0.000 A 
ATOM     13  C   UNL     1       4.194   2.783  17.866  0.00  0.00    +0.000 A 
ATOM     14  C   UNL     1       4.367   4.151  17.681  0.00  0.00    +0.000 A 
ATOM     15  N   UNL     1       5.569   4.623  17.338  0.00  0.00    +0.000 NA
ATOM     16  H   UNL     1       7.599   5.617  17.025  0.00  0.00    +0.000 HD
ATOM     17  H   UNL     1       1.659   7.010  17.371  0.00  0.00    +0.000 HD
ENDBRANCH   1   7
BRANCH   1  18
ATOM     18  C   UNL     1       1.683   9.406  18.695  0.00  0.00    +0.000 A 
ATOM     19  C   UNL     1       1.315  10.715  18.367  0.00  0.00    +0.000 A 
ATOM     20  C   UNL     1       0.393  11.418  19.152  0.00  0.00    +0.000 A 
ATOM     21  C   UNL     1      -0.183  10.840  20.287  0.00  0.00    +0.000 A 
ATOM     22  C   UNL     1       0.196   9.535  20.627  0.00  0.00    +0.000 A 
ATOM     23  C   UNL     1       1.116   8.824  19.837  0.00  0.00    +0.000 A 
BRANCH  21  24
ATOM     24  N   UNL     1      -1.108  11.516  21.121  0.00  0.00    +0.000 N 
ATOM     25  C   UNL     1      -2.249  12.175  20.679  0.00  0.00    +0.000 C 
ATOM     26  O   UNL     1      -2.661  12.200  19.522  0.00  0.00    +0.000 OA
ATOM     27  H   UNL     1      -0.974  11.420  22.118  0.00  0.00    +0.000 HD
BRANCH  25  28
ATOM     28  C   UNL     1      -3.080  12.881  21.697  0.00  0.00    +0.000 A 
ATOM     29  C   UNL     1      -2.834  12.809  23.074  0.00  0.00    +0.000 A 
ATOM     30  C   UNL     1      -3.605  13.577  23.956  0.00  0.00    +0.000 A 
ATOM     31  C   UNL     1      -4.608  14.411  23.462  0.00  0.00    +0.000 A 
ATOM     32  F   UNL     1      -5.325  15.156  24.311  0.00  0.00    +0.000 F 
ATOM     33  C   UNL     1      -4.860  14.495  22.100  0.00  0.00    +0.000 A 
ATOM     34  C   UNL     1      -4.096  13.731  21.219  0.00  0.00    +0.000 A 
ENDBRANCH  25  28
ENDBRANCH  21  24
ENDBRANCH   1  18
TORSDOF 4
ENDMDL
MODEL 9
REMARK VINA RESULT:      -8.5      4.014     10.826
REMARK  Name = 
REMARK  6 active torsions:
REMARK  status: ('A' for Active; 'I' for Inactive)
REMARK    1  A    between atoms: C_1  and  N_2
REMARK    2  A    between atoms: N_6  and  C_7
REMARK    3  A    between atoms: C_7  and  C_8
REMARK    4  A    between atoms: C_11  and  N_12
REMARK    5  A    between atoms: C_13  and  C_15
REMARK    6  A    between atoms: C_26  and  C_27
REMARK                            x       y       z     vdW  Elec       q    Type
REMARK                         _______ _______ _______ _____ _____    ______ ____
ROOT
ATOM      1  C   UNL     1      -1.222  13.446  19.304  0.00  0.00    +0.000 C 
ENDROOT
BRANCH   1   7
ATOM      2  C   UNL     1      -0.713  15.422  23.577  0.00  0.00    +0.000 C 
ATOM      3  N   UNL     1      -1.728  14.531  24.088  0.00  0.00    +0.000 N 
ATOM      4  C   UNL     1      -2.581  14.017  23.118  0.00  0.00    +0.000 A 
ATOM      5  N   UNL     1      -2.135  13.797  21.874  0.00  0.00    +0.000 NA
ATOM      6  C   UNL     1      -2.987  13.259  20.991  0.00  0.00    +0.000 A 
ATOM      7  N   UNL     1      -2.567  13.033  19.666  0.00  0.00    +0.000 N 
ATOM      8  C   UNL     1      -4.312  12.951  21.335  0.00  0.00    +0.000 A 
ATOM      9  C   UNL     1      -5.261  12.389  20.445  0.00  0.00    +0.000 A 
ATOM     10  C   UNL     1      -6.571  12.126  20.847  0.00  0.00    +0.000 A 
ATOM     11  C   UNL     1      -7.559  11.536  19.888  0.00  0.00    +0.000 C 
ATOM     12  C   UNL     1      -6.942  12.455  22.149  0.00  0.00    +0.000 A 
ATOM     13  C   UNL     1      -6.001  13.004  23.030  0.00  0.00    +0.000 A 
ATOM     14  C   UNL     1      -4.685  13.252  22.647  0.00  0.00    +0.000 A 
ATOM     15  N   UNL     1      -3.830  13.775  23.530  0.00  0.00    +0.000 NA
ATOM     16  H   UNL     1      -2.325  14.910  24.816  0.00  0.00    +0.000 HD
ATOM     17  H   UNL     1      -2.735  12.063  19.424  0.00  0.00    +0.000 HD
ENDBRANCH   1   7
BRANCH   1  18
ATOM     18  C   UNL     1      -0.435  12.193  18.969  0.00  0.00    +0.000 A 
ATOM     19  C   UNL     1       0.962  12.200  19.032  0.00  0.00    +0.000 A 
ATOM     20  C   UNL     1       1.702  11.071  18.659  0.00  0.00    +0.000 A 
ATOM     21  C   UNL     1       1.072   9.907  18.208  0.00  0.00    +0.000 A 
ATOM     22  C   UNL     1      -0.327   9.903  18.129  0.00  0.00    +0.000 A 
ATOM     23  C   UNL     1      -1.072  11.032  18.509  0.00  0.00    +0.000 A 
BRANCH  21  24
ATOM     24  N   UNL     1       1.777   8.745  17.806  0.00  0.00    +0.000 N 
ATOM     25  C   UNL     1       2.275   7.775  18.666  0.00  0.00    +0.000 C 
ATOM     26  O   UNL     1       2.109   7.741  19.882  0.00  0.00    +0.000 OA
ATOM     27  H   UNL     1       1.828   8.568  16.811  0.00  0.00    +0.000 HD
BRANCH  25  28
ATOM     28  C   UNL     1       3.043   6.645  18.066  0.00  0.00    +0.000 A 
ATOM     29  C   UNL     1       2.627   5.310  18.140  0.00  0.00    +0.000 A 
ATOM     30  C   UNL     1       3.357   4.319  17.470  0.00  0.00    +0.000 A 
ATOM     31  C   UNL     1       4.489   4.665  16.732  0.00  0.00    +0.000 A 
ATOM     32  F   UNL     1       5.168   3.715  16.079  0.00  0.00    +0.000 F 
ATOM     33  C   UNL     1       4.911   5.984  16.648  0.00  0.00    +0.000 A 
ATOM     34  C   UNL     1       4.187   6.973  17.314  0.00  0.00    +0.000 A 
ENDBRANCH  25  28
ENDBRANCH  21  24
ENDBRANCH   1  18
TORSDOF 4
ENDMDL
