MODEL 1
REMARK VINA RESULT:      -7.0      0.000      0.000
REMARK  Name = 
REMARK  10 active torsions:
REMARK  status: ('A' for Active; 'I' for Inactive)
REMARK    1  A    between atoms: C_1  and  C_2
REMARK    2  A    between atoms: C_2  and  C_3
REMARK    3  A    between atoms: C_3  and  C_4
REMARK    4  A    between atoms: C_4  and  O_5
REMARK    5  A    between atoms: C_4  and  C_6
REMARK    6  A    between atoms: C_6  and  C_7
REMARK    7  A    between atoms: C_7  and  C_9
REMARK    8  A    between atoms: C_10  and  C_11
REMARK    9  A    between atoms: C_16  and  O_17
REMARK   10  A    between atoms: O_17  and  C_18
REMARK                            x       y       z     vdW  Elec       q    Type
REMARK                         _______ _______ _______ _____ _____    ______ ____
ROOT
ATOM      1  C   UNL     1       5.863   4.410  17.723  0.00  0.00    +0.000 C 
ATOM      2  C   UNL     1       4.633   4.677  17.265  0.00  0.00    +0.000 C 
ENDROOT
BRANCH   2   3
ATOM      3  C   UNL     1       3.422   4.490  18.065  0.00  0.00    +0.000 A 
ATOM      4  C   UNL     1       2.582   3.387  17.880  0.00  0.00    +0.000 A 
ATOM      5  C   UNL     1       1.457   3.240  18.674  0.00  0.00    +0.000 A 
ATOM      6  F   UNL     1       0.655   2.183  18.485  0.00  0.00    +0.000 F 
ATOM      7  C   UNL     1       1.149   4.165  19.665  0.00  0.00    +0.000 A 
ATOM      8  C   UNL     1       1.987   5.259  19.874  0.00  0.00    +0.000 A 
ATOM      9  C   UNL     1       3.126   5.415  19.079  0.00  0.00    +0.000 A 
BRANCH   8  10
ATOM     10  O   UNL     1       1.587   6.100  20.877  0.00  0.00    +0.000 OA
ATOM     11  C   UNL     1       1.709   7.496  20.630  0.00  0.00    +0.000 C 
ENDBRANCH   8  10
ENDBRANCH   2   3
BRANCH   1  12
ATOM     12  C   UNL     1       7.040   4.658  16.854  0.00  0.00    +0.000 C 
ATOM     13  O   UNL     1       8.166   4.276  17.188  0.00  0.00    +0.000 OA
BRANCH  12  14
ATOM     14  C   UNL     1       6.775   5.386  15.557  0.00  0.00    +0.000 C 
BRANCH  14  15
ATOM     15  C   UNL     1       7.081   4.524  14.332  0.00  0.00    +0.000 C 
BRANCH  15  16
ATOM     16  O   UNL     1       7.594   5.356  13.288  0.00  0.00    +0.000 OA
ATOM     17  H   UNL     1       8.126   4.807  12.684  0.00  0.00    +0.000 HD
ENDBRANCH  15  16
BRANCH  15  18
ATOM     18  C   UNL     1       5.832   3.795  13.823  0.00  0.00    +0.000 C 
BRANCH  18  20
ATOM     19  C   UNL     1       4.584   3.315  11.689  0.00  0.00    +0.000 C 
ATOM     20  C   UNL     1       5.948   3.448  12.339  0.00  0.00    +0.000 C 
ENDBRANCH  18  20
ENDBRANCH  15  18
ENDBRANCH  14  15
ENDBRANCH  12  14
ENDBRANCH   1  12
TORSDOF 8
ENDMDL
MODEL 2
REMARK VINA RESULT:      -6.9      2.031      2.699
REMARK  Name = 
REMARK  10 active torsions:
REMARK  status: ('A' for Active; 'I' for Inactive)
REMARK    1  A    between atoms: C_1  and  C_2
REMARK    2  A    between atoms: C_2  and  C_3
REMARK    3  A    between atoms: C_3  and  C_4
REMARK    4  A    between atoms: C_4  and  O_5
REMARK    5  A    between atoms: C_4  and  C_6
REMARK    6  A    between atoms: C_6  and  C_7
REMARK    7  A    between atoms: C_7  and  C_9
REMARK    8  A    between atoms: C_10  and  C_11
REMARK    9  A    between atoms: C_16  and  O_17
REMARK   10  A    between atoms: O_17  and  C_18
REMARK                            x       y       z     vdW  Elec       q    Type
REMARK                         _______ _______ _______ _____ _____    ______ ____
ROOT
ATOM      1  C   UNL     1       5.529   5.326  15.992  0.00  0.00    +0.000 C 
ATOM      2  C   UNL     1       4.861   4.393  16.682  0.00  0.00    +0.000 C 
ENDROOT
BRANCH   2   3
ATOM      3  C   UNL     1       4.091   4.688  17.891  0.00  0.00    +0.000 A 
ATOM      4  C   UNL     1       3.581   5.966  18.144  0.00  0.00    +0.000 A 
ATOM      5  C   UNL     1       2.841   6.195  19.292  0.00  0.00    +0.000 A 
ATOM      6  F   UNL     1       2.363   7.425  19.529  0.00  0.00    +0.000 F 
ATOM      7  C   UNL     1       2.583   5.173  20.197  0.00  0.00    +0.000 A 
ATOM      8  C   UNL     1       3.067   3.890  19.949  0.00  0.00    +0.000 A 
ATOM      9  C   UNL     1       3.813   3.649  18.793  0.00  0.00    +0.000 A 
BRANCH   8  10
ATOM     10  O   UNL     1       2.748   2.965  20.907  0.00  0.00    +0.000 OA
ATOM     11  C   UNL     1       1.370   2.827  21.231  0.00  0.00    +0.000 C 
ENDBRANCH   8  10
ENDBRANCH   2   3
BRANCH   1  12
ATOM     12  C   UNL     1       6.260   4.945  14.758  0.00  0.00    +0.000 C 
ATOM     13  O   UNL     1       7.466   5.181  14.637  0.00  0.00    +0.000 OA
BRANCH  12  14
ATOM     14  C   UNL     1       5.450   4.256  13.685  0.00  0.00    +0.000 C 
BRANCH  14  15
ATOM     15  C   UNL     1       6.328   3.504  12.685  0.00  0.00    +0.000 C 
BRANCH  15  16
ATOM     16  O   UNL     1       7.215   4.428  12.050  0.00  0.00    +0.000 OA
ATOM     17  H   UNL     1       8.125   4.090  12.127  0.00  0.00    +0.000 HD
ENDBRANCH  15  16
BRANCH  15  18
ATOM     18  C   UNL     1       5.490   2.798  11.612  0.00  0.00    +0.000 C 
BRANCH  18  20
ATOM     19  C   UNL     1       3.540   3.632  10.253  0.00  0.00    +0.000 C 
ATOM     20  C   UNL     1       4.034   3.262  11.638  0.00  0.00    +0.000 C 
ENDBRANCH  18  20
ENDBRANCH  15  18
ENDBRANCH  14  15
ENDBRANCH  12  14
ENDBRANCH   1  12
TORSDOF 8
ENDMDL
MODEL 3
REMARK VINA RESULT:      -6.7      3.290      6.834
REMARK  Name = 
REMARK  10 active torsions:
REMARK  status: ('A' for Active; 'I' for Inactive)
REMARK    1  A    between atoms: C_1  and  C_2
REMARK    2  A    between atoms: C_2  and  C_3
REMARK    3  A    between atoms: C_3  and  C_4
REMARK    4  A    between atoms: C_4  and  O_5
REMARK    5  A    between atoms: C_4  and  C_6
REMARK    6  A    between atoms: C_6  and  C_7
REMARK    7  A    between atoms: C_7  and  C_9
REMARK    8  A    between atoms: C_10  and  C_11
REMARK    9  A    between atoms: C_16  and  O_17
REMARK   10  A    between atoms: O_17  and  C_18
REMARK                            x       y       z     vdW  Elec       q    Type
REMARK                         _______ _______ _______ _____ _____    ______ ____
ROOT
ATOM      1  C   UNL     1       6.507   4.527  17.429  0.00  0.00    +0.000 C 
ATOM      2  C   UNL     1       5.920   5.103  16.372  0.00  0.00    +0.000 C 
ENDROOT
BRANCH   2   3
ATOM      3  C   UNL     1       6.330   4.847  14.990  0.00  0.00    +0.000 A 
ATOM      4  C   UNL     1       7.436   5.488  14.421  0.00  0.00    +0.000 A 
ATOM      5  C   UNL     1       7.800   5.200  13.116  0.00  0.00    +0.000 A 
ATOM      6  F   UNL     1       8.855   5.825  12.577  0.00  0.00    +0.000 F 
ATOM      7  C   UNL     1       7.092   4.274  12.360  0.00  0.00    +0.000 A 
ATOM      8  C   UNL     1       6.001   3.612  12.920  0.00  0.00    +0.000 A 
ATOM      9  C   UNL     1       5.627   3.895  14.236  0.00  0.00    +0.000 A 
BRANCH   8  10
ATOM     10  O   UNL     1       5.384   2.721  12.084  0.00  0.00    +0.000 OA
ATOM     11  C   UNL     1       4.262   3.198  11.352  0.00  0.00    +0.000 C 
ENDBRANCH   8  10
ENDBRANCH   2   3
BRANCH   1  12
ATOM     12  C   UNL     1       6.007   4.819  18.796  0.00  0.00    +0.000 C 
ATOM     13  O   UNL     1       6.785   5.139  19.701  0.00  0.00    +0.000 OA
BRANCH  12  14
ATOM     14  C   UNL     1       4.514   4.710  19.001  0.00  0.00    +0.000 C 
BRANCH  14  15
ATOM     15  C   UNL     1       4.086   3.309  19.437  0.00  0.00    +0.000 C 
BRANCH  15  16
ATOM     16  O   UNL     1       5.243   2.566  19.832  0.00  0.00    +0.000 OA
ATOM     17  H   UNL     1       5.706   2.261  19.032  0.00  0.00    +0.000 HD
ENDBRANCH  15  16
BRANCH  15  18
ATOM     18  C   UNL     1       3.370   2.557  18.310  0.00  0.00    +0.000 C 
BRANCH  18  20
ATOM     19  C   UNL     1       1.406   4.036  17.759  0.00  0.00    +0.000 C 
ATOM     20  C   UNL     1       2.754   3.519  17.294  0.00  0.00    +0.000 C 
ENDBRANCH  18  20
ENDBRANCH  15  18
ENDBRANCH  14  15
ENDBRANCH  12  14
ENDBRANCH   1  12
TORSDOF 8
ENDMDL
MODEL 4
REMARK VINA RESULT:      -6.7      3.094      7.467
REMARK  Name = 
REMARK  10 active torsions:
REMARK  status: ('A' for Active; 'I' for Inactive)
REMARK    1  A    between atoms: C_1  and  C_2
REMARK    2  A    between atoms: C_2  and  C_3
REMARK    3  A    between atoms: C_3  and  C_4
REMARK    4  A    between atoms: C_4  and  O_5
REMARK    5  A    between atoms: C_4  and  C_6
REMARK    6  A    between atoms: C_6  and  C_7
REMARK    7  A    between atoms: C_7  and  C_9
REMARK    8  A    between atoms: C_10  and  C_11
REMARK    9  A    between atoms: C_16  and  O_17
REMARK   10  A    between atoms: O_17  and  C_18
REMARK                            x       y       z     vdW  Elec       q    Type
REMARK                         _______ _______ _______ _____ _____    ______ ____
ROOT
ATOM      1  C   UNL     1       4.632   4.221  16.802  0.00  0.00    +0.000 C 
ATOM      2  C   UNL     1       5.898   4.123  16.376  0.00  0.00    +0.000 C 
ENDROOT
BRANCH   2   3
ATOM      3  C   UNL     1       6.278   4.219  14.966  0.00  0.00    +0.000 A 
ATOM      4  C   UNL     1       7.324   5.045  14.541  0.00  0.00    +0.000 A 
ATOM      5  C   UNL     1       7.662   5.089  13.199  0.00  0.00    +0.000 A 
ATOM      6  F   UNL     1       8.661   5.889  12.801  0.00  0.00    +0.000 F 
ATOM      7  C   UNL     1       6.987   4.317  12.261  0.00  0.00    +0.000 A 
ATOM      8  C   UNL     1       5.956   3.474  12.672  0.00  0.00    +0.000 A 
ATOM      9  C   UNL     1       5.609   3.421  14.024  0.00  0.00    +0.000 A 
BRANCH   8  10
ATOM     10  O   UNL     1       5.367   2.760  11.663  0.00  0.00    +0.000 OA
ATOM     11  C   UNL     1       4.061   3.163  11.269  0.00  0.00    +0.000 C 
ENDBRANCH   8  10
ENDBRANCH   2   3
BRANCH   1  12
ATOM     12  C   UNL     1       4.337   4.143  18.254  0.00  0.00    +0.000 C 
ATOM     13  O   UNL     1       5.206   3.793  19.060  0.00  0.00    +0.000 OA
BRANCH  12  14
ATOM     14  C   UNL     1       2.936   4.522  18.675  0.00  0.00    +0.000 C 
BRANCH  14  15
ATOM     15  C   UNL     1       1.884   3.549  18.142  0.00  0.00    +0.000 C 
BRANCH  15  16
ATOM     16  O   UNL     1       1.051   4.228  17.198  0.00  0.00    +0.000 OA
ATOM     17  H   UNL     1       1.617   4.639  16.521  0.00  0.00    +0.000 HD
ENDBRANCH  15  16
BRANCH  15  18
ATOM     18  C   UNL     1       1.009   2.986  19.268  0.00  0.00    +0.000 C 
BRANCH  18  20
ATOM     19  C   UNL     1       1.785   2.823  21.659  0.00  0.00    +0.000 C 
ATOM     20  C   UNL     1       1.230   3.736  20.582  0.00  0.00    +0.000 C 
ENDBRANCH  18  20
ENDBRANCH  15  18
ENDBRANCH  14  15
ENDBRANCH  12  14
ENDBRANCH   1  12
TORSDOF 8
ENDMDL
MODEL 5
REMARK VINA RESULT:      -6.6      2.606      6.811
REMARK  Name = 
REMARK  10 active torsions:
REMARK  status: ('A' for Active; 'I' for Inactive)
REMARK    1  A    between atoms: C_1  and  C_2
REMARK    2  A    between atoms: C_2  and  C_3
REMARK    3  A    between atoms: C_3  and  C_4
REMARK    4  A    between atoms: C_4  and  O_5
REMARK    5  A    between atoms: C_4  and  C_6
REMARK    6  A    between atoms: C_6  and  C_7
REMARK    7  A    between atoms: C_7  and  C_9
REMARK    8  A    between atoms: C_10  and  C_11
REMARK    9  A    between atoms: C_16  and  O_17
REMARK   10  A    between atoms: O_17  and  C_18
REMARK                            x       y       z     vdW  Elec       q    Type
REMARK                         _______ _______ _______ _____ _____    ______ ____
ROOT
ATOM      1  C   UNL     1       3.435   2.880  18.373  0.00  0.00    +0.000 C 
ATOM      2  C   UNL     1       3.524   3.621  17.261  0.00  0.00    +0.000 C 
ENDROOT
BRANCH   2   3
ATOM      3  C   UNL     1       4.799   4.057  16.689  0.00  0.00    +0.000 A 
ATOM      4  C   UNL     1       5.034   4.030  15.310  0.00  0.00    +0.000 A 
ATOM      5  C   UNL     1       6.248   4.471  14.812  0.00  0.00    +0.000 A 
ATOM      6  F   UNL     1       6.466   4.434  13.490  0.00  0.00    +0.000 F 
ATOM      7  C   UNL     1       7.240   4.953  15.657  0.00  0.00    +0.000 A 
ATOM      8  C   UNL     1       7.014   5.004  17.031  0.00  0.00    +0.000 A 
ATOM      9  C   UNL     1       5.791   4.564  17.544  0.00  0.00    +0.000 A 
BRANCH   8  10
ATOM     10  O   UNL     1       8.059   5.500  17.763  0.00  0.00    +0.000 OA
ATOM     11  C   UNL     1       7.755   5.991  19.064  0.00  0.00    +0.000 C 
ENDBRANCH   8  10
ENDBRANCH   2   3
BRANCH   1  12
ATOM     12  C   UNL     1       2.102   2.455  18.868  0.00  0.00    +0.000 C 
ATOM     13  O   UNL     1       1.170   2.248  18.083  0.00  0.00    +0.000 OA
BRANCH  12  14
ATOM     14  C   UNL     1       1.964   2.286  20.363  0.00  0.00    +0.000 C 
BRANCH  14  15
ATOM     15  C   UNL     1       1.278   3.482  21.024  0.00  0.00    +0.000 C 
BRANCH  15  16
ATOM     16  O   UNL     1       0.166   3.889  20.222  0.00  0.00    +0.000 OA
ATOM     17  H   UNL     1      -0.254   4.661  20.640  0.00  0.00    +0.000 HD
ENDBRANCH  15  16
BRANCH  15  18
ATOM     18  C   UNL     1       2.237   4.667  21.189  0.00  0.00    +0.000 C 
BRANCH  18  20
ATOM     19  C   UNL     1       2.729   6.435  19.463  0.00  0.00    +0.000 C 
ATOM     20  C   UNL     1       1.721   5.913  20.469  0.00  0.00    +0.000 C 
ENDBRANCH  18  20
ENDBRANCH  15  18
ENDBRANCH  14  15
ENDBRANCH  12  14
ENDBRANCH   1  12
TORSDOF 8
ENDMDL
MODEL 6
REMARK VINA RESULT:      -6.6      2.568      6.609
REMARK  Name = 
REMARK  10 active torsions:
REMARK  status: ('A' for Active; 'I' for Inactive)
REMARK    1  A    between atoms: C_1  and  C_2
REMARK    2  A    between atoms: C_2  and  C_3
REMARK    3  A    between atoms: C_3  and  C_4
REMARK    4  A    between atoms: C_4  and  O_5
REMARK    5  A    between atoms: C_4  and  C_6
REMARK    6  A    between atoms: C_6  and  C_7
REMARK    7  A    between atoms: C_7  and  C_9
REMARK    8  A    between atoms: C_10  and  C_11
REMARK    9  A    between atoms: C_16  and  O_17
REMARK   10  A    between atoms: O_17  and  C_18
REMARK                            x       y       z     vdW  Elec       q    Type
REMARK                         _______ _______ _______ _____ _____    ______ ____
ROOT
ATOM      1  C   UNL     1       3.235   5.730  19.327  0.00  0.00    +0.000 C 
ATOM      2  C   UNL     1       4.248   4.876  19.132  0.00  0.00    +0.000 C 
ENDROOT
BRANCH   2   3
ATOM      3  C   UNL     1       5.179   4.981  18.008  0.00  0.00    +0.000 A 
ATOM      4  C   UNL     1       5.186   4.043  16.970  0.00  0.00    +0.000 A 
ATOM      5  C   UNL     1       6.071   4.193  15.915  0.00  0.00    +0.000 A 
ATOM      6  F   UNL     1       6.076   3.285  14.929  0.00  0.00    +0.000 F 
ATOM      7  C   UNL     1       6.950   5.269  15.861  0.00  0.00    +0.000 A 
ATOM      8  C   UNL     1       6.941   6.222  16.878  0.00  0.00    +0.000 A 
ATOM      9  C   UNL     1       6.050   6.080  17.945  0.00  0.00    +0.000 A 
BRANCH   8  10
ATOM     10  O   UNL     1       7.845   7.236  16.716  0.00  0.00    +0.000 OA
ATOM     11  C   UNL     1       7.818   8.280  17.683  0.00  0.00    +0.000 C 
ENDBRANCH   8  10
ENDBRANCH   2   3
BRANCH   1  12
ATOM     12  C   UNL     1       2.356   5.569  20.512  0.00  0.00    +0.000 C 
ATOM     13  O   UNL     1       1.519   6.430  20.802  0.00  0.00    +0.000 OA
BRANCH  12  14
ATOM     14  C   UNL     1       2.541   4.304  21.317  0.00  0.00    +0.000 C 
BRANCH  14  15
ATOM     15  C   UNL     1       1.440   3.277  21.050  0.00  0.00    +0.000 C 
BRANCH  15  16
ATOM     16  O   UNL     1       1.177   2.547  22.252  0.00  0.00    +0.000 OA
ATOM     17  H   UNL     1       0.396   1.984  22.110  0.00  0.00    +0.000 HD
ENDBRANCH  15  16
BRANCH  15  18
ATOM     18  C   UNL     1       1.837   2.293  19.944  0.00  0.00    +0.000 C 
BRANCH  18  20
ATOM     19  C   UNL     1       1.161   3.544  17.865  0.00  0.00    +0.000 C 
ATOM     20  C   UNL     1       0.871   2.355  18.761  0.00  0.00    +0.000 C 
ENDBRANCH  18  20
ENDBRANCH  15  18
ENDBRANCH  14  15
ENDBRANCH  12  14
ENDBRANCH   1  12
TORSDOF 8
ENDMDL
MODEL 7
REMARK VINA RESULT:      -6.6      0.894      1.101
REMARK  Name = 
REMARK  10 active torsions:
REMARK  status: ('A' for Active; 'I' for Inactive)
REMARK    1  A    between atoms: C_1  and  C_2
REMARK    2  A    between atoms: C_2  and  C_3
REMARK    3  A    between atoms: C_3  and  C_4
REMARK    4  A    between atoms: C_4  and  O_5
REMARK    5  A    between atoms: C_4  and  C_6
REMARK    6  A    between atoms: C_6  and  C_7
REMARK    7  A    between atoms: C_7  and  C_9
REMARK    8  A    between atoms: C_10  and  C_11
REMARK    9  A    between atoms: C_16  and  O_17
REMARK   10  A    between atoms: O_17  and  C_18
REMARK                            x       y       z     vdW  Elec       q    Type
REMARK                         _______ _______ _______ _____ _____    ______ ____
ROOT
ATOM      1  C   UNL     1       4.979   5.148  16.754  0.00  0.00    +0.000 C 
ATOM      2  C   UNL     1       4.063   4.171  16.795  0.00  0.00    +0.000 C 
ENDROOT
BRANCH   2   3
ATOM      3  C   UNL     1       3.021   4.094  17.821  0.00  0.00    +0.000 A 
ATOM      4  C   UNL     1       2.073   3.065  17.829  0.00  0.00    +0.000 A 
ATOM      5  C   UNL     1       1.118   3.020  18.831  0.00  0.00    +0.000 A 
ATOM      6  F   UNL     1       0.209   2.035  18.826  0.00  0.00    +0.000 F 
ATOM      7  C   UNL     1       1.088   3.975  19.840  0.00  0.00    +0.000 A 
ATOM      8  C   UNL     1       2.038   4.995  19.856  0.00  0.00    +0.000 A 
ATOM      9  C   UNL     1       3.007   5.048  18.851  0.00  0.00    +0.000 A 
BRANCH   8  10
ATOM     10  O   UNL     1       1.913   5.874  20.898  0.00  0.00    +0.000 OA
ATOM     11  C   UNL     1       1.649   7.231  20.563  0.00  0.00    +0.000 C 
ENDBRANCH   8  10
ENDBRANCH   2   3
BRANCH   1  12
ATOM     12  C   UNL     1       5.982   5.168  15.660  0.00  0.00    +0.000 C 
ATOM     13  O   UNL     1       7.144   5.528  15.872  0.00  0.00    +0.000 OA
BRANCH  12  14
ATOM     14  C   UNL     1       5.500   4.719  14.300  0.00  0.00    +0.000 C 
BRANCH  14  15
ATOM     15  C   UNL     1       6.577   3.967  13.519  0.00  0.00    +0.000 C 
BRANCH  15  16
ATOM     16  O   UNL     1       7.591   4.888  13.108  0.00  0.00    +0.000 OA
ATOM     17  H   UNL     1       8.297   4.394  12.655  0.00  0.00    +0.000 HD
ENDBRANCH  15  16
BRANCH  15  18
ATOM     18  C   UNL     1       6.001   3.273  12.280  0.00  0.00    +0.000 C 
BRANCH  18  20
ATOM     19  C   UNL     1       3.813   2.981  11.066  0.00  0.00    +0.000 C 
ATOM     20  C   UNL     1       4.718   3.952  11.800  0.00  0.00    +0.000 C 
ENDBRANCH  18  20
ENDBRANCH  15  18
ENDBRANCH  14  15
ENDBRANCH  12  14
ENDBRANCH   1  12
TORSDOF 8
ENDMDL
MODEL 8
REMARK VINA RESULT:      -6.5      2.318      3.505
REMARK  Name = 
REMARK  10 active torsions:
REMARK  status: ('A' for Active; 'I' for Inactive)
REMARK    1  A    between atoms: C_1  and  C_2
REMARK    2  A    between atoms: C_2  and  C_3
REMARK    3  A    between atoms: C_3  and  C_4
REMARK    4  A    between atoms: C_4  and  O_5
REMARK    5  A    between atoms: C_4  and  C_6
REMARK    6  A    between atoms: C_6  and  C_7
REMARK    7  A    between atoms: C_7  and  C_9
REMARK    8  A    between atoms: C_10  and  C_11
REMARK    9  A    between atoms: C_16  and  O_17
REMARK   10  A    between atoms: O_17  and  C_18
REMARK                            x       y       z     vdW  Elec       q    Type
REMARK                         _______ _______ _______ _____ _____    ______ ____
ROOT
ATOM      1  C   UNL     1       6.126   4.526  14.684  0.00  0.00    +0.000 C 
ATOM      2  C   UNL     1       5.566   5.505  15.406  0.00  0.00    +0.000 C 
ENDROOT
BRANCH   2   3
ATOM      3  C   UNL     1       4.653   5.256  16.522  0.00  0.00    +0.000 A 
ATOM      4  C   UNL     1       4.260   6.278  17.392  0.00  0.00    +0.000 A 
ATOM      5  C   UNL     1       3.378   6.000  18.423  0.00  0.00    +0.000 A 
ATOM      6  F   UNL     1       3.014   6.984  19.257  0.00  0.00    +0.000 F 
ATOM      7  C   UNL     1       2.864   4.722  18.605  0.00  0.00    +0.000 A 
ATOM      8  C   UNL     1       3.230   3.698  17.734  0.00  0.00    +0.000 A 
ATOM      9  C   UNL     1       4.118   3.968  16.690  0.00  0.00    +0.000 A 
BRANCH   8  10
ATOM     10  O   UNL     1       2.659   2.484  18.007  0.00  0.00    +0.000 OA
ATOM     11  C   UNL     1       3.493   1.504  18.613  0.00  0.00    +0.000 C 
ENDBRANCH   8  10
ENDBRANCH   2   3
BRANCH   1  12
ATOM     12  C   UNL     1       7.067   4.866  13.587  0.00  0.00    +0.000 C 
ATOM     13  O   UNL     1       8.044   5.593  13.793  0.00  0.00    +0.000 OA
BRANCH  12  14
ATOM     14  C   UNL     1       6.761   4.270  12.233  0.00  0.00    +0.000 C 
BRANCH  14  15
ATOM     15  C   UNL     1       6.087   2.901  12.338  0.00  0.00    +0.000 C 
BRANCH  15  16
ATOM     16  O   UNL     1       6.790   1.967  11.514  0.00  0.00    +0.000 OA
ATOM     17  H   UNL     1       7.610   2.385  11.197  0.00  0.00    +0.000 HD
ENDBRANCH  15  16
BRANCH  15  18
ATOM     18  C   UNL     1       4.621   2.955  11.894  0.00  0.00    +0.000 C 
BRANCH  18  20
ATOM     19  C   UNL     1       3.144   3.701   9.995  0.00  0.00    +0.000 C 
ATOM     20  C   UNL     1       4.404   3.989  10.789  0.00  0.00    +0.000 C 
ENDBRANCH  18  20
ENDBRANCH  15  18
ENDBRANCH  14  15
ENDBRANCH  12  14
ENDBRANCH   1  12
TORSDOF 8
ENDMDL
MODEL 9
REMARK VINA RESULT:      -6.5      2.979      7.023
REMARK  Name = 
REMARK  10 active torsions:
REMARK  status: ('A' for Active; 'I' for Inactive)
REMARK    1  A    between atoms: C_1  and  C_2
REMARK    2  A    between atoms: C_2  and  C_3
REMARK    3  A    between atoms: C_3  and  C_4
REMARK    4  A    between atoms: C_4  and  O_5
REMARK    5  A    between atoms: C_4  and  C_6
REMARK    6  A    between atoms: C_6  and  C_7
REMARK    7  A    between atoms: C_7  and  C_9
REMARK    8  A    between atoms: C_10  and  C_11
REMARK    9  A    between atoms: C_16  and  O_17
REMARK   10  A    between atoms: O_17  and  C_18
REMARK                            x       y       z     vdW  Elec       q    Type
REMARK                         _______ _______ _______ _____ _____    ______ ____
ROOT
ATOM      1  C   UNL     1       6.485   4.936  17.387  0.00  0.00    +0.000 C 
ATOM      2  C   UNL     1       5.930   4.175  16.435  0.00  0.00    +0.000 C 
ENDROOT
BRANCH   2   3
ATOM      3  C   UNL     1       6.306   4.256  15.023  0.00  0.00    +0.000 A 
ATOM      4  C   UNL     1       7.352   5.075  14.587  0.00  0.00    +0.000 A 
ATOM      5  C   UNL     1       7.686   5.106  13.243  0.00  0.00    +0.000 A 
ATOM      6  F   UNL     1       8.686   5.900  12.834  0.00  0.00    +0.000 F 
ATOM      7  C   UNL     1       7.007   4.326  12.315  0.00  0.00    +0.000 A 
ATOM      8  C   UNL     1       5.975   3.489  12.737  0.00  0.00    +0.000 A 
ATOM      9  C   UNL     1       5.632   3.451  14.091  0.00  0.00    +0.000 A 
BRANCH   8  10
ATOM     10  O   UNL     1       5.382   2.767  11.738  0.00  0.00    +0.000 OA
ATOM     11  C   UNL     1       4.115   3.225  11.279  0.00  0.00    +0.000 C 
ENDBRANCH   8  10
ENDBRANCH   2   3
BRANCH   1  12
ATOM     12  C   UNL     1       6.067   4.768  18.800  0.00  0.00    +0.000 C 
ATOM     13  O   UNL     1       6.654   5.362  19.711  0.00  0.00    +0.000 OA
BRANCH  12  14
ATOM     14  C   UNL     1       4.895   3.848  19.047  0.00  0.00    +0.000 C 
BRANCH  14  15
ATOM     15  C   UNL     1       3.575   4.608  19.179  0.00  0.00    +0.000 C 
BRANCH  15  16
ATOM     16  O   UNL     1       3.779   5.767  19.992  0.00  0.00    +0.000 OA
ATOM     17  H   UNL     1       3.362   5.618  20.859  0.00  0.00    +0.000 HD
ENDBRANCH  15  16
BRANCH  15  18
ATOM     18  C   UNL     1       2.480   3.741  19.810  0.00  0.00    +0.000 C 
BRANCH  18  20
ATOM     19  C   UNL     1       1.460   4.310  17.578  0.00  0.00    +0.000 C 
ATOM     20  C   UNL     1       1.354   3.445  18.819  0.00  0.00    +0.000 C 
ENDBRANCH  18  20
ENDBRANCH  15  18
ENDBRANCH  14  15
ENDBRANCH  12  14
ENDBRANCH   1  12
TORSDOF 8
ENDMDL
