MODEL 1
REMARK VINA RESULT:      -7.7      0.000      0.000
REMARK  Name = 
REMARK  5 active torsions:
REMARK  status: ('A' for Active; 'I' for Inactive)
REMARK    1  A    between atoms: C_1  and  C_2
REMARK    2  A    between atoms: C_5  and  C_6
REMARK    3  A    between atoms: N_8  and  C_9
REMARK    4  A    between atoms: C_9  and  C_10
REMARK    5  A    between atoms: C_10  and  C_12
REMARK                            x       y       z     vdW  Elec       q    Type
REMARK                         _______ _______ _______ _____ _____    ______ ____
ROOT
ATOM      1  C   UNL     1       8.392   9.147  18.253  0.00  0.00    +0.000 A 
ATOM      2  C   UNL     1       8.680   8.026  18.990  0.00  0.00    +0.000 A 
ATOM      3  N   UNL     1       7.963   7.037  18.400  0.00  0.00    +0.000 N 
ATOM      4  N   UNL     1       7.252   7.516  17.357  0.00  0.00    +0.000 NA
ATOM      5  N   UNL     1       7.510   8.813  17.258  0.00  0.00    +0.000 NA
ENDROOT
BRANCH   1  10
ATOM      6  C   UNL     1      10.462  14.422  19.293  0.00  0.00    +0.000 C 
ATOM      7  C   UNL     1       9.928  13.051  19.002  0.00  0.00    +0.000 A 
ATOM      8  C   UNL     1       9.073  12.826  17.920  0.00  0.00    +0.000 A 
ATOM      9  C   UNL     1       8.577  11.543  17.663  0.00  0.00    +0.000 A 
ATOM     10  C   UNL     1       8.922  10.469  18.500  0.00  0.00    +0.000 A 
ATOM     11  C   UNL     1       9.781  10.696  19.574  0.00  0.00    +0.000 A 
ATOM     12  C   UNL     1      10.283  11.975  19.827  0.00  0.00    +0.000 A 
ENDBRANCH   1  10
BRANCH   3  13
ATOM     13  C   UNL     1       7.834   5.650  18.785  0.00  0.00    +0.000 C 
BRANCH  13  14
ATOM     14  C   UNL     1       7.199   4.789  17.711  0.00  0.00    +0.000 C 
ATOM     15  O   UNL     1       7.841   4.369  16.755  0.00  0.00    +0.000 OA
BRANCH  14  16
ATOM     16  C   UNL     1       5.748   4.436  17.836  0.00  0.00    +0.000 A 
ATOM     17  C   UNL     1       5.149   4.392  19.096  0.00  0.00    +0.000 A 
ATOM     18  C   UNL     1       3.796   4.064  19.234  0.00  0.00    +0.000 A 
ATOM     19  C   UNL     1       3.035   3.777  18.102  0.00  0.00    +0.000 A 
ATOM     20 CL   UNL     1       1.379   3.349  18.269  0.00  0.00    +0.000 Cl
ATOM     21  C   UNL     1       3.613   3.832  16.838  0.00  0.00    +0.000 A 
ATOM     22  C   UNL     1       4.968   4.166  16.697  0.00  0.00    +0.000 A 
ENDBRANCH  14  16
ENDBRANCH  13  14
ENDBRANCH   3  13
TORSDOF 4
ENDMDL
MODEL 2
REMARK VINA RESULT:      -7.6      0.633      1.490
REMARK  Name = 
REMARK  5 active torsions:
REMARK  status: ('A' for Active; 'I' for Inactive)
REMARK    1  A    between atoms: C_1  and  C_2
REMARK    2  A    between atoms: C_5  and  C_6
REMARK    3  A    between atoms: N_8  and  C_9
REMARK    4  A    between atoms: C_9  and  C_10
REMARK    5  A    between atoms: C_10  and  C_12
REMARK                            x       y       z     vdW  Elec       q    Type
REMARK                         _______ _______ _______ _____ _____    ______ ____
ROOT
ATOM      1  C   UNL     1       8.601   9.164  18.420  0.00  0.00    +0.000 A 
ATOM      2  C   UNL     1       8.737   7.971  19.084  0.00  0.00    +0.000 A 
ATOM      3  N   UNL     1       7.997   7.094  18.360  0.00  0.00    +0.000 N 
ATOM      4  N   UNL     1       7.417   7.708  17.307  0.00  0.00    +0.000 NA
ATOM      5  N   UNL     1       7.784   8.983  17.335  0.00  0.00    +0.000 NA
ENDROOT
BRANCH   1  10
ATOM      6  C   UNL     1      11.088  14.125  19.970  0.00  0.00    +0.000 C 
ATOM      7  C   UNL     1      10.428  12.835  19.583  0.00  0.00    +0.000 A 
ATOM      8  C   UNL     1      10.156  11.850  20.536  0.00  0.00    +0.000 A 
ATOM      9  C   UNL     1       9.545  10.649  20.160  0.00  0.00    +0.000 A 
ATOM     10  C   UNL     1       9.211  10.414  18.816  0.00  0.00    +0.000 A 
ATOM     11  C   UNL     1       9.476  11.402  17.869  0.00  0.00    +0.000 A 
ATOM     12  C   UNL     1      10.079  12.606  18.245  0.00  0.00    +0.000 A 
ENDBRANCH   1  10
BRANCH   3  13
ATOM     13  C   UNL     1       7.727   5.698  18.619  0.00  0.00    +0.000 C 
BRANCH  13  14
ATOM     14  C   UNL     1       6.984   5.014  17.487  0.00  0.00    +0.000 C 
ATOM     15  O   UNL     1       7.547   4.684  16.450  0.00  0.00    +0.000 OA
BRANCH  14  16
ATOM     16  C   UNL     1       5.523   4.726  17.657  0.00  0.00    +0.000 A 
ATOM     17  C   UNL     1       4.881   3.847  16.783  0.00  0.00    +0.000 A 
ATOM     18  C   UNL     1       3.517   3.567  16.924  0.00  0.00    +0.000 A 
ATOM     19  C   UNL     1       2.790   4.171  17.948  0.00  0.00    +0.000 A 
ATOM     20 CL   UNL     1       1.109   3.848  18.110  0.00  0.00    +0.000 Cl
ATOM     21  C   UNL     1       3.418   5.035  18.837  0.00  0.00    +0.000 A 
ATOM     22  C   UNL     1       4.787   5.314  18.701  0.00  0.00    +0.000 A 
ENDBRANCH  14  16
ENDBRANCH  13  14
ENDBRANCH   3  13
TORSDOF 4
ENDMDL
MODEL 3
REMARK VINA RESULT:      -7.6      0.876      1.401
REMARK  Name = 
REMARK  5 active torsions:
REMARK  status: ('A' for Active; 'I' for Inactive)
REMARK    1  A    between atoms: C_1  and  C_2
REMARK    2  A    between atoms: C_5  and  C_6
REMARK    3  A    between atoms: N_8  and  C_9
REMARK    4  A    between atoms: C_9  and  C_10
REMARK    5  A    between atoms: C_10  and  C_12
REMARK                            x       y       z     vdW  Elec       q    Type
REMARK                         _______ _______ _______ _____ _____    ______ ____
ROOT
ATOM      1  C   UNL     1       7.996   8.518  17.963  0.00  0.00    +0.000 A 
ATOM      2  C   UNL     1       8.289   7.303  18.529  0.00  0.00    +0.000 A 
ATOM      3  N   UNL     1       7.528   6.415  17.840  0.00  0.00    +0.000 N 
ATOM      4  N   UNL     1       6.787   7.043  16.903  0.00  0.00    +0.000 NA
ATOM      5  N   UNL     1       7.068   8.338  16.970  0.00  0.00    +0.000 NA
ENDROOT
BRANCH   1  10
ATOM      6  C   UNL     1      10.209  13.575  19.615  0.00  0.00    +0.000 C 
ATOM      7  C   UNL     1       9.640  12.261  19.166  0.00  0.00    +0.000 A 
ATOM      8  C   UNL     1       8.918  12.159  17.974  0.00  0.00    +0.000 A 
ATOM      9  C   UNL     1       8.388  10.930  17.569  0.00  0.00    +0.000 A 
ATOM     10  C   UNL     1       8.563   9.786  18.366  0.00  0.00    +0.000 A 
ATOM     11  C   UNL     1       9.291   9.889  19.550  0.00  0.00    +0.000 A 
ATOM     12  C   UNL     1       9.828  11.116  19.951  0.00  0.00    +0.000 A 
ENDBRANCH   1  10
BRANCH   3  13
ATOM     13  C   UNL     1       7.385   4.990  18.038  0.00  0.00    +0.000 C 
BRANCH  13  14
ATOM     14  C   UNL     1       6.289   4.377  17.189  0.00  0.00    +0.000 C 
ATOM     15  O   UNL     1       6.477   4.061  16.020  0.00  0.00    +0.000 OA
BRANCH  14  16
ATOM     16  C   UNL     1       4.945   4.143  17.808  0.00  0.00    +0.000 A 
ATOM     17  C   UNL     1       3.840   3.880  16.996  0.00  0.00    +0.000 A 
ATOM     18  C   UNL     1       2.577   3.662  17.556  0.00  0.00    +0.000 A 
ATOM     19  C   UNL     1       2.416   3.706  18.939  0.00  0.00    +0.000 A 
ATOM     20 CL   UNL     1       0.861   3.462  19.629  0.00  0.00    +0.000 Cl
ATOM     21  C   UNL     1       3.509   3.950  19.763  0.00  0.00    +0.000 A 
ATOM     22  C   UNL     1       4.778   4.166  19.205  0.00  0.00    +0.000 A 
ENDBRANCH  14  16
ENDBRANCH  13  14
ENDBRANCH   3  13
TORSDOF 4
ENDMDL
MODEL 4
REMARK VINA RESULT:      -7.6      1.233      1.285
REMARK  Name = 
REMARK  5 active torsions:
REMARK  status: ('A' for Active; 'I' for Inactive)
REMARK    1  A    between atoms: C_1  and  C_2
REMARK    2  A    between atoms: C_5  and  C_6
REMARK    3  A    between atoms: N_8  and  C_9
REMARK    4  A    between atoms: C_9  and  C_10
REMARK    5  A    between atoms: C_10  and  C_12
REMARK                            x       y       z     vdW  Elec       q    Type
REMARK                         _______ _______ _______ _____ _____    ______ ____
ROOT
ATOM      1  C   UNL     1       8.376   9.274  18.218  0.00  0.00    +0.000 A 
ATOM      2  C   UNL     1       8.602   7.987  18.637  0.00  0.00    +0.000 A 
ATOM      3  N   UNL     1       7.777   7.230  17.871  0.00  0.00    +0.000 N 
ATOM      4  N   UNL     1       7.062   8.003  17.026  0.00  0.00    +0.000 NA
ATOM      5  N   UNL     1       7.424   9.263  17.231  0.00  0.00    +0.000 NA
ENDROOT
BRANCH   1  10
ATOM      6  C   UNL     1      10.914  13.979  20.366  0.00  0.00    +0.000 C 
ATOM      7  C   UNL     1      10.265  12.756  19.789  0.00  0.00    +0.000 A 
ATOM      8  C   UNL     1       9.787  12.745  18.477  0.00  0.00    +0.000 A 
ATOM      9  C   UNL     1       9.179  11.600  17.953  0.00  0.00    +0.000 A 
ATOM     10  C   UNL     1       9.027  10.451  18.748  0.00  0.00    +0.000 A 
ATOM     11  C   UNL     1       9.511  10.463  20.054  0.00  0.00    +0.000 A 
ATOM     12  C   UNL     1      10.127  11.604  20.576  0.00  0.00    +0.000 A 
ENDBRANCH   1  10
BRANCH   3  13
ATOM     13  C   UNL     1       7.549   5.803  17.911  0.00  0.00    +0.000 C 
BRANCH  13  14
ATOM     14  C   UNL     1       6.729   5.364  19.108  0.00  0.00    +0.000 C 
ATOM     15  O   UNL     1       7.192   5.356  20.242  0.00  0.00    +0.000 OA
BRANCH  14  16
ATOM     16  C   UNL     1       5.308   4.939  18.889  0.00  0.00    +0.000 A 
ATOM     17  C   UNL     1       4.894   3.665  19.283  0.00  0.00    +0.000 A 
ATOM     18  C   UNL     1       3.573   3.249  19.085  0.00  0.00    +0.000 A 
ATOM     19  C   UNL     1       2.658   4.115  18.489  0.00  0.00    +0.000 A 
ATOM     20 CL   UNL     1       1.040   3.599  18.223  0.00  0.00    +0.000 Cl
ATOM     21  C   UNL     1       3.050   5.392  18.106  0.00  0.00    +0.000 A 
ATOM     22  C   UNL     1       4.373   5.813  18.307  0.00  0.00    +0.000 A 
ENDBRANCH  14  16
ENDBRANCH  13  14
ENDBRANCH   3  13
TORSDOF 4
ENDMDL
MODEL 5
REMARK VINA RESULT:      -7.6      5.513      6.441
REMARK  Name = 
REMARK  5 active torsions:
REMARK  status: ('A' for Active; 'I' for Inactive)
REMARK    1  A    between atoms: C_1  and  C_2
REMARK    2  A    between atoms: C_5  and  C_6
REMARK    3  A    between atoms: N_8  and  C_9
REMARK    4  A    between atoms: C_9  and  C_10
REMARK    5  A    between atoms: C_10  and  C_12
REMARK                            x       y       z     vdW  Elec       q    Type
REMARK                         _______ _______ _______ _____ _____    ______ ____
ROOT
ATOM      1  C   UNL     1       2.301   6.657  19.786  0.00  0.00    +0.000 A 
ATOM      2  C   UNL     1       3.391   6.125  19.144  0.00  0.00    +0.000 A 
ATOM      3  N   UNL     1       3.513   4.876  19.660  0.00  0.00    +0.000 N 
ATOM      4  N   UNL     1       2.559   4.644  20.586  0.00  0.00    +0.000 NA
ATOM      5  N   UNL     1       1.808   5.734  20.671  0.00  0.00    +0.000 NA
ENDROOT
BRANCH   1  10
ATOM      6  C   UNL     1       0.135  11.928  18.938  0.00  0.00    +0.000 C 
ATOM      7  C   UNL     1       0.717  10.562  19.149  0.00  0.00    +0.000 A 
ATOM      8  C   UNL     1       1.364   9.886  18.112  0.00  0.00    +0.000 A 
ATOM      9  C   UNL     1       1.897   8.610  18.320  0.00  0.00    +0.000 A 
ATOM     10  C   UNL     1       1.774   7.986  19.573  0.00  0.00    +0.000 A 
ATOM     11  C   UNL     1       1.134   8.666  20.608  0.00  0.00    +0.000 A 
ATOM     12  C   UNL     1       0.608   9.945  20.403  0.00  0.00    +0.000 A 
ENDBRANCH   1  10
BRANCH   3  13
ATOM     13  C   UNL     1       4.521   3.874  19.395  0.00  0.00    +0.000 C 
BRANCH  13  14
ATOM     14  C   UNL     1       5.791   4.448  18.799  0.00  0.00    +0.000 C 
ATOM     15  O   UNL     1       6.659   4.960  19.496  0.00  0.00    +0.000 OA
BRANCH  14  16
ATOM     16  C   UNL     1       5.987   4.373  17.315  0.00  0.00    +0.000 A 
ATOM     17  C   UNL     1       7.180   4.823  16.746  0.00  0.00    +0.000 A 
ATOM     18  C   UNL     1       7.380   4.762  15.363  0.00  0.00    +0.000 A 
ATOM     19  C   UNL     1       6.380   4.248  14.541  0.00  0.00    +0.000 A 
ATOM     20 CL   UNL     1       6.613   4.194  12.839  0.00  0.00    +0.000 Cl
ATOM     21  C   UNL     1       5.192   3.781  15.093  0.00  0.00    +0.000 A 
ATOM     22  C   UNL     1       4.990   3.836  16.480  0.00  0.00    +0.000 A 
ENDBRANCH  14  16
ENDBRANCH  13  14
ENDBRANCH   3  13
TORSDOF 4
ENDMDL
MODEL 6
REMARK VINA RESULT:      -7.5      1.521      2.088
REMARK  Name = 
REMARK  5 active torsions:
REMARK  status: ('A' for Active; 'I' for Inactive)
REMARK    1  A    between atoms: C_1  and  C_2
REMARK    2  A    between atoms: C_5  and  C_6
REMARK    3  A    between atoms: N_8  and  C_9
REMARK    4  A    between atoms: C_9  and  C_10
REMARK    5  A    between atoms: C_10  and  C_12
REMARK                            x       y       z     vdW  Elec       q    Type
REMARK                         _______ _______ _______ _____ _____    ______ ____
ROOT
ATOM      1  C   UNL     1       8.308   8.496  18.334  0.00  0.00    +0.000 A 
ATOM      2  C   UNL     1       7.616   8.071  17.227  0.00  0.00    +0.000 A 
ATOM      3  N   UNL     1       7.423   6.745  17.435  0.00  0.00    +0.000 N 
ATOM      4  N   UNL     1       7.977   6.356  18.603  0.00  0.00    +0.000 NA
ATOM      5  N   UNL     1       8.523   7.427  19.165  0.00  0.00    +0.000 NA
ENDROOT
BRANCH   1  10
ATOM      6  C   UNL     1      10.124  13.889  19.236  0.00  0.00    +0.000 C 
ATOM      7  C   UNL     1       9.645  12.483  19.021  0.00  0.00    +0.000 A 
ATOM      8  C   UNL     1       9.944  11.472  19.937  0.00  0.00    +0.000 A 
ATOM      9  C   UNL     1       9.496  10.165  19.722  0.00  0.00    +0.000 A 
ATOM     10  C   UNL     1       8.752   9.851  18.572  0.00  0.00    +0.000 A 
ATOM     11  C   UNL     1       8.448  10.864  17.664  0.00  0.00    +0.000 A 
ATOM     12  C   UNL     1       8.888  12.172  17.883  0.00  0.00    +0.000 A 
ENDBRANCH   1  10
BRANCH   3  13
ATOM     13  C   UNL     1       6.800   5.767  16.571  0.00  0.00    +0.000 C 
BRANCH  13  14
ATOM     14  C   UNL     1       5.359   6.099  16.236  0.00  0.00    +0.000 C 
ATOM     15  O   UNL     1       5.061   6.777  15.261  0.00  0.00    +0.000 OA
BRANCH  14  16
ATOM     16  C   UNL     1       4.274   5.567  17.124  0.00  0.00    +0.000 A 
ATOM     17  C   UNL     1       3.589   6.431  17.979  0.00  0.00    +0.000 A 
ATOM     18  C   UNL     1       2.574   5.954  18.816  0.00  0.00    +0.000 A 
ATOM     19  C   UNL     1       2.243   4.601  18.797  0.00  0.00    +0.000 A 
ATOM     20 CL   UNL     1       1.014   4.006  19.841  0.00  0.00    +0.000 Cl
ATOM     21  C   UNL     1       2.905   3.730  17.939  0.00  0.00    +0.000 A 
ATOM     22  C   UNL     1       3.919   4.207  17.096  0.00  0.00    +0.000 A 
ENDBRANCH  14  16
ENDBRANCH  13  14
ENDBRANCH   3  13
TORSDOF 4
ENDMDL
MODEL 7
REMARK VINA RESULT:      -7.5      4.402      6.613
REMARK  Name = 
REMARK  5 active torsions:
REMARK  status: ('A' for Active; 'I' for Inactive)
REMARK    1  A    between atoms: C_1  and  C_2
REMARK    2  A    between atoms: C_5  and  C_6
REMARK    3  A    between atoms: N_8  and  C_9
REMARK    4  A    between atoms: C_9  and  C_10
REMARK    5  A    between atoms: C_10  and  C_12
REMARK                            x       y       z     vdW  Elec       q    Type
REMARK                         _______ _______ _______ _____ _____    ______ ____
ROOT
ATOM      1  C   UNL     1       2.860   6.247  18.997  0.00  0.00    +0.000 A 
ATOM      2  C   UNL     1       3.239   5.650  17.821  0.00  0.00    +0.000 A 
ATOM      3  N   UNL     1       3.855   4.504  18.204  0.00  0.00    +0.000 N 
ATOM      4  N   UNL     1       3.874   4.395  19.550  0.00  0.00    +0.000 NA
ATOM      5  N   UNL     1       3.264   5.463  20.047  0.00  0.00    +0.000 NA
ENDROOT
BRANCH   1  10
ATOM      6  C   UNL     1       0.147  11.311  19.431  0.00  0.00    +0.000 C 
ATOM      7  C   UNL     1       0.838   9.983  19.329  0.00  0.00    +0.000 A 
ATOM      8  C   UNL     1       0.985   9.160  20.448  0.00  0.00    +0.000 A 
ATOM      9  C   UNL     1       1.636   7.927  20.340  0.00  0.00    +0.000 A 
ATOM     10  C   UNL     1       2.165   7.509  19.107  0.00  0.00    +0.000 A 
ATOM     11  C   UNL     1       2.009   8.330  17.991  0.00  0.00    +0.000 A 
ATOM     12  C   UNL     1       1.351   9.558  18.096  0.00  0.00    +0.000 A 
ENDBRANCH   1  10
BRANCH   3  13
ATOM     13  C   UNL     1       4.505   3.501  17.390  0.00  0.00    +0.000 C 
BRANCH  13  14
ATOM     14  C   UNL     1       5.683   4.043  16.605  0.00  0.00    +0.000 C 
ATOM     15  O   UNL     1       6.014   3.568  15.525  0.00  0.00    +0.000 OA
BRANCH  14  16
ATOM     16  C   UNL     1       6.452   5.200  17.168  0.00  0.00    +0.000 A 
ATOM     17  C   UNL     1       6.377   6.451  16.552  0.00  0.00    +0.000 A 
ATOM     18  C   UNL     1       7.088   7.543  17.061  0.00  0.00    +0.000 A 
ATOM     19  C   UNL     1       7.880   7.383  18.196  0.00  0.00    +0.000 A 
ATOM     20 CL   UNL     1       8.775   8.716  18.811  0.00  0.00    +0.000 Cl
ATOM     21  C   UNL     1       7.952   6.148  18.831  0.00  0.00    +0.000 A 
ATOM     22  C   UNL     1       7.237   5.053  18.325  0.00  0.00    +0.000 A 
ENDBRANCH  14  16
ENDBRANCH  13  14
ENDBRANCH   3  13
TORSDOF 4
ENDMDL
MODEL 8
REMARK VINA RESULT:      -7.5      1.529      1.809
REMARK  Name = 
REMARK  5 active torsions:
REMARK  status: ('A' for Active; 'I' for Inactive)
REMARK    1  A    between atoms: C_1  and  C_2
REMARK    2  A    between atoms: C_5  and  C_6
REMARK    3  A    between atoms: N_8  and  C_9
REMARK    4  A    between atoms: C_9  and  C_10
REMARK    5  A    between atoms: C_10  and  C_12
REMARK                            x       y       z     vdW  Elec       q    Type
REMARK                         _______ _______ _______ _____ _____    ______ ____
ROOT
ATOM      1  C   UNL     1       8.318   8.489  18.327  0.00  0.00    +0.000 A 
ATOM      2  C   UNL     1       7.635   8.064  17.215  0.00  0.00    +0.000 A 
ATOM      3  N   UNL     1       7.422   6.742  17.432  0.00  0.00    +0.000 N 
ATOM      4  N   UNL     1       7.955   6.356  18.610  0.00  0.00    +0.000 NA
ATOM      5  N   UNL     1       8.508   7.425  19.170  0.00  0.00    +0.000 NA
ENDROOT
BRANCH   1  10
ATOM      6  C   UNL     1      10.097  13.881  19.303  0.00  0.00    +0.000 C 
ATOM      7  C   UNL     1       9.640  12.479  19.029  0.00  0.00    +0.000 A 
ATOM      8  C   UNL     1       8.911  12.171  17.879  0.00  0.00    +0.000 A 
ATOM      9  C   UNL     1       8.486  10.860  17.638  0.00  0.00    +0.000 A 
ATOM     10  C   UNL     1       8.776   9.840  18.560  0.00  0.00    +0.000 A 
ATOM     11  C   UNL     1       9.511  10.149  19.703  0.00  0.00    +0.000 A 
ATOM     12  C   UNL     1       9.943  11.457  19.940  0.00  0.00    +0.000 A 
ENDBRANCH   1  10
BRANCH   3  13
ATOM     13  C   UNL     1       6.797   5.765  16.569  0.00  0.00    +0.000 C 
BRANCH  13  14
ATOM     14  C   UNL     1       5.354   6.095  16.240  0.00  0.00    +0.000 C 
ATOM     15  O   UNL     1       5.051   6.773  15.266  0.00  0.00    +0.000 OA
BRANCH  14  16
ATOM     16  C   UNL     1       4.274   5.562  17.132  0.00  0.00    +0.000 A 
ATOM     17  C   UNL     1       3.676   6.398  18.077  0.00  0.00    +0.000 A 
ATOM     18  C   UNL     1       2.668   5.919  18.920  0.00  0.00    +0.000 A 
ATOM     19  C   UNL     1       2.253   4.593  18.817  0.00  0.00    +0.000 A 
ATOM     20 CL   UNL     1       1.032   3.994  19.867  0.00  0.00    +0.000 Cl
ATOM     21  C   UNL     1       2.827   3.752  17.871  0.00  0.00    +0.000 A 
ATOM     22  C   UNL     1       3.835   4.231  17.021  0.00  0.00    +0.000 A 
ENDBRANCH  14  16
ENDBRANCH  13  14
ENDBRANCH   3  13
TORSDOF 4
ENDMDL
MODEL 9
REMARK VINA RESULT:      -7.5      1.235      1.389
REMARK  Name = 
REMARK  5 active torsions:
REMARK  status: ('A' for Active; 'I' for Inactive)
REMARK    1  A    between atoms: C_1  and  C_2
REMARK    2  A    between atoms: C_5  and  C_6
REMARK    3  A    between atoms: N_8  and  C_9
REMARK    4  A    between atoms: C_9  and  C_10
REMARK    5  A    between atoms: C_10  and  C_12
REMARK                            x       y       z     vdW  Elec       q    Type
REMARK                         _______ _______ _______ _____ _____    ______ ____
ROOT
ATOM      1  C   UNL     1       8.339   9.238  18.188  0.00  0.00    +0.000 A 
ATOM      2  C   UNL     1       8.567   7.957  18.623  0.00  0.00    +0.000 A 
ATOM      3  N   UNL     1       7.738   7.190  17.870  0.00  0.00    +0.000 N 
ATOM      4  N   UNL     1       7.020   7.953  17.018  0.00  0.00    +0.000 NA
ATOM      5  N   UNL     1       7.383   9.215  17.206  0.00  0.00    +0.000 NA
ENDROOT
BRANCH   1  10
ATOM      6  C   UNL     1      10.890  13.968  20.266  0.00  0.00    +0.000 C 
ATOM      7  C   UNL     1      10.236  12.739  19.707  0.00  0.00    +0.000 A 
ATOM      8  C   UNL     1       9.695  12.733  18.419  0.00  0.00    +0.000 A 
ATOM      9  C   UNL     1       9.083  11.582  17.912  0.00  0.00    +0.000 A 
ATOM     10  C   UNL     1       8.993  10.422  18.699  0.00  0.00    +0.000 A 
ATOM     11  C   UNL     1       9.541  10.429  19.981  0.00  0.00    +0.000 A 
ATOM     12  C   UNL     1      10.160  11.576  20.485  0.00  0.00    +0.000 A 
ENDBRANCH   1  10
BRANCH   3  13
ATOM     13  C   UNL     1       7.509   5.764  17.930  0.00  0.00    +0.000 C 
BRANCH  13  14
ATOM     14  C   UNL     1       6.701   5.339  19.140  0.00  0.00    +0.000 C 
ATOM     15  O   UNL     1       7.165   5.378  20.273  0.00  0.00    +0.000 OA
BRANCH  14  16
ATOM     16  C   UNL     1       5.292   4.872  18.936  0.00  0.00    +0.000 A 
ATOM     17  C   UNL     1       4.326   5.760  18.461  0.00  0.00    +0.000 A 
ATOM     18  C   UNL     1       3.005   5.343  18.265  0.00  0.00    +0.000 A 
ATOM     19  C   UNL     1       2.647   4.026  18.547  0.00  0.00    +0.000 A 
ATOM     20 CL   UNL     1       1.020   3.516  18.331  0.00  0.00    +0.000 Cl
ATOM     21  C   UNL     1       3.601   3.124  19.005  0.00  0.00    +0.000 A 
ATOM     22  C   UNL     1       4.927   3.539  19.198  0.00  0.00    +0.000 A 
ENDBRANCH  14  16
ENDBRANCH  13  14
ENDBRANCH   3  13
TORSDOF 4
ENDMDL
