MODEL 1
REMARK VINA RESULT:      -9.5      0.000      0.000
REMARK  Name = 
REMARK  9 active torsions:
REMARK  status: ('A' for Active; 'I' for Inactive)
REMARK    1  A    between atoms: C_1  and  C_2
REMARK    2  A    between atoms: N_4  and  C_5
REMARK    3  A    between atoms: C_5  and  C_6
REMARK    4  A    between atoms: C_5  and  C_7
REMARK    5  A    between atoms: C_7  and  C_8
REMARK    6  A    between atoms: C_11  and  C_12
REMARK    7  A    between atoms: C_13  and  C_14
REMARK    8  A    between atoms: C_17  and  O_18
REMARK    9  A    between atoms: O_18  and  C_19
REMARK                            x       y       z     vdW  Elec       q    Type
REMARK                         _______ _______ _______ _____ _____    ______ ____
ROOT
ATOM      1  C   UNL     1       8.792   9.219  18.677  0.00  0.00    +0.000 C 
ATOM      2  C   UNL     1       8.301   8.182  18.310  0.00  0.00    +0.000 C 
ENDROOT
BRANCH   1   6
ATOM      3  C   UNL     1      10.481  12.953  19.842  0.00  0.00    +0.000 A 
ATOM      4  C   UNL     1      10.131  12.002  20.807  0.00  0.00    +0.000 A 
ATOM      5  C   UNL     1       9.545  10.786  20.433  0.00  0.00    +0.000 A 
ATOM      6  C   UNL     1       9.299  10.505  19.085  0.00  0.00    +0.000 A 
ATOM      7  C   UNL     1       9.585  11.476  18.125  0.00  0.00    +0.000 A 
ATOM      8  C   UNL     1      10.169  12.693  18.498  0.00  0.00    +0.000 A 
BRANCH   3   9
ATOM      9  C   UNL     1      11.201  14.237  20.221  0.00  0.00    +0.000 C 
BRANCH   9  10
ATOM     10  C   UNL     1      10.991  15.392  19.215  0.00  0.00    +0.000 C 
ATOM     11  C   UNL     1      12.277  16.206  19.046  0.00  0.00    +0.000 C 
BRANCH  10  15
ATOM     12  C   UNL     1       7.791  17.428  19.393  0.00  0.00    +0.000 C 
ATOM     13  C   UNL     1       8.790  16.459  18.823  0.00  0.00    +0.000 C 
ATOM     14  O   UNL     1       8.611  15.885  17.754  0.00  0.00    +0.000 OA
ATOM     15  N   UNL     1       9.900  16.275  19.618  0.00  0.00    +0.000 N 
ATOM     16  H   UNL     1      10.016  16.855  20.438  0.00  0.00    +0.000 HD
ENDBRANCH  10  15
ENDBRANCH   9  10
ENDBRANCH   3   9
ENDBRANCH   1   6
BRANCH   2  17
ATOM     17  C   UNL     1       7.677   6.983  17.829  0.00  0.00    +0.000 A 
ATOM     18  C   UNL     1       7.008   6.922  16.626  0.00  0.00    +0.000 A 
ATOM     19  N   UNL     1       6.342   5.830  16.179  0.00  0.00    +0.000 NA
ATOM     20  C   UNL     1       6.368   4.743  16.968  0.00  0.00    +0.000 A 
ATOM     21  N   UNL     1       7.006   4.665  18.146  0.00  0.00    +0.000 NA
ATOM     22  C   UNL     1       7.650   5.798  18.545  0.00  0.00    +0.000 A 
BRANCH  20  23
ATOM     23  O   UNL     1       5.493   3.747  16.595  0.00  0.00    +0.000 OA
BRANCH  23  24
ATOM     24  C   UNL     1       4.127   3.964  16.949  0.00  0.00    +0.000 C 
ATOM     25  C   UNL     1       4.099   5.090  18.024  0.00  0.00    +0.000 C 
ATOM     26  C   UNL     1       2.973   4.680  18.921  0.00  0.00    +0.000 A 
ATOM     27  C   UNL     1       2.374   5.412  19.936  0.00  0.00    +0.000 A 
ATOM     28  C   UNL     1       1.310   4.838  20.632  0.00  0.00    +0.000 A 
ATOM     29  C   UNL     1       0.854   3.552  20.301  0.00  0.00    +0.000 A 
ATOM     30  C   UNL     1       1.495   2.805  19.308  0.00  0.00    +0.000 A 
ATOM     31  C   UNL     1       2.569   3.373  18.641  0.00  0.00    +0.000 A 
ATOM     32  C   UNL     1       3.493   2.737  17.644  0.00  0.00    +0.000 C 
ENDBRANCH  23  24
ENDBRANCH  20  23
ENDBRANCH   2  17
TORSDOF 7
ENDMDL
MODEL 2
REMARK VINA RESULT:      -9.4      0.924      1.371
REMARK  Name = 
REMARK  9 active torsions:
REMARK  status: ('A' for Active; 'I' for Inactive)
REMARK    1  A    between atoms: C_1  and  C_2
REMARK    2  A    between atoms: N_4  and  C_5
REMARK    3  A    between atoms: C_5  and  C_6
REMARK    4  A    between atoms: C_5  and  C_7
REMARK    5  A    between atoms: C_7  and  C_8
REMARK    6  A    between atoms: C_11  and  C_12
REMARK    7  A    between atoms: C_13  and  C_14
REMARK    8  A    between atoms: C_17  and  O_18
REMARK    9  A    between atoms: O_18  and  C_19
REMARK                            x       y       z     vdW  Elec       q    Type
REMARK                         _______ _______ _______ _____ _____    ______ ____
ROOT
ATOM      1  C   UNL     1       8.768   9.214  18.573  0.00  0.00    +0.000 C 
ATOM      2  C   UNL     1       8.173   8.244  18.181  0.00  0.00    +0.000 C 
ENDROOT
BRANCH   1   6
ATOM      3  C   UNL     1      10.559  12.898  19.748  0.00  0.00    +0.000 A 
ATOM      4  C   UNL     1      10.624  12.472  18.416  0.00  0.00    +0.000 A 
ATOM      5  C   UNL     1      10.066  11.246  18.030  0.00  0.00    +0.000 A 
ATOM      6  C   UNL     1       9.435  10.428  18.973  0.00  0.00    +0.000 A 
ATOM      7  C   UNL     1       9.425  10.817  20.312  0.00  0.00    +0.000 A 
ATOM      8  C   UNL     1       9.985  12.041  20.700  0.00  0.00    +0.000 A 
BRANCH   3   9
ATOM      9  C   UNL     1      11.076  14.264  20.167  0.00  0.00    +0.000 C 
BRANCH   9  10
ATOM     10  C   UNL     1      10.016  15.386  20.085  0.00  0.00    +0.000 C 
ATOM     11  C   UNL     1       9.647  15.889  21.483  0.00  0.00    +0.000 C 
BRANCH  10  15
ATOM     12  C   UNL     1       7.071  15.030  17.715  0.00  0.00    +0.000 C 
ATOM     13  C   UNL     1       8.340  15.611  18.274  0.00  0.00    +0.000 C 
ATOM     14  O   UNL     1       8.898  16.580  17.768  0.00  0.00    +0.000 OA
ATOM     15  N   UNL     1       8.811  14.948  19.386  0.00  0.00    +0.000 N 
ATOM     16  H   UNL     1       8.243  14.218  19.797  0.00  0.00    +0.000 HD
ENDBRANCH  10  15
ENDBRANCH   9  10
ENDBRANCH   3   9
ENDBRANCH   1   6
BRANCH   2  17
ATOM     17  C   UNL     1       7.456   7.118  17.654  0.00  0.00    +0.000 A 
ATOM     18  C   UNL     1       6.407   7.251  16.770  0.00  0.00    +0.000 A 
ATOM     19  N   UNL     1       5.660   6.217  16.314  0.00  0.00    +0.000 NA
ATOM     20  C   UNL     1       5.996   4.991  16.749  0.00  0.00    +0.000 A 
ATOM     21  N   UNL     1       7.012   4.726  17.586  0.00  0.00    +0.000 NA
ATOM     22  C   UNL     1       7.720   5.808  18.016  0.00  0.00    +0.000 A 
BRANCH  20  23
ATOM     23  O   UNL     1       5.077   4.009  16.455  0.00  0.00    +0.000 OA
BRANCH  23  24
ATOM     24  C   UNL     1       3.763   4.221  16.972  0.00  0.00    +0.000 C 
ATOM     25  C   UNL     1       3.918   4.833  18.395  0.00  0.00    +0.000 C 
ATOM     26  C   UNL     1       2.774   4.234  19.153  0.00  0.00    +0.000 A 
ATOM     27  C   UNL     1       2.309   4.573  20.415  0.00  0.00    +0.000 A 
ATOM     28  C   UNL     1       1.200   3.895  20.921  0.00  0.00    +0.000 A 
ATOM     29  C   UNL     1       0.567   2.899  20.160  0.00  0.00    +0.000 A 
ATOM     30  C   UNL     1       1.072   2.533  18.908  0.00  0.00    +0.000 A 
ATOM     31  C   UNL     1       2.192   3.193  18.426  0.00  0.00    +0.000 A 
ATOM     32  C   UNL     1       2.993   2.899  17.192  0.00  0.00    +0.000 C 
ENDBRANCH  23  24
ENDBRANCH  20  23
ENDBRANCH   2  17
TORSDOF 7
ENDMDL
MODEL 3
REMARK VINA RESULT:      -9.4      1.131      1.362
REMARK  Name = 
REMARK  9 active torsions:
REMARK  status: ('A' for Active; 'I' for Inactive)
REMARK    1  A    between atoms: C_1  and  C_2
REMARK    2  A    between atoms: N_4  and  C_5
REMARK    3  A    between atoms: C_5  and  C_6
REMARK    4  A    between atoms: C_5  and  C_7
REMARK    5  A    between atoms: C_7  and  C_8
REMARK    6  A    between atoms: C_11  and  C_12
REMARK    7  A    between atoms: C_13  and  C_14
REMARK    8  A    between atoms: C_17  and  O_18
REMARK    9  A    between atoms: O_18  and  C_19
REMARK                            x       y       z     vdW  Elec       q    Type
REMARK                         _______ _______ _______ _____ _____    ______ ____
ROOT
ATOM      1  C   UNL     1       8.889  10.157  18.349  0.00  0.00    +0.000 C 
ATOM      2  C   UNL     1       8.474   9.039  18.186  0.00  0.00    +0.000 C 
ENDROOT
BRANCH   1   6
ATOM      3  C   UNL     1      10.211  14.193  18.690  0.00  0.00    +0.000 A 
ATOM      4  C   UNL     1      10.813  13.184  19.451  0.00  0.00    +0.000 A 
ATOM      5  C   UNL     1      10.361  11.861  19.368  0.00  0.00    +0.000 A 
ATOM      6  C   UNL     1       9.298  11.529  18.521  0.00  0.00    +0.000 A 
ATOM      7  C   UNL     1       8.652  12.541  17.812  0.00  0.00    +0.000 A 
ATOM      8  C   UNL     1       9.102  13.864  17.896  0.00  0.00    +0.000 A 
BRANCH   3   9
ATOM      9  C   UNL     1      10.747  15.615  18.698  0.00  0.00    +0.000 C 
BRANCH   9  10
ATOM     10  C   UNL     1      10.080  16.530  19.751  0.00  0.00    +0.000 C 
ATOM     11  C   UNL     1      10.556  16.173  21.162  0.00  0.00    +0.000 C 
BRANCH  10  15
ATOM     12  C   UNL     1       6.400  17.150  19.054  0.00  0.00    +0.000 C 
ATOM     13  C   UNL     1       7.885  17.369  18.967  0.00  0.00    +0.000 C 
ATOM     14  O   UNL     1       8.378  18.273  18.300  0.00  0.00    +0.000 OA
ATOM     15  N   UNL     1       8.623  16.458  19.691  0.00  0.00    +0.000 N 
ATOM     16  H   UNL     1       8.139  15.801  20.289  0.00  0.00    +0.000 HD
ENDBRANCH  10  15
ENDBRANCH   9  10
ENDBRANCH   3   9
ENDBRANCH   1   6
BRANCH   2  17
ATOM     17  C   UNL     1       7.929   7.732  17.953  0.00  0.00    +0.000 A 
ATOM     18  C   UNL     1       7.067   7.459  16.913  0.00  0.00    +0.000 A 
ATOM     19  N   UNL     1       6.474   6.258  16.710  0.00  0.00    +0.000 NA
ATOM     20  C   UNL     1       6.778   5.281  17.580  0.00  0.00    +0.000 A 
ATOM     21  N   UNL     1       7.623   5.410  18.615  0.00  0.00    +0.000 NA
ATOM     22  C   UNL     1       8.181   6.644  18.771  0.00  0.00    +0.000 A 
BRANCH  20  23
ATOM     23  O   UNL     1       5.983   4.161  17.481  0.00  0.00    +0.000 OA
BRANCH  23  24
ATOM     24  C   UNL     1       4.584   4.382  17.666  0.00  0.00    +0.000 C 
ATOM     25  C   UNL     1       4.365   4.753  19.161  0.00  0.00    +0.000 C 
ATOM     26  C   UNL     1       3.045   4.125  19.482  0.00  0.00    +0.000 A 
ATOM     27  C   UNL     1       2.267   4.296  20.617  0.00  0.00    +0.000 A 
ATOM     28  C   UNL     1       1.045   3.627  20.694  0.00  0.00    +0.000 A 
ATOM     29  C   UNL     1       0.614   2.809  19.638  0.00  0.00    +0.000 A 
ATOM     30  C   UNL     1       1.428   2.606  18.518  0.00  0.00    +0.000 A 
ATOM     31  C   UNL     1       2.652   3.253  18.464  0.00  0.00    +0.000 A 
ATOM     32  C   UNL     1       3.748   3.099  17.450  0.00  0.00    +0.000 C 
ENDBRANCH  23  24
ENDBRANCH  20  23
ENDBRANCH   2  17
TORSDOF 7
ENDMDL
MODEL 4
REMARK VINA RESULT:      -9.3      1.028      1.870
REMARK  Name = 
REMARK  9 active torsions:
REMARK  status: ('A' for Active; 'I' for Inactive)
REMARK    1  A    between atoms: C_1  and  C_2
REMARK    2  A    between atoms: N_4  and  C_5
REMARK    3  A    between atoms: C_5  and  C_6
REMARK    4  A    between atoms: C_5  and  C_7
REMARK    5  A    between atoms: C_7  and  C_8
REMARK    6  A    between atoms: C_11  and  C_12
REMARK    7  A    between atoms: C_13  and  C_14
REMARK    8  A    between atoms: C_17  and  O_18
REMARK    9  A    between atoms: O_18  and  C_19
REMARK                            x       y       z     vdW  Elec       q    Type
REMARK                         _______ _______ _______ _____ _____    ______ ____
ROOT
ATOM      1  C   UNL     1       9.024   9.797  18.382  0.00  0.00    +0.000 C 
ATOM      2  C   UNL     1       8.376   8.808  18.152  0.00  0.00    +0.000 C 
ENDROOT
BRANCH   1   6
ATOM      3  C   UNL     1      11.124  13.338  19.480  0.00  0.00    +0.000 A 
ATOM      4  C   UNL     1      11.069  12.933  18.141  0.00  0.00    +0.000 A 
ATOM      5  C   UNL     1      10.408  11.752  17.778  0.00  0.00    +0.000 A 
ATOM      6  C   UNL     1       9.793  10.959  18.752  0.00  0.00    +0.000 A 
ATOM      7  C   UNL     1       9.901  11.323  20.093  0.00  0.00    +0.000 A 
ATOM      8  C   UNL     1      10.564  12.502  20.458  0.00  0.00    +0.000 A 
BRANCH   3   9
ATOM      9  C   UNL     1      11.755  14.661  19.880  0.00  0.00    +0.000 C 
BRANCH   9  10
ATOM     10  C   UNL     1      10.754  15.838  19.942  0.00  0.00    +0.000 C 
ATOM     11  C   UNL     1      10.618  16.362  21.375  0.00  0.00    +0.000 C 
BRANCH  10  15
ATOM     12  C   UNL     1       7.588  15.466  17.879  0.00  0.00    +0.000 C 
ATOM     13  C   UNL     1       8.976  15.937  18.221  0.00  0.00    +0.000 C 
ATOM     14  O   UNL     1       9.624  16.665  17.476  0.00  0.00    +0.000 OA
ATOM     15  N   UNL     1       9.439  15.464  19.429  0.00  0.00    +0.000 N 
ATOM     16  H   UNL     1       8.809  14.946  20.026  0.00  0.00    +0.000 HD
ENDBRANCH  10  15
ENDBRANCH   9  10
ENDBRANCH   3   9
ENDBRANCH   1   6
BRANCH   2  17
ATOM     17  C   UNL     1       7.580   7.633  17.943  0.00  0.00    +0.000 A 
ATOM     18  C   UNL     1       7.890   6.413  18.505  0.00  0.00    +0.000 A 
ATOM     19  N   UNL     1       7.206   5.268  18.266  0.00  0.00    +0.000 NA
ATOM     20  C   UNL     1       6.149   5.358  17.441  0.00  0.00    +0.000 A 
ATOM     21  N   UNL     1       5.728   6.490  16.854  0.00  0.00    +0.000 NA
ATOM     22  C   UNL     1       6.462   7.605  17.127  0.00  0.00    +0.000 A 
BRANCH  20  23
ATOM     23  O   UNL     1       5.632   4.146  17.042  0.00  0.00    +0.000 OA
BRANCH  23  24
ATOM     24  C   UNL     1       4.867   3.450  18.025  0.00  0.00    +0.000 C 
ATOM     25  C   UNL     1       3.505   3.071  17.373  0.00  0.00    +0.000 C 
ATOM     26  C   UNL     1       2.535   3.200  18.505  0.00  0.00    +0.000 A 
ATOM     27  C   UNL     1       1.207   2.799  18.547  0.00  0.00    +0.000 A 
ATOM     28  C   UNL     1       0.490   2.993  19.728  0.00  0.00    +0.000 A 
ATOM     29  C   UNL     1       1.107   3.573  20.847  0.00  0.00    +0.000 A 
ATOM     30  C   UNL     1       2.431   4.016  20.780  0.00  0.00    +0.000 A 
ATOM     31  C   UNL     1       3.127   3.844  19.593  0.00  0.00    +0.000 A 
ATOM     32  C   UNL     1       4.494   4.346  19.229  0.00  0.00    +0.000 C 
ENDBRANCH  23  24
ENDBRANCH  20  23
ENDBRANCH   2  17
TORSDOF 7
ENDMDL
MODEL 5
REMARK VINA RESULT:      -9.2      1.764      2.366
REMARK  Name = 
REMARK  9 active torsions:
REMARK  status: ('A' for Active; 'I' for Inactive)
REMARK    1  A    between atoms: C_1  and  C_2
REMARK    2  A    between atoms: N_4  and  C_5
REMARK    3  A    between atoms: C_5  and  C_6
REMARK    4  A    between atoms: C_5  and  C_7
REMARK    5  A    between atoms: C_7  and  C_8
REMARK    6  A    between atoms: C_11  and  C_12
REMARK    7  A    between atoms: C_13  and  C_14
REMARK    8  A    between atoms: C_17  and  O_18
REMARK    9  A    between atoms: O_18  and  C_19
REMARK                            x       y       z     vdW  Elec       q    Type
REMARK                         _______ _______ _______ _____ _____    ______ ____
ROOT
ATOM      1  C   UNL     1       8.941  10.182  18.441  0.00  0.00    +0.000 C 
ATOM      2  C   UNL     1       8.459   9.114  18.164  0.00  0.00    +0.000 C 
ENDROOT
BRANCH   1   6
ATOM      3  C   UNL     1      10.687  13.812  19.832  0.00  0.00    +0.000 A 
ATOM      4  C   UNL     1       9.515  13.837  19.068  0.00  0.00    +0.000 A 
ATOM      5  C   UNL     1       8.954  12.649  18.580  0.00  0.00    +0.000 A 
ATOM      6  C   UNL     1       9.561  11.418  18.850  0.00  0.00    +0.000 A 
ATOM      7  C   UNL     1      10.764  11.393  19.554  0.00  0.00    +0.000 A 
ATOM      8  C   UNL     1      11.326  12.579  20.041  0.00  0.00    +0.000 A 
BRANCH   3   9
ATOM      9  C   UNL     1      11.257  15.079  20.447  0.00  0.00    +0.000 C 
BRANCH   9  10
ATOM     10  C   UNL     1      10.323  15.747  21.482  0.00  0.00    +0.000 C 
ATOM     11  C   UNL     1      11.036  16.900  22.194  0.00  0.00    +0.000 C 
BRANCH  10  15
ATOM     12  C   UNL     1       8.174  13.635  23.792  0.00  0.00    +0.000 C 
ATOM     13  C   UNL     1       8.483  14.644  22.720  0.00  0.00    +0.000 C 
ATOM     14  O   UNL     1       7.605  15.262  22.127  0.00  0.00    +0.000 OA
ATOM     15  N   UNL     1       9.830  14.791  22.469  0.00  0.00    +0.000 N 
ATOM     16  H   UNL     1      10.494  14.315  23.065  0.00  0.00    +0.000 HD
ENDBRANCH  10  15
ENDBRANCH   9  10
ENDBRANCH   3   9
ENDBRANCH   1   6
BRANCH   2  17
ATOM     17  C   UNL     1       7.892   7.823  17.899  0.00  0.00    +0.000 A 
ATOM     18  C   UNL     1       7.055   7.581  16.831  0.00  0.00    +0.000 A 
ATOM     19  N   UNL     1       6.442   6.396  16.597  0.00  0.00    +0.000 NA
ATOM     20  C   UNL     1       6.699   5.402  17.464  0.00  0.00    +0.000 A 
ATOM     21  N   UNL     1       7.516   5.501  18.524  0.00  0.00    +0.000 NA
ATOM     22  C   UNL     1       8.096   6.720  18.711  0.00  0.00    +0.000 A 
BRANCH  20  23
ATOM     23  O   UNL     1       5.883   4.302  17.328  0.00  0.00    +0.000 OA
BRANCH  23  24
ATOM     24  C   UNL     1       5.108   3.966  18.480  0.00  0.00    +0.000 C 
ATOM     25  C   UNL     1       4.064   2.898  18.042  0.00  0.00    +0.000 C 
ATOM     26  C   UNL     1       2.861   3.236  18.866  0.00  0.00    +0.000 A 
ATOM     27  C   UNL     1       1.697   2.498  19.028  0.00  0.00    +0.000 A 
ATOM     28  C   UNL     1       0.706   2.996  19.874  0.00  0.00    +0.000 A 
ATOM     29  C   UNL     1       0.893   4.211  20.551  0.00  0.00    +0.000 A 
ATOM     30  C   UNL     1       2.050   4.969  20.345  0.00  0.00    +0.000 A 
ATOM     31  C   UNL     1       3.016   4.480  19.480  0.00  0.00    +0.000 A 
ATOM     32  C   UNL     1       4.266   5.156  18.995  0.00  0.00    +0.000 C 
ENDBRANCH  23  24
ENDBRANCH  20  23
ENDBRANCH   2  17
TORSDOF 7
ENDMDL
MODEL 6
REMARK VINA RESULT:      -9.1      1.285      1.591
REMARK  Name = 
REMARK  9 active torsions:
REMARK  status: ('A' for Active; 'I' for Inactive)
REMARK    1  A    between atoms: C_1  and  C_2
REMARK    2  A    between atoms: N_4  and  C_5
REMARK    3  A    between atoms: C_5  and  C_6
REMARK    4  A    between atoms: C_5  and  C_7
REMARK    5  A    between atoms: C_7  and  C_8
REMARK    6  A    between atoms: C_11  and  C_12
REMARK    7  A    between atoms: C_13  and  C_14
REMARK    8  A    between atoms: C_17  and  O_18
REMARK    9  A    between atoms: O_18  and  C_19
REMARK                            x       y       z     vdW  Elec       q    Type
REMARK                         _______ _______ _______ _____ _____    ______ ____
ROOT
ATOM      1  C   UNL     1       8.972  10.337  18.139  0.00  0.00    +0.000 C 
ATOM      2  C   UNL     1       8.573   9.202  18.119  0.00  0.00    +0.000 C 
ENDROOT
BRANCH   1   6
ATOM      3  C   UNL     1      10.471  14.298  18.615  0.00  0.00    +0.000 A 
ATOM      4  C   UNL     1       9.362  13.867  19.352  0.00  0.00    +0.000 A 
ATOM      5  C   UNL     1       8.844  12.577  19.176  0.00  0.00    +0.000 A 
ATOM      6  C   UNL     1       9.430  11.700  18.258  0.00  0.00    +0.000 A 
ATOM      7  C   UNL     1      10.494  12.146  17.474  0.00  0.00    +0.000 A 
ATOM      8  C   UNL     1      11.011  13.436  17.648  0.00  0.00    +0.000 A 
BRANCH   3   9
ATOM      9  C   UNL     1      11.103  15.658  18.860  0.00  0.00    +0.000 C 
BRANCH   9  10
ATOM     10  C   UNL     1      10.237  16.846  18.378  0.00  0.00    +0.000 C 
ATOM     11  C   UNL     1      11.086  17.863  17.612  0.00  0.00    +0.000 C 
BRANCH  10  15
ATOM     12  C   UNL     1       7.739  18.631  20.612  0.00  0.00    +0.000 C 
ATOM     13  C   UNL     1       8.254  17.943  19.378  0.00  0.00    +0.000 C 
ATOM     14  O   UNL     1       7.560  17.782  18.378  0.00  0.00    +0.000 OA
ATOM     15  N   UNL     1       9.557  17.509  19.487  0.00  0.00    +0.000 N 
ATOM     16  H   UNL     1      10.090  17.763  20.308  0.00  0.00    +0.000 HD
ENDBRANCH  10  15
ENDBRANCH   9  10
ENDBRANCH   3   9
ENDBRANCH   1   6
BRANCH   2  17
ATOM     17  C   UNL     1       8.060   7.863  18.152  0.00  0.00    +0.000 A 
ATOM     18  C   UNL     1       7.124   7.401  17.252  0.00  0.00    +0.000 A 
ATOM     19  N   UNL     1       6.562   6.169  17.302  0.00  0.00    +0.000 NA
ATOM     20  C   UNL     1       6.974   5.357  18.289  0.00  0.00    +0.000 A 
ATOM     21  N   UNL     1       7.898   5.676  19.209  0.00  0.00    +0.000 NA
ATOM     22  C   UNL     1       8.420   6.932  19.111  0.00  0.00    +0.000 A 
BRANCH  20  23
ATOM     23  O   UNL     1       6.216   4.219  18.446  0.00  0.00    +0.000 OA
BRANCH  23  24
ATOM     24  C   UNL     1       4.810   4.387  18.265  0.00  0.00    +0.000 C 
ATOM     25  C   UNL     1       4.203   4.752  19.651  0.00  0.00    +0.000 C 
ATOM     26  C   UNL     1       2.869   4.074  19.631  0.00  0.00    +0.000 A 
ATOM     27  C   UNL     1       1.820   4.218  20.529  0.00  0.00    +0.000 A 
ATOM     28  C   UNL     1       0.644   3.503  20.298  0.00  0.00    +0.000 A 
ATOM     29  C   UNL     1       0.528   2.667  19.177  0.00  0.00    +0.000 A 
ATOM     30  C   UNL     1       1.607   2.494  18.304  0.00  0.00    +0.000 A 
ATOM     31  C   UNL     1       2.781   3.187  18.557  0.00  0.00    +0.000 A 
ATOM     32  C   UNL     1       4.104   3.072  17.858  0.00  0.00    +0.000 C 
ENDBRANCH  23  24
ENDBRANCH  20  23
ENDBRANCH   2  17
TORSDOF 7
ENDMDL
MODEL 7
REMARK VINA RESULT:      -9.1      1.264      1.832
REMARK  Name = 
REMARK  9 active torsions:
REMARK  status: ('A' for Active; 'I' for Inactive)
REMARK    1  A    between atoms: C_1  and  C_2
REMARK    2  A    between atoms: N_4  and  C_5
REMARK    3  A    between atoms: C_5  and  C_6
REMARK    4  A    between atoms: C_5  and  C_7
REMARK    5  A    between atoms: C_7  and  C_8
REMARK    6  A    between atoms: C_11  and  C_12
REMARK    7  A    between atoms: C_13  and  C_14
REMARK    8  A    between atoms: C_17  and  O_18
REMARK    9  A    between atoms: O_18  and  C_19
REMARK                            x       y       z     vdW  Elec       q    Type
REMARK                         _______ _______ _______ _____ _____    ______ ____
ROOT
ATOM      1  C   UNL     1       9.234  10.540  18.530  0.00  0.00    +0.000 C 
ATOM      2  C   UNL     1       8.678   9.489  18.340  0.00  0.00    +0.000 C 
ENDROOT
BRANCH   1   6
ATOM      3  C   UNL     1      11.150  14.317  18.999  0.00  0.00    +0.000 A 
ATOM      4  C   UNL     1      10.790  13.858  17.726  0.00  0.00    +0.000 A 
ATOM      5  C   UNL     1      10.191  12.603  17.562  0.00  0.00    +0.000 A 
ATOM      6  C   UNL     1       9.942  11.788  18.672  0.00  0.00    +0.000 A 
ATOM      7  C   UNL     1      10.358  12.212  19.933  0.00  0.00    +0.000 A 
ATOM      8  C   UNL     1      10.960  13.466  20.098  0.00  0.00    +0.000 A 
BRANCH   3   9
ATOM      9  C   UNL     1      11.716  15.712  19.205  0.00  0.00    +0.000 C 
BRANCH   9  10
ATOM     10  C   UNL     1      10.655  16.765  19.605  0.00  0.00    +0.000 C 
ATOM     11  C   UNL     1      10.752  17.096  21.096  0.00  0.00    +0.000 C 
BRANCH  10  15
ATOM     12  C   UNL     1       7.011  16.560  18.559  0.00  0.00    +0.000 C 
ATOM     13  C   UNL     1       8.354  17.195  18.796  0.00  0.00    +0.000 C 
ATOM     14  O   UNL     1       8.572  18.379  18.557  0.00  0.00    +0.000 OA
ATOM     15  N   UNL     1       9.301  16.323  19.286  0.00  0.00    +0.000 N 
ATOM     16  H   UNL     1       9.017  15.387  19.544  0.00  0.00    +0.000 HD
ENDBRANCH  10  15
ENDBRANCH   9  10
ENDBRANCH   3   9
ENDBRANCH   1   6
BRANCH   2  17
ATOM     17  C   UNL     1       8.065   8.221  18.068  0.00  0.00    +0.000 A 
ATOM     18  C   UNL     1       7.149   8.038  17.056  0.00  0.00    +0.000 A 
ATOM     19  N   UNL     1       6.494   6.874  16.822  0.00  0.00    +0.000 NA
ATOM     20  C   UNL     1       6.791   5.842  17.629  0.00  0.00    +0.000 A 
ATOM     21  N   UNL     1       7.684   5.884  18.630  0.00  0.00    +0.000 NA
ATOM     22  C   UNL     1       8.303   7.083  18.820  0.00  0.00    +0.000 A 
BRANCH  20  23
ATOM     23  O   UNL     1       5.942   4.764  17.511  0.00  0.00    +0.000 OA
BRANCH  23  24
ATOM     24  C   UNL     1       4.672   4.909  18.147  0.00  0.00    +0.000 C 
ATOM     25  C   UNL     1       4.726   4.110  19.482  0.00  0.00    +0.000 C 
ATOM     26  C   UNL     1       3.339   3.565  19.612  0.00  0.00    +0.000 A 
ATOM     27  C   UNL     1       2.763   2.937  20.708  0.00  0.00    +0.000 A 
ATOM     28  C   UNL     1       1.432   2.530  20.618  0.00  0.00    +0.000 A 
ATOM     29  C   UNL     1       0.694   2.763  19.446  0.00  0.00    +0.000 A 
ATOM     30  C   UNL     1       1.297   3.354  18.332  0.00  0.00    +0.000 A 
ATOM     31  C   UNL     1       2.629   3.730  18.421  0.00  0.00    +0.000 A 
ATOM     32  C   UNL     1       3.528   4.254  17.340  0.00  0.00    +0.000 C 
ENDBRANCH  23  24
ENDBRANCH  20  23
ENDBRANCH   2  17
TORSDOF 7
ENDMDL
MODEL 8
REMARK VINA RESULT:      -9.0      1.059      1.793
REMARK  Name = 
REMARK  9 active torsions:
REMARK  status: ('A' for Active; 'I' for Inactive)
REMARK    1  A    between atoms: C_1  and  C_2
REMARK    2  A    between atoms: N_4  and  C_5
REMARK    3  A    between atoms: C_5  and  C_6
REMARK    4  A    between atoms: C_5  and  C_7
REMARK    5  A    between atoms: C_7  and  C_8
REMARK    6  A    between atoms: C_11  and  C_12
REMARK    7  A    between atoms: C_13  and  C_14
REMARK    8  A    between atoms: C_17  and  O_18
REMARK    9  A    between atoms: O_18  and  C_19
REMARK                            x       y       z     vdW  Elec       q    Type
REMARK                         _______ _______ _______ _____ _____    ______ ____
ROOT
ATOM      1  C   UNL     1       8.602   9.570  18.338  0.00  0.00    +0.000 C 
ATOM      2  C   UNL     1       8.037   8.560  18.007  0.00  0.00    +0.000 C 
ENDROOT
BRANCH   1   6
ATOM      3  C   UNL     1      10.678  13.110  19.485  0.00  0.00    +0.000 A 
ATOM      4  C   UNL     1       9.895  13.092  18.325  0.00  0.00    +0.000 A 
ATOM      5  C   UNL     1       9.238  11.922  17.924  0.00  0.00    +0.000 A 
ATOM      6  C   UNL     1       9.354  10.751  18.681  0.00  0.00    +0.000 A 
ATOM      7  C   UNL     1      10.184  10.746  19.801  0.00  0.00    +0.000 A 
ATOM      8  C   UNL     1      10.845  11.915  20.201  0.00  0.00    +0.000 A 
BRANCH   3   9
ATOM      9  C   UNL     1      11.322  14.393  19.984  0.00  0.00    +0.000 C 
BRANCH   9  10
ATOM     10  C   UNL     1      10.336  15.361  20.677  0.00  0.00    +0.000 C 
ATOM     11  C   UNL     1       9.665  14.688  21.877  0.00  0.00    +0.000 C 
BRANCH  10  15
ATOM     12  C   UNL     1       7.752  17.441  18.830  0.00  0.00    +0.000 C 
ATOM     13  C   UNL     1       8.818  17.133  19.845  0.00  0.00    +0.000 C 
ATOM     14  O   UNL     1       9.204  17.961  20.664  0.00  0.00    +0.000 OA
ATOM     15  N   UNL     1       9.315  15.851  19.755  0.00  0.00    +0.000 N 
ATOM     16  H   UNL     1       8.878  15.201  19.116  0.00  0.00    +0.000 HD
ENDBRANCH  10  15
ENDBRANCH   9  10
ENDBRANCH   3   9
ENDBRANCH   1   6
BRANCH   2  17
ATOM     17  C   UNL     1       7.425   7.328  17.600  0.00  0.00    +0.000 A 
ATOM     18  C   UNL     1       6.380   7.276  16.703  0.00  0.00    +0.000 A 
ATOM     19  N   UNL     1       5.729   6.139  16.357  0.00  0.00    +0.000 NA
ATOM     20  C   UNL     1       6.163   5.000  16.921  0.00  0.00    +0.000 A 
ATOM     21  N   UNL     1       7.187   4.913  17.785  0.00  0.00    +0.000 NA
ATOM     22  C   UNL     1       7.795   6.091  18.100  0.00  0.00    +0.000 A 
BRANCH  20  23
ATOM     23  O   UNL     1       5.335   3.916  16.729  0.00  0.00    +0.000 OA
BRANCH  23  24
ATOM     24  C   UNL     1       4.706   3.408  17.905  0.00  0.00    +0.000 C 
ATOM     25  C   UNL     1       3.369   2.743  17.467  0.00  0.00    +0.000 C 
ATOM     26  C   UNL     1       2.445   3.045  18.605  0.00  0.00    +0.000 A 
ATOM     27  C   UNL     1       1.177   2.532  18.840  0.00  0.00    +0.000 A 
ATOM     28  C   UNL     1       0.499   2.936  19.991  0.00  0.00    +0.000 A 
ATOM     29  C   UNL     1       1.096   3.833  20.890  0.00  0.00    +0.000 A 
ATOM     30  C   UNL     1       2.354   4.380  20.619  0.00  0.00    +0.000 A 
ATOM     31  C   UNL     1       3.008   3.994  19.460  0.00  0.00    +0.000 A 
ATOM     32  C   UNL     1       4.287   4.529  18.885  0.00  0.00    +0.000 C 
ENDBRANCH  23  24
ENDBRANCH  20  23
ENDBRANCH   2  17
TORSDOF 7
ENDMDL
MODEL 9
REMARK VINA RESULT:      -8.9      1.538      1.992
REMARK  Name = 
REMARK  9 active torsions:
REMARK  status: ('A' for Active; 'I' for Inactive)
REMARK    1  A    between atoms: C_1  and  C_2
REMARK    2  A    between atoms: N_4  and  C_5
REMARK    3  A    between atoms: C_5  and  C_6
REMARK    4  A    between atoms: C_5  and  C_7
REMARK    5  A    between atoms: C_7  and  C_8
REMARK    6  A    between atoms: C_11  and  C_12
REMARK    7  A    between atoms: C_13  and  C_14
REMARK    8  A    between atoms: C_17  and  O_18
REMARK    9  A    between atoms: O_18  and  C_19
REMARK                            x       y       z     vdW  Elec       q    Type
REMARK                         _______ _______ _______ _____ _____    ______ ____
ROOT
ATOM      1  C   UNL     1       9.261  10.466  18.589  0.00  0.00    +0.000 C 
ATOM      2  C   UNL     1       8.705   9.416  18.393  0.00  0.00    +0.000 C 
ENDROOT
BRANCH   1   6
ATOM      3  C   UNL     1      11.231  14.197  19.183  0.00  0.00    +0.000 A 
ATOM      4  C   UNL     1      10.235  14.070  18.208  0.00  0.00    +0.000 A 
ATOM      5  C   UNL     1       9.607  12.837  17.985  0.00  0.00    +0.000 A 
ATOM      6  C   UNL     1       9.968  11.714  18.736  0.00  0.00    +0.000 A 
ATOM      7  C   UNL     1      11.005  11.820  19.663  0.00  0.00    +0.000 A 
ATOM      8  C   UNL     1      11.635  13.051  19.885  0.00  0.00    +0.000 A 
BRANCH   3   9
ATOM      9  C   UNL     1      11.857  15.545  19.503  0.00  0.00    +0.000 C 
BRANCH   9  10
ATOM     10  C   UNL     1      10.887  16.540  20.182  0.00  0.00    +0.000 C 
ATOM     11  C   UNL     1      11.599  17.856  20.508  0.00  0.00    +0.000 C 
BRANCH  10  15
ATOM     12  C   UNL     1       8.527  15.204  22.839  0.00  0.00    +0.000 C 
ATOM     13  C   UNL     1       8.946  15.747  21.501  0.00  0.00    +0.000 C 
ATOM     14  O   UNL     1       8.146  15.943  20.591  0.00  0.00    +0.000 OA
ATOM     15  N   UNL     1      10.299  15.985  21.397  0.00  0.00    +0.000 N 
ATOM     16  H   UNL     1      10.878  15.886  22.221  0.00  0.00    +0.000 HD
ENDBRANCH  10  15
ENDBRANCH   9  10
ENDBRANCH   3   9
ENDBRANCH   1   6
BRANCH   2  17
ATOM     17  C   UNL     1       8.092   8.149  18.115  0.00  0.00    +0.000 A 
ATOM     18  C   UNL     1       7.213   7.960  17.071  0.00  0.00    +0.000 A 
ATOM     19  N   UNL     1       6.557   6.800  16.827  0.00  0.00    +0.000 NA
ATOM     20  C   UNL     1       6.814   5.776  17.658  0.00  0.00    +0.000 A 
ATOM     21  N   UNL     1       7.669   5.823  18.692  0.00  0.00    +0.000 NA
ATOM     22  C   UNL     1       8.291   7.020  18.890  0.00  0.00    +0.000 A 
BRANCH  20  23
ATOM     23  O   UNL     1       5.962   4.703  17.523  0.00  0.00    +0.000 OA
BRANCH  23  24
ATOM     24  C   UNL     1       4.684   4.851  18.142  0.00  0.00    +0.000 C 
ATOM     25  C   UNL     1       4.722   4.060  19.482  0.00  0.00    +0.000 C 
ATOM     26  C   UNL     1       3.333   3.515  19.599  0.00  0.00    +0.000 A 
ATOM     27  C   UNL     1       2.745   2.893  20.691  0.00  0.00    +0.000 A 
ATOM     28  C   UNL     1       1.415   2.485  20.587  0.00  0.00    +0.000 A 
ATOM     29  C   UNL     1       0.691   2.711  19.406  0.00  0.00    +0.000 A 
ATOM     30  C   UNL     1       1.308   3.296  18.296  0.00  0.00    +0.000 A 
ATOM     31  C   UNL     1       2.638   3.673  18.399  0.00  0.00    +0.000 A 
ATOM     32  C   UNL     1       3.549   4.191  17.325  0.00  0.00    +0.000 C 
ENDBRANCH  23  24
ENDBRANCH  20  23
ENDBRANCH   2  17
TORSDOF 7
ENDMDL
