MODEL 1
REMARK VINA RESULT:      -8.6      0.000      0.000
REMARK  Name = 
REMARK  4 active torsions:
REMARK  status: ('A' for Active; 'I' for Inactive)
REMARK    1  A    between atoms: C_5  and  C_6
REMARK    2  A    between atoms: C_6  and  C_7
REMARK    3  A    between atoms: C_6  and  N_19
REMARK    4  A    between atoms: N_10  and  C_11
REMARK                            x       y       z     vdW  Elec       q    Type
REMARK                         _______ _______ _______ _____ _____    ______ ____
ROOT
ATOM      1  C   UNL     1       3.671   4.927  18.964  0.00  0.00    +0.000 C 
ENDROOT
BRANCH   1   6
ATOM      2  F   UNL     1       7.548   5.119  14.829  0.00  0.00    +0.000 F 
ATOM      3  C   UNL     1       6.619   5.080  15.793  0.00  0.00    +0.000 A 
ATOM      4  C   UNL     1       6.886   5.664  17.024  0.00  0.00    +0.000 A 
ATOM      5  C   UNL     1       5.924   5.614  18.037  0.00  0.00    +0.000 A 
ATOM      6  C   UNL     1       4.683   4.980  17.824  0.00  0.00    +0.000 A 
ATOM      7  C   UNL     1       4.439   4.409  16.556  0.00  0.00    +0.000 A 
ATOM      8  C   UNL     1       5.405   4.454  15.549  0.00  0.00    +0.000 A 
ENDBRANCH   1   6
BRANCH   1   9
ATOM      9  C   UNL     1       3.007   6.283  18.995  0.00  0.00    +0.000 A 
ATOM     10  C   UNL     1       2.988   7.245  17.942  0.00  0.00    +0.000 A 
ATOM     11  C   UNL     1       2.220   8.311  18.357  0.00  0.00    +0.000 A 
ATOM     12  N   UNL     1       1.812   8.089  19.653  0.00  0.00    +0.000 N 
ATOM     13  C   UNL     1       2.298   6.860  20.038  0.00  0.00    +0.000 A 
BRANCH  12  14
ATOM     14  C   UNL     1       1.036   8.960  20.462  0.00  0.00    +0.000 A 
ATOM     15  C   UNL     1       0.362  10.046  19.890  0.00  0.00    +0.000 A 
ATOM     16  C   UNL     1      -0.408  10.889  20.694  0.00  0.00    +0.000 A 
ATOM     17  C   UNL     1      -0.478  10.667  22.069  0.00  0.00    +0.000 A 
ATOM     18 CL   UNL     1      -1.409  11.722  23.059  0.00  0.00    +0.000 Cl
ATOM     19  C   UNL     1       0.202   9.599  22.648  0.00  0.00    +0.000 A 
ATOM     20  C   UNL     1       0.948   8.734  21.845  0.00  0.00    +0.000 A 
ENDBRANCH  12  14
ENDBRANCH   1   9
BRANCH   1  21
ATOM     21  N   UNL     1       2.699   3.826  18.892  0.00  0.00    +0.000 N 
ATOM     22  C   UNL     1       2.916   2.558  19.380  0.00  0.00    +0.000 A 
ATOM     23  C   UNL     1       1.798   1.838  19.039  0.00  0.00    +0.000 A 
ATOM     24  N   UNL     1       0.907   2.625  18.364  0.00  0.00    +0.000 NA
ATOM     25  C   UNL     1       1.475   3.807  18.282  0.00  0.00    +0.000 A 
ENDBRANCH   1  21
TORSDOF 4
ENDMDL
MODEL 2
REMARK VINA RESULT:      -8.6      0.413      1.223
REMARK  Name = 
REMARK  4 active torsions:
REMARK  status: ('A' for Active; 'I' for Inactive)
REMARK    1  A    between atoms: C_5  and  C_6
REMARK    2  A    between atoms: C_6  and  C_7
REMARK    3  A    between atoms: C_6  and  N_19
REMARK    4  A    between atoms: N_10  and  C_11
REMARK                            x       y       z     vdW  Elec       q    Type
REMARK                         _______ _______ _______ _____ _____    ______ ____
ROOT
ATOM      1  C   UNL     1       3.763   4.944  18.910  0.00  0.00    +0.000 C 
ENDROOT
BRANCH   1   6
ATOM      2  F   UNL     1       7.458   5.170  14.614  0.00  0.00    +0.000 F 
ATOM      3  C   UNL     1       6.571   5.122  15.616  0.00  0.00    +0.000 A 
ATOM      4  C   UNL     1       6.834   5.802  16.797  0.00  0.00    +0.000 A 
ATOM      5  C   UNL     1       5.917   5.743  17.850  0.00  0.00    +0.000 A 
ATOM      6  C   UNL     1       4.725   5.002  17.728  0.00  0.00    +0.000 A 
ATOM      7  C   UNL     1       4.480   4.334  16.509  0.00  0.00    +0.000 A 
ATOM      8  C   UNL     1       5.403   4.388  15.462  0.00  0.00    +0.000 A 
ENDBRANCH   1   6
BRANCH   1   9
ATOM      9  C   UNL     1       3.062   6.281  18.944  0.00  0.00    +0.000 A 
ATOM     10  C   UNL     1       2.983   7.227  17.879  0.00  0.00    +0.000 A 
ATOM     11  C   UNL     1       2.199   8.277  18.303  0.00  0.00    +0.000 A 
ATOM     12  N   UNL     1       1.838   8.063  19.614  0.00  0.00    +0.000 N 
ATOM     13  C   UNL     1       2.370   6.854  20.000  0.00  0.00    +0.000 A 
BRANCH  12  14
ATOM     14  C   UNL     1       1.064   8.924  20.436  0.00  0.00    +0.000 A 
ATOM     15  C   UNL     1       0.924   8.660  21.804  0.00  0.00    +0.000 A 
ATOM     16  C   UNL     1       0.171   9.520  22.605  0.00  0.00    +0.000 A 
ATOM     17  C   UNL     1      -0.467  10.623  22.037  0.00  0.00    +0.000 A 
ATOM     18 CL   UNL     1      -1.413  11.666  23.023  0.00  0.00    +0.000 Cl
ATOM     19  C   UNL     1      -0.345  10.884  20.674  0.00  0.00    +0.000 A 
ATOM     20  C   UNL     1       0.432  10.045  19.874  0.00  0.00    +0.000 A 
ENDBRANCH  12  14
ENDBRANCH   1   9
BRANCH   1  21
ATOM     21  N   UNL     1       2.819   3.816  18.900  0.00  0.00    +0.000 N 
ATOM     22  C   UNL     1       1.530   3.879  18.422  0.00  0.00    +0.000 A 
ATOM     23  C   UNL     1       0.987   2.643  18.670  0.00  0.00    +0.000 A 
ATOM     24  N   UNL     1       1.901   1.829  19.279  0.00  0.00    +0.000 NA
ATOM     25  C   UNL     1       2.986   2.559  19.412  0.00  0.00    +0.000 A 
ENDBRANCH   1  21
TORSDOF 4
ENDMDL
MODEL 3
REMARK VINA RESULT:      -8.6      0.138      1.371
REMARK  Name = 
REMARK  4 active torsions:
REMARK  status: ('A' for Active; 'I' for Inactive)
REMARK    1  A    between atoms: C_5  and  C_6
REMARK    2  A    between atoms: C_6  and  C_7
REMARK    3  A    between atoms: C_6  and  N_19
REMARK    4  A    between atoms: N_10  and  C_11
REMARK                            x       y       z     vdW  Elec       q    Type
REMARK                         _______ _______ _______ _____ _____    ______ ____
ROOT
ATOM      1  C   UNL     1       3.701   5.019  18.969  0.00  0.00    +0.000 C 
ENDROOT
BRANCH   1   6
ATOM      2  F   UNL     1       7.406   5.260  14.682  0.00  0.00    +0.000 F 
ATOM      3  C   UNL     1       6.545   5.199  15.706  0.00  0.00    +0.000 A 
ATOM      4  C   UNL     1       5.396   4.428  15.591  0.00  0.00    +0.000 A 
ATOM      5  C   UNL     1       4.489   4.373  16.653  0.00  0.00    +0.000 A 
ATOM      6  C   UNL     1       4.728   5.088  17.844  0.00  0.00    +0.000 A 
ATOM      7  C   UNL     1       5.913   5.850  17.934  0.00  0.00    +0.000 A 
ATOM      8  C   UNL     1       6.813   5.910  16.868  0.00  0.00    +0.000 A 
ENDBRANCH   1   6
BRANCH   1   9
ATOM      9  C   UNL     1       3.015   6.364  18.992  0.00  0.00    +0.000 A 
ATOM     10  C   UNL     1       2.959   7.308  17.924  0.00  0.00    +0.000 A 
ATOM     11  C   UNL     1       2.181   8.368  18.336  0.00  0.00    +0.000 A 
ATOM     12  N   UNL     1       1.804   8.162  19.644  0.00  0.00    +0.000 N 
ATOM     13  C   UNL     1       2.318   6.947  20.039  0.00  0.00    +0.000 A 
BRANCH  12  14
ATOM     14  C   UNL     1       1.030   9.033  20.455  0.00  0.00    +0.000 A 
ATOM     15  C   UNL     1       0.836   8.750  21.813  0.00  0.00    +0.000 A 
ATOM     16  C   UNL     1       0.084   9.621  22.604  0.00  0.00    +0.000 A 
ATOM     17  C   UNL     1      -0.499  10.753  22.035  0.00  0.00    +0.000 A 
ATOM     18 CL   UNL     1      -1.444  11.810  23.008  0.00  0.00    +0.000 Cl
ATOM     19  C   UNL     1      -0.323  11.033  20.682  0.00  0.00    +0.000 A 
ATOM     20  C   UNL     1       0.454  10.183  19.893  0.00  0.00    +0.000 A 
ENDBRANCH  12  14
ENDBRANCH   1   9
BRANCH   1  21
ATOM     21  N   UNL     1       2.746   3.903  18.882  0.00  0.00    +0.000 N 
ATOM     22  C   UNL     1       2.962   2.648  19.406  0.00  0.00    +0.000 A 
ATOM     23  C   UNL     1       1.867   1.906  19.037  0.00  0.00    +0.000 A 
ATOM     24  N   UNL     1       0.993   2.666  18.310  0.00  0.00    +0.000 NA
ATOM     25  C   UNL     1       1.549   3.854  18.226  0.00  0.00    +0.000 A 
ENDBRANCH   1  21
TORSDOF 4
ENDMDL
MODEL 4
REMARK VINA RESULT:      -8.6      0.419      1.222
REMARK  Name = 
REMARK  4 active torsions:
REMARK  status: ('A' for Active; 'I' for Inactive)
REMARK    1  A    between atoms: C_5  and  C_6
REMARK    2  A    between atoms: C_6  and  C_7
REMARK    3  A    between atoms: C_6  and  N_19
REMARK    4  A    between atoms: N_10  and  C_11
REMARK                            x       y       z     vdW  Elec       q    Type
REMARK                         _______ _______ _______ _____ _____    ______ ____
ROOT
ATOM      1  C   UNL     1       3.794   4.883  18.990  0.00  0.00    +0.000 C 
ENDROOT
BRANCH   1   6
ATOM      2  F   UNL     1       7.420   5.062  14.632  0.00  0.00    +0.000 F 
ATOM      3  C   UNL     1       6.578   5.014  15.673  0.00  0.00    +0.000 A 
ATOM      4  C   UNL     1       5.384   4.315  15.557  0.00  0.00    +0.000 A 
ATOM      5  C   UNL     1       4.498   4.274  16.637  0.00  0.00    +0.000 A 
ATOM      6  C   UNL     1       4.801   4.933  17.845  0.00  0.00    +0.000 A 
ATOM      7  C   UNL     1       6.030   5.622  17.935  0.00  0.00    +0.000 A 
ATOM      8  C   UNL     1       6.909   5.668  16.852  0.00  0.00    +0.000 A 
ENDBRANCH   1   6
BRANCH   1   9
ATOM      9  C   UNL     1       3.101   6.224  18.996  0.00  0.00    +0.000 A 
ATOM     10  C   UNL     1       3.041   7.155  17.916  0.00  0.00    +0.000 A 
ATOM     11  C   UNL     1       2.258   8.215  18.315  0.00  0.00    +0.000 A 
ATOM     12  N   UNL     1       1.880   8.023  19.624  0.00  0.00    +0.000 N 
ATOM     13  C   UNL     1       2.400   6.816  20.035  0.00  0.00    +0.000 A 
BRANCH  12  14
ATOM     14  C   UNL     1       1.101   8.901  20.424  0.00  0.00    +0.000 A 
ATOM     15  C   UNL     1       0.547  10.061  19.868  0.00  0.00    +0.000 A 
ATOM     16  C   UNL     1      -0.228  10.910  20.661  0.00  0.00    +0.000 A 
ATOM     17  C   UNL     1      -0.421  10.620  22.012  0.00  0.00    +0.000 A 
ATOM     18 CL   UNL     1      -1.356  11.681  22.990  0.00  0.00    +0.000 Cl
ATOM     19  C   UNL     1       0.140   9.477  22.575  0.00  0.00    +0.000 A 
ATOM     20  C   UNL     1       0.888   8.607  21.780  0.00  0.00    +0.000 A 
ENDBRANCH  12  14
ENDBRANCH   1   9
BRANCH   1  21
ATOM     21  N   UNL     1       2.845   3.760  18.945  0.00  0.00    +0.000 N 
ATOM     22  C   UNL     1       1.600   3.813  18.361  0.00  0.00    +0.000 A 
ATOM     23  C   UNL     1       1.027   2.590  18.611  0.00  0.00    +0.000 A 
ATOM     24  N   UNL     1       1.882   1.795  19.323  0.00  0.00    +0.000 NA
ATOM     25  C   UNL     1       2.958   2.524  19.517  0.00  0.00    +0.000 A 
ENDBRANCH   1  21
TORSDOF 4
ENDMDL
MODEL 5
REMARK VINA RESULT:      -8.1      2.452      3.836
REMARK  Name = 
REMARK  4 active torsions:
REMARK  status: ('A' for Active; 'I' for Inactive)
REMARK    1  A    between atoms: C_5  and  C_6
REMARK    2  A    between atoms: C_6  and  C_7
REMARK    3  A    between atoms: C_6  and  N_19
REMARK    4  A    between atoms: N_10  and  C_11
REMARK                            x       y       z     vdW  Elec       q    Type
REMARK                         _______ _______ _______ _____ _____    ______ ____
ROOT
ATOM      1  C   UNL     1       4.010   5.794  17.637  0.00  0.00    +0.000 C 
ENDROOT
BRANCH   1   6
ATOM      2  F   UNL     1       0.550   1.454  18.802  0.00  0.00    +0.000 F 
ATOM      3  C   UNL     1       1.382   2.467  18.530  0.00  0.00    +0.000 A 
ATOM      4  C   UNL     1       1.168   3.706  19.120  0.00  0.00    +0.000 A 
ATOM      5  C   UNL     1       2.027   4.769  18.829  0.00  0.00    +0.000 A 
ATOM      6  C   UNL     1       3.111   4.601  17.945  0.00  0.00    +0.000 A 
ATOM      7  C   UNL     1       3.310   3.325  17.374  0.00  0.00    +0.000 A 
ATOM      8  C   UNL     1       2.445   2.267  17.661  0.00  0.00    +0.000 A 
ENDBRANCH   1   6
BRANCH   1   9
ATOM      9  C   UNL     1       3.203   7.023  17.979  0.00  0.00    +0.000 A 
ATOM     10  C   UNL     1       2.975   8.153  17.138  0.00  0.00    +0.000 A 
ATOM     11  C   UNL     1       2.135   9.016  17.807  0.00  0.00    +0.000 A 
ATOM     12  N   UNL     1       1.881   8.508  19.061  0.00  0.00    +0.000 N 
ATOM     13  C   UNL     1       2.537   7.302  19.163  0.00  0.00    +0.000 A 
BRANCH  12  14
ATOM     14  C   UNL     1       1.093   9.108  20.079  0.00  0.00    +0.000 A 
ATOM     15  C   UNL     1       0.343  10.259  19.808  0.00  0.00    +0.000 A 
ATOM     16  C   UNL     1      -0.437  10.833  20.814  0.00  0.00    +0.000 A 
ATOM     17  C   UNL     1      -0.444  10.278  22.093  0.00  0.00    +0.000 A 
ATOM     18 CL   UNL     1      -1.389  11.002  23.334  0.00  0.00    +0.000 Cl
ATOM     19  C   UNL     1       0.311   9.143  22.374  0.00  0.00    +0.000 A 
ATOM     20  C   UNL     1       1.068   8.545  21.365  0.00  0.00    +0.000 A 
ENDBRANCH  12  14
ENDBRANCH   1   9
BRANCH   1  21
ATOM     21  N   UNL     1       5.323   5.781  18.299  0.00  0.00    +0.000 N 
ATOM     22  C   UNL     1       6.466   6.345  17.780  0.00  0.00    +0.000 A 
ATOM     23  C   UNL     1       7.463   6.040  18.673  0.00  0.00    +0.000 A 
ATOM     24  N   UNL     1       6.966   5.312  19.719  0.00  0.00    +0.000 NA
ATOM     25  C   UNL     1       5.685   5.164  19.464  0.00  0.00    +0.000 A 
ENDBRANCH   1  21
TORSDOF 4
ENDMDL
MODEL 6
REMARK VINA RESULT:      -8.1      2.537      4.224
REMARK  Name = 
REMARK  4 active torsions:
REMARK  status: ('A' for Active; 'I' for Inactive)
REMARK    1  A    between atoms: C_5  and  C_6
REMARK    2  A    between atoms: C_6  and  C_7
REMARK    3  A    between atoms: C_6  and  N_19
REMARK    4  A    between atoms: N_10  and  C_11
REMARK                            x       y       z     vdW  Elec       q    Type
REMARK                         _______ _______ _______ _____ _____    ______ ____
ROOT
ATOM      1  C   UNL     1       3.520   5.068  18.239  0.00  0.00    +0.000 C 
ENDROOT
BRANCH   1   6
ATOM      2  F   UNL     1       1.112   1.855  22.244  0.00  0.00    +0.000 F 
ATOM      3  C   UNL     1       1.670   2.605  21.285  0.00  0.00    +0.000 A 
ATOM      4  C   UNL     1       3.053   2.711  21.215  0.00  0.00    +0.000 A 
ATOM      5  C   UNL     1       3.638   3.503  20.223  0.00  0.00    +0.000 A 
ATOM      6  C   UNL     1       2.841   4.196  19.290  0.00  0.00    +0.000 A 
ATOM      7  C   UNL     1       1.439   4.055  19.379  0.00  0.00    +0.000 A 
ATOM      8  C   UNL     1       0.858   3.269  20.376  0.00  0.00    +0.000 A 
ENDBRANCH   1   6
BRANCH   1   9
ATOM      9  C   UNL     1       2.977   6.462  18.439  0.00  0.00    +0.000 A 
ATOM     10  C   UNL     1       3.094   7.560  17.535  0.00  0.00    +0.000 A 
ATOM     11  C   UNL     1       2.403   8.624  18.070  0.00  0.00    +0.000 A 
ATOM     12  N   UNL     1       1.913   8.264  19.305  0.00  0.00    +0.000 N 
ATOM     13  C   UNL     1       2.270   6.953  19.527  0.00  0.00    +0.000 A 
BRANCH  12  14
ATOM     14  C   UNL     1       1.178   9.082  20.202  0.00  0.00    +0.000 A 
ATOM     15  C   UNL     1       0.945   8.659  21.517  0.00  0.00    +0.000 A 
ATOM     16  C   UNL     1       0.232   9.478  22.395  0.00  0.00    +0.000 A 
ATOM     17  C   UNL     1      -0.275  10.700  21.952  0.00  0.00    +0.000 A 
ATOM     18 CL   UNL     1      -1.174  11.694  23.030  0.00  0.00    +0.000 Cl
ATOM     19  C   UNL     1      -0.061  11.120  20.642  0.00  0.00    +0.000 A 
ATOM     20  C   UNL     1       0.679  10.321  19.769  0.00  0.00    +0.000 A 
ENDBRANCH  12  14
ENDBRANCH   1   9
BRANCH   1  21
ATOM     21  N   UNL     1       4.990   5.032  18.244  0.00  0.00    +0.000 N 
ATOM     22  C   UNL     1       5.762   4.483  17.245  0.00  0.00    +0.000 A 
ATOM     23  C   UNL     1       7.059   4.592  17.684  0.00  0.00    +0.000 A 
ATOM     24  N   UNL     1       7.102   5.191  18.913  0.00  0.00    +0.000 NA
ATOM     25  C   UNL     1       5.850   5.435  19.228  0.00  0.00    +0.000 A 
ENDBRANCH   1  21
TORSDOF 4
ENDMDL
MODEL 7
REMARK VINA RESULT:      -8.1      2.566      4.232
REMARK  Name = 
REMARK  4 active torsions:
REMARK  status: ('A' for Active; 'I' for Inactive)
REMARK    1  A    between atoms: C_5  and  C_6
REMARK    2  A    between atoms: C_6  and  C_7
REMARK    3  A    between atoms: C_6  and  N_19
REMARK    4  A    between atoms: N_10  and  C_11
REMARK                            x       y       z     vdW  Elec       q    Type
REMARK                         _______ _______ _______ _____ _____    ______ ____
ROOT
ATOM      1  C   UNL     1       3.212   5.221  18.228  0.00  0.00    +0.000 C 
ENDROOT
BRANCH   1   6
ATOM      2  F   UNL     1       0.767   2.067  22.258  0.00  0.00    +0.000 F 
ATOM      3  C   UNL     1       1.342   2.827  21.317  0.00  0.00    +0.000 A 
ATOM      4  C   UNL     1       0.890   2.755  20.006  0.00  0.00    +0.000 A 
ATOM      5  C   UNL     1       1.497   3.537  19.020  0.00  0.00    +0.000 A 
ATOM      6  C   UNL     1       2.563   4.402  19.339  0.00  0.00    +0.000 A 
ATOM      7  C   UNL     1       2.989   4.463  20.684  0.00  0.00    +0.000 A 
ATOM      8  C   UNL     1       2.385   3.674  21.665  0.00  0.00    +0.000 A 
ENDBRANCH   1   6
BRANCH   1   9
ATOM      9  C   UNL     1       2.756   6.644  18.436  0.00  0.00    +0.000 A 
ATOM     10  C   UNL     1       2.995   7.750  17.568  0.00  0.00    +0.000 A 
ATOM     11  C   UNL     1       2.351   8.849  18.093  0.00  0.00    +0.000 A 
ATOM     12  N   UNL     1       1.773   8.496  19.292  0.00  0.00    +0.000 N 
ATOM     13  C   UNL     1       2.028   7.158  19.499  0.00  0.00    +0.000 A 
BRANCH  12  14
ATOM     14  C   UNL     1       1.049   9.343  20.171  0.00  0.00    +0.000 A 
ATOM     15  C   UNL     1       0.520  10.555  19.710  0.00  0.00    +0.000 A 
ATOM     16  C   UNL     1      -0.201  11.375  20.580  0.00  0.00    +0.000 A 
ATOM     17  C   UNL     1      -0.365  11.002  21.914  0.00  0.00    +0.000 A 
ATOM     18 CL   UNL     1      -1.234  12.026  22.988  0.00  0.00    +0.000 Cl
ATOM     19  C   UNL     1       0.171   9.806  22.384  0.00  0.00    +0.000 A 
ATOM     20  C   UNL     1       0.866   8.967  21.511  0.00  0.00    +0.000 A 
ENDBRANCH  12  14
ENDBRANCH   1   9
BRANCH   1  21
ATOM     21  N   UNL     1       4.676   5.108  18.137  0.00  0.00    +0.000 N 
ATOM     22  C   UNL     1       5.360   4.708  17.011  0.00  0.00    +0.000 A 
ATOM     23  C   UNL     1       6.682   4.669  17.381  0.00  0.00    +0.000 A 
ATOM     24  N   UNL     1       6.826   5.035  18.691  0.00  0.00    +0.000 NA
ATOM     25  C   UNL     1       5.609   5.283  19.121  0.00  0.00    +0.000 A 
ENDBRANCH   1  21
TORSDOF 4
ENDMDL
MODEL 8
REMARK VINA RESULT:      -8.0      0.895      1.396
REMARK  Name = 
REMARK  4 active torsions:
REMARK  status: ('A' for Active; 'I' for Inactive)
REMARK    1  A    between atoms: C_5  and  C_6
REMARK    2  A    between atoms: C_6  and  C_7
REMARK    3  A    between atoms: C_6  and  N_19
REMARK    4  A    between atoms: N_10  and  C_11
REMARK                            x       y       z     vdW  Elec       q    Type
REMARK                         _______ _______ _______ _____ _____    ______ ____
ROOT
ATOM      1  C   UNL     1       3.668   5.304  19.352  0.00  0.00    +0.000 C 
ENDROOT
BRANCH   1   6
ATOM      2  F   UNL     1       7.558   4.475  15.309  0.00  0.00    +0.000 F 
ATOM      3  C   UNL     1       6.652   4.664  16.277  0.00  0.00    +0.000 A 
ATOM      4  C   UNL     1       5.358   4.189  16.106  0.00  0.00    +0.000 A 
ATOM      5  C   UNL     1       4.406   4.396  17.108  0.00  0.00    +0.000 A 
ATOM      6  C   UNL     1       4.743   5.079  18.294  0.00  0.00    +0.000 A 
ATOM      7  C   UNL     1       6.071   5.535  18.443  0.00  0.00    +0.000 A 
ATOM      8  C   UNL     1       7.017   5.334  17.436  0.00  0.00    +0.000 A 
ENDBRANCH   1   6
BRANCH   1   9
ATOM      9  C   UNL     1       3.016   6.622  19.011  0.00  0.00    +0.000 A 
ATOM     10  C   UNL     1       3.171   7.359  17.799  0.00  0.00    +0.000 A 
ATOM     11  C   UNL     1       2.353   8.465  17.869  0.00  0.00    +0.000 A 
ATOM     12  N   UNL     1       1.742   8.491  19.102  0.00  0.00    +0.000 N 
ATOM     13  C   UNL     1       2.152   7.373  19.794  0.00  0.00    +0.000 A 
BRANCH  12  14
ATOM     14  C   UNL     1       0.852   9.483  19.592  0.00  0.00    +0.000 A 
ATOM     15  C   UNL     1       0.049  10.213  18.706  0.00  0.00    +0.000 A 
ATOM     16  C   UNL     1      -0.831  11.178  19.200  0.00  0.00    +0.000 A 
ATOM     17  C   UNL     1      -0.887  11.435  20.569  0.00  0.00    +0.000 A 
ATOM     18 CL   UNL     1      -1.957  12.640  21.170  0.00  0.00    +0.000 Cl
ATOM     19  C   UNL     1      -0.082  10.724  21.455  0.00  0.00    +0.000 A 
ATOM     20  C   UNL     1       0.778   9.736  20.971  0.00  0.00    +0.000 A 
ENDBRANCH  12  14
ENDBRANCH   1   9
BRANCH   1  21
ATOM     21  N   UNL     1       2.690   4.214  19.497  0.00  0.00    +0.000 N 
ATOM     22  C   UNL     1       2.869   3.105  20.293  0.00  0.00    +0.000 A 
ATOM     23  C   UNL     1       1.765   2.319  20.077  0.00  0.00    +0.000 A 
ATOM     24  N   UNL     1       0.920   2.912  19.180  0.00  0.00    +0.000 NA
ATOM     25  C   UNL     1       1.503   4.040  18.843  0.00  0.00    +0.000 A 
ENDBRANCH   1  21
TORSDOF 4
ENDMDL
MODEL 9
REMARK VINA RESULT:      -8.0      2.527      4.095
REMARK  Name = 
REMARK  4 active torsions:
REMARK  status: ('A' for Active; 'I' for Inactive)
REMARK    1  A    between atoms: C_5  and  C_6
REMARK    2  A    between atoms: C_6  and  C_7
REMARK    3  A    between atoms: C_6  and  N_19
REMARK    4  A    between atoms: N_10  and  C_11
REMARK                            x       y       z     vdW  Elec       q    Type
REMARK                         _______ _______ _______ _____ _____    ______ ____
ROOT
ATOM      1  C   UNL     1       3.482   5.042  18.152  0.00  0.00    +0.000 C 
ENDROOT
BRANCH   1   6
ATOM      2  F   UNL     1       1.176   1.864  22.245  0.00  0.00    +0.000 F 
ATOM      3  C   UNL     1       1.710   2.606  21.265  0.00  0.00    +0.000 A 
ATOM      4  C   UNL     1       3.090   2.711  21.160  0.00  0.00    +0.000 A 
ATOM      5  C   UNL     1       3.650   3.494  20.147  0.00  0.00    +0.000 A 
ATOM      6  C   UNL     1       2.830   4.179  19.227  0.00  0.00    +0.000 A 
ATOM      7  C   UNL     1       1.431   4.038  19.352  0.00  0.00    +0.000 A 
ATOM      8  C   UNL     1       0.875   3.261  20.371  0.00  0.00    +0.000 A 
ENDBRANCH   1   6
BRANCH   1   9
ATOM      9  C   UNL     1       2.963   6.443  18.370  0.00  0.00    +0.000 A 
ATOM     10  C   UNL     1       3.120   7.554  17.489  0.00  0.00    +0.000 A 
ATOM     11  C   UNL     1       2.440   8.623  18.032  0.00  0.00    +0.000 A 
ATOM     12  N   UNL     1       1.920   8.248  19.250  0.00  0.00    +0.000 N 
ATOM     13  C   UNL     1       2.246   6.926  19.454  0.00  0.00    +0.000 A 
BRANCH  12  14
ATOM     14  C   UNL     1       1.184   9.064  20.150  0.00  0.00    +0.000 A 
ATOM     15  C   UNL     1       0.530  10.214  19.689  0.00  0.00    +0.000 A 
ATOM     16  C   UNL     1      -0.201  11.002  20.580  0.00  0.00    +0.000 A 
ATOM     17  C   UNL     1      -0.252  10.662  21.932  0.00  0.00    +0.000 A 
ATOM     18 CL   UNL     1      -1.134  11.649  23.030  0.00  0.00    +0.000 Cl
ATOM     19  C   UNL     1       0.409   9.530  22.400  0.00  0.00    +0.000 A 
ATOM     20  C   UNL     1       1.115   8.720  21.509  0.00  0.00    +0.000 A 
ENDBRANCH  12  14
ENDBRANCH   1   9
BRANCH   1  21
ATOM     21  N   UNL     1       4.951   4.987  18.106  0.00  0.00    +0.000 N 
ATOM     22  C   UNL     1       5.785   5.608  19.009  0.00  0.00    +0.000 A 
ATOM     23  C   UNL     1       7.058   5.366  18.556  0.00  0.00    +0.000 A 
ATOM     24  N   UNL     1       7.028   4.618  17.412  0.00  0.00    +0.000 NA
ATOM     25  C   UNL     1       5.755   4.413  17.161  0.00  0.00    +0.000 A 
ENDBRANCH   1  21
TORSDOF 4
ENDMDL
