MODEL 1
REMARK VINA RESULT:      -7.3      0.000      0.000
REMARK  Name = 
REMARK  0 active torsions:
REMARK  status: ('A' for Active; 'I' for Inactive)
REMARK                            x       y       z     vdW  Elec       q    Type
REMARK                         _______ _______ _______ _____ _____    ______ ____
ROOT
ATOM      1  C   UNL     1      11.869  11.657  19.562  0.00  0.00    +0.000 A 
ATOM      2  C   UNL     1      11.609  11.842  18.215  0.00  0.00    +0.000 A 
ATOM      3  C   UNL     1      10.260  12.326  17.747  0.00  0.00    +0.000 A 
ATOM      4  C   UNL     1       9.187  12.856  18.628  0.00  0.00    +0.000 A 
ATOM      5  C   UNL     1       9.956  13.064  19.789  0.00  0.00    +0.000 A 
ATOM      6  C   UNL     1      10.857  12.112  20.393  0.00  0.00    +0.000 A 
ATOM      7  C   UNL     1      10.609  14.303  19.682  0.00  0.00    +0.000 A 
ATOM      8  C   UNL     1      10.401  15.160  18.572  0.00  0.00    +0.000 A 
ATOM      9  C   UNL     1       9.196  15.058  17.899  0.00  0.00    +0.000 A 
ATOM     10  N   UNL     1       8.324  14.055  18.245  0.00  0.00    +0.000 N 
ATOM     11  C   UNL     1       6.634  14.504  17.732  0.00  0.00    +0.000 C 
ATOM     12  C   UNL     1       4.806  14.619  18.091  0.00  0.00    +0.000 C 
ATOM     13  O   UNL     1       3.868  15.819  18.771  0.00  0.00    +0.000 OA
ATOM     14  C   UNL     1       2.287  16.015  18.417  0.00  0.00    +0.000 C 
ATOM     15  C   UNL     1       1.032  16.703  19.479  0.00  0.00    +0.000 C 
ATOM     16  N   UNL     1       0.925  16.021  20.833  0.00  0.00    +0.000 N 
ATOM     17  C   UNL     1       1.171  14.696  20.682  0.00  0.00    +0.000 A 
ATOM     18  C   UNL     1       2.437  14.340  21.125  0.00  0.00    +0.000 A 
ATOM     19  C   UNL     1       3.122  15.186  21.989  0.00  0.00    +0.000 A 
ATOM     20  C   UNL     1       2.494  16.310  22.567  0.00  0.00    +0.000 A 
ATOM     21  C   UNL     1       3.000  16.937  23.722  0.00  0.00    +0.000 A 
ATOM     22  C   UNL     1       2.282  17.943  24.331  0.00  0.00    +0.000 A 
ATOM     23  C   UNL     1       1.052  18.307  23.815  0.00  0.00    +0.000 A 
ATOM     24  C   UNL     1       0.553  17.707  22.634  0.00  0.00    +0.000 A 
ATOM     25  C   UNL     1       1.286  16.708  21.986  0.00  0.00    +0.000 A 
ATOM     26  N   UNL     1       4.416  14.931  22.357  0.00  0.00    +0.000 N 
ATOM     27  C   UNL     1       5.404  14.828  21.348  0.00  0.00    +0.000 C 
ATOM     28  C   UNL     1       6.645  14.375  22.080  0.00  0.00    +0.000 C 
ATOM     29  S   UNL     1       7.697  15.795  22.326  0.00  0.00    +0.000 S 
ATOM     30  C   UNL     1       9.271  14.911  22.404  0.00  0.00    +0.000 C 
ATOM     31  C   UNL     1      10.090  15.663  21.369  0.00  0.00    +0.000 C 
ATOM     32  N   UNL     1      11.216  14.910  20.815  0.00  0.00    +0.000 N 
ATOM     33  H   UNL     1       4.453  14.265  23.131  0.00  0.00    +0.000 HD
ATOM     34  H   UNL     1      11.636  14.254  21.476  0.00  0.00    +0.000 HD
ENDROOT
TORSDOF 0
ENDMDL
MODEL 2
REMARK VINA RESULT:      -6.6      4.723     10.416
REMARK  Name = 
REMARK  0 active torsions:
REMARK  status: ('A' for Active; 'I' for Inactive)
REMARK                            x       y       z     vdW  Elec       q    Type
REMARK                         _______ _______ _______ _____ _____    ______ ____
ROOT
ATOM      1  C   UNL     1      -6.706  14.573  23.432  0.00  0.00    +0.000 A 
ATOM      2  C   UNL     1      -6.645  13.352  22.781  0.00  0.00    +0.000 A 
ATOM      3  C   UNL     1      -5.503  13.028  21.852  0.00  0.00    +0.000 A 
ATOM      4  C   UNL     1      -4.258  13.830  21.712  0.00  0.00    +0.000 A 
ATOM      5  C   UNL     1      -4.388  14.619  22.871  0.00  0.00    +0.000 A 
ATOM      6  C   UNL     1      -5.567  15.347  23.275  0.00  0.00    +0.000 A 
ATOM      7  C   UNL     1      -3.906  13.889  23.969  0.00  0.00    +0.000 A 
ATOM      8  C   UNL     1      -3.334  12.601  23.815  0.00  0.00    +0.000 A 
ATOM      9  C   UNL     1      -2.757  12.297  22.594  0.00  0.00    +0.000 A 
ATOM     10  N   UNL     1      -2.881  13.192  21.559  0.00  0.00    +0.000 N 
ATOM     11  C   UNL     1      -1.553  12.913  20.343  0.00  0.00    +0.000 C 
ATOM     12  C   UNL     1      -0.226  13.576  19.207  0.00  0.00    +0.000 C 
ATOM     13  O   UNL     1       1.392  13.901  19.441  0.00  0.00    +0.000 OA
ATOM     14  C   UNL     1       2.490  13.843  18.236  0.00  0.00    +0.000 C 
ATOM     15  C   UNL     1       4.002  14.781  18.121  0.00  0.00    +0.000 C 
ATOM     16  N   UNL     1       3.807  16.284  18.239  0.00  0.00    +0.000 N 
ATOM     17  C   UNL     1       2.636  16.626  17.649  0.00  0.00    +0.000 A 
ATOM     18  C   UNL     1       1.637  16.895  18.574  0.00  0.00    +0.000 A 
ATOM     19  C   UNL     1       1.983  17.182  19.889  0.00  0.00    +0.000 A 
ATOM     20  C   UNL     1       3.327  17.382  20.268  0.00  0.00    +0.000 A 
ATOM     21  C   UNL     1       3.677  18.053  21.456  0.00  0.00    +0.000 A 
ATOM     22  C   UNL     1       4.998  18.347  21.718  0.00  0.00    +0.000 A 
ATOM     23  C   UNL     1       5.965  18.002  20.793  0.00  0.00    +0.000 A 
ATOM     24  C   UNL     1       5.627  17.295  19.615  0.00  0.00    +0.000 A 
ATOM     25  C   UNL     1       4.295  16.961  19.351  0.00  0.00    +0.000 A 
ATOM     26  N   UNL     1       1.027  17.338  20.858  0.00  0.00    +0.000 N 
ATOM     27  C   UNL     1       0.133  16.270  21.111  0.00  0.00    +0.000 C 
ATOM     28  C   UNL     1      -0.870  16.840  22.087  0.00  0.00    +0.000 C 
ATOM     29  S   UNL     1      -0.445  16.269  23.722  0.00  0.00    +0.000 S 
ATOM     30  C   UNL     1      -2.101  16.357  24.440  0.00  0.00    +0.000 C 
ATOM     31  C   UNL     1      -2.254  14.960  25.015  0.00  0.00    +0.000 C 
ATOM     32  N   UNL     1      -3.639  14.528  25.212  0.00  0.00    +0.000 N 
ATOM     33  H   UNL     1       0.648  18.287  20.850  0.00  0.00    +0.000 HD
ATOM     34  H   UNL     1      -4.278  15.290  25.444  0.00  0.00    +0.000 HD
ENDROOT
TORSDOF 0
ENDMDL
MODEL 3
REMARK VINA RESULT:      -6.3      2.928      4.695
REMARK  Name = 
REMARK  0 active torsions:
REMARK  status: ('A' for Active; 'I' for Inactive)
REMARK                            x       y       z     vdW  Elec       q    Type
REMARK                         _______ _______ _______ _____ _____    ______ ____
ROOT
ATOM      1  C   UNL     1      12.081  13.382  17.149  0.00  0.00    +0.000 A 
ATOM      2  C   UNL     1      12.333  12.233  17.878  0.00  0.00    +0.000 A 
ATOM      3  C   UNL     1      11.780  12.063  19.270  0.00  0.00    +0.000 A 
ATOM      4  C   UNL     1      10.765  12.947  19.902  0.00  0.00    +0.000 A 
ATOM      5  C   UNL     1      10.323  13.617  18.745  0.00  0.00    +0.000 A 
ATOM      6  C   UNL     1      11.165  14.234  17.747  0.00  0.00    +0.000 A 
ATOM      7  C   UNL     1       9.365  12.819  18.100  0.00  0.00    +0.000 A 
ATOM      8  C   UNL     1       8.930  11.587  18.650  0.00  0.00    +0.000 A 
ATOM      9  C   UNL     1       9.014  11.432  20.023  0.00  0.00    +0.000 A 
ATOM     10  N   UNL     1       9.629  12.409  20.766  0.00  0.00    +0.000 N 
ATOM     11  C   UNL     1       9.053  12.322  22.493  0.00  0.00    +0.000 C 
ATOM     12  C   UNL     1       8.446  13.164  24.046  0.00  0.00    +0.000 C 
ATOM     13  O   UNL     1       6.918  13.562  24.584  0.00  0.00    +0.000 OA
ATOM     14  C   UNL     1       6.540  13.680  26.166  0.00  0.00    +0.000 C 
ATOM     15  C   UNL     1       5.280  14.712  26.889  0.00  0.00    +0.000 C 
ATOM     16  N   UNL     1       5.404  16.183  26.529  0.00  0.00    +0.000 N 
ATOM     17  C   UNL     1       6.717  16.509  26.442  0.00  0.00    +0.000 A 
ATOM     18  C   UNL     1       7.145  16.632  25.128  0.00  0.00    +0.000 A 
ATOM     19  C   UNL     1       6.209  16.817  24.119  0.00  0.00    +0.000 A 
ATOM     20  C   UNL     1       4.851  17.060  24.413  0.00  0.00    +0.000 A 
ATOM     21  C   UNL     1       3.975  17.638  23.474  0.00  0.00    +0.000 A 
ATOM     22  C   UNL     1       2.693  17.984  23.847  0.00  0.00    +0.000 A 
ATOM     23  C   UNL     1       2.292  17.783  25.154  0.00  0.00    +0.000 A 
ATOM     24  C   UNL     1       3.153  17.169  26.095  0.00  0.00    +0.000 A 
ATOM     25  C   UNL     1       4.443  16.783  25.721  0.00  0.00    +0.000 A 
ATOM     26  N   UNL     1       6.578  16.826  22.800  0.00  0.00    +0.000 N 
ATOM     27  C   UNL     1       7.230  15.688  22.267  0.00  0.00    +0.000 C 
ATOM     28  C   UNL     1       7.640  16.105  20.874  0.00  0.00    +0.000 C 
ATOM     29  S   UNL     1       6.473  15.412  19.717  0.00  0.00    +0.000 S 
ATOM     30  C   UNL     1       7.576  15.335  18.287  0.00  0.00    +0.000 C 
ATOM     31  C   UNL     1       7.421  13.885  17.866  0.00  0.00    +0.000 C 
ATOM     32  N   UNL     1       8.535  13.355  17.077  0.00  0.00    +0.000 N 
ATOM     33  H   UNL     1       6.920  17.747  22.521  0.00  0.00    +0.000 HD
ATOM     34  H   UNL     1       8.987  14.054  16.485  0.00  0.00    +0.000 HD
ENDROOT
TORSDOF 0
ENDMDL
MODEL 4
REMARK VINA RESULT:      -6.3      2.132      8.799
REMARK  Name = 
REMARK  0 active torsions:
REMARK  status: ('A' for Active; 'I' for Inactive)
REMARK                            x       y       z     vdW  Elec       q    Type
REMARK                         _______ _______ _______ _____ _____    ______ ____
ROOT
ATOM      1  C   UNL     1      -0.625  13.018  19.029  0.00  0.00    +0.000 A 
ATOM      2  C   UNL     1      -0.570  12.864  20.404  0.00  0.00    +0.000 A 
ATOM      3  C   UNL     1       0.748  12.913  21.135  0.00  0.00    +0.000 A 
ATOM      4  C   UNL     1       2.041  13.341  20.541  0.00  0.00    +0.000 A 
ATOM      5  C   UNL     1       1.543  13.952  19.374  0.00  0.00    +0.000 A 
ATOM      6  C   UNL     1       0.585  13.379  18.458  0.00  0.00    +0.000 A 
ATOM      7  C   UNL     1       1.144  15.262  19.686  0.00  0.00    +0.000 A 
ATOM      8  C   UNL     1       1.327  15.807  20.982  0.00  0.00    +0.000 A 
ATOM      9  C   UNL     1       2.352  15.292  21.756  0.00  0.00    +0.000 A 
ATOM     10  N   UNL     1       3.050  14.202  21.296  0.00  0.00    +0.000 N 
ATOM     11  C   UNL     1       4.681  14.129  22.105  0.00  0.00    +0.000 C 
ATOM     12  C   UNL     1       6.529  13.881  22.011  0.00  0.00    +0.000 C 
ATOM     13  O   UNL     1       7.793  14.937  21.751  0.00  0.00    +0.000 OA
ATOM     14  C   UNL     1       9.296  14.681  22.332  0.00  0.00    +0.000 C 
ATOM     15  C   UNL     1      10.828  15.253  21.624  0.00  0.00    +0.000 C 
ATOM     16  N   UNL     1      11.026  14.850  20.172  0.00  0.00    +0.000 N 
ATOM     17  C   UNL     1      10.495  13.617  19.979  0.00  0.00    +0.000 A 
ATOM     18  C   UNL     1       9.279  13.665  19.312  0.00  0.00    +0.000 A 
ATOM     19  C   UNL     1       8.939  14.803  18.591  0.00  0.00    +0.000 A 
ATOM     20  C   UNL     1       9.871  15.840  18.373  0.00  0.00    +0.000 A 
ATOM     21  C   UNL     1       9.708  16.786  17.343  0.00  0.00    +0.000 A 
ATOM     22  C   UNL     1      10.709  17.696  17.078  0.00  0.00    +0.000 A 
ATOM     23  C   UNL     1      11.879  17.650  17.813  0.00  0.00    +0.000 A 
ATOM     24  C   UNL     1      12.036  16.726  18.874  0.00  0.00    +0.000 A 
ATOM     25  C   UNL     1      11.016  15.819  19.175  0.00  0.00    +0.000 A 
ATOM     26  N   UNL     1       7.703  14.938  18.016  0.00  0.00    +0.000 N 
ATOM     27  C   UNL     1       6.556  14.871  18.844  0.00  0.00    +0.000 C 
ATOM     28  C   UNL     1       5.394  14.879  17.879  0.00  0.00    +0.000 C 
ATOM     29  S   UNL     1       4.709  16.525  17.843  0.00  0.00    +0.000 S 
ATOM     30  C   UNL     1       3.026  16.070  17.368  0.00  0.00    +0.000 C 
ATOM     31  C   UNL     1       2.211  16.771  18.440  0.00  0.00    +0.000 C 
ATOM     32  N   UNL     1       0.877  16.209  18.660  0.00  0.00    +0.000 N 
ATOM     33  H   UNL     1       7.666  14.468  17.110  0.00  0.00    +0.000 HD
ATOM     34  H   UNL     1       0.454  15.816  17.818  0.00  0.00    +0.000 HD
ENDROOT
TORSDOF 0
ENDMDL
MODEL 5
REMARK VINA RESULT:      -6.2      3.772      5.353
REMARK  Name = 
REMARK  0 active torsions:
REMARK  status: ('A' for Active; 'I' for Inactive)
REMARK                            x       y       z     vdW  Elec       q    Type
REMARK                         _______ _______ _______ _____ _____    ______ ____
ROOT
ATOM      1  C   UNL     1      11.728  15.349  16.942  0.00  0.00    +0.000 A 
ATOM      2  C   UNL     1      11.814  13.967  16.934  0.00  0.00    +0.000 A 
ATOM      3  C   UNL     1      11.351  13.157  18.118  0.00  0.00    +0.000 A 
ATOM      4  C   UNL     1      10.575  13.689  19.269  0.00  0.00    +0.000 A 
ATOM      5  C   UNL     1      10.179  14.916  18.704  0.00  0.00    +0.000 A 
ATOM      6  C   UNL     1      11.041  15.859  18.033  0.00  0.00    +0.000 A 
ATOM      7  C   UNL     1       9.038  14.701  17.914  0.00  0.00    +0.000 A 
ATOM      8  C   UNL     1       8.422  13.427  17.827  0.00  0.00    +0.000 A 
ATOM      9  C   UNL     1       8.583  12.562  18.895  0.00  0.00    +0.000 A 
ATOM     10  N   UNL     1       9.429  12.917  19.917  0.00  0.00    +0.000 N 
ATOM     11  C   UNL     1       8.986  12.002  21.429  0.00  0.00    +0.000 C 
ATOM     12  C   UNL     1       8.674  11.964  23.270  0.00  0.00    +0.000 C 
ATOM     13  O   UNL     1       7.297  12.198  24.181  0.00  0.00    +0.000 OA
ATOM     14  C   UNL     1       7.075  11.508  25.643  0.00  0.00    +0.000 C 
ATOM     15  C   UNL     1       6.094  12.146  26.987  0.00  0.00    +0.000 C 
ATOM     16  N   UNL     1       6.467  13.558  27.408  0.00  0.00    +0.000 N 
ATOM     17  C   UNL     1       7.807  13.719  27.281  0.00  0.00    +0.000 A 
ATOM     18  C   UNL     1       8.146  14.465  26.161  0.00  0.00    +0.000 A 
ATOM     19  C   UNL     1       7.185  15.266  25.557  0.00  0.00    +0.000 A 
ATOM     20  C   UNL     1       5.925  15.479  26.155  0.00  0.00    +0.000 A 
ATOM     21  C   UNL     1       5.104  16.567  25.800  0.00  0.00    +0.000 A 
ATOM     22  C   UNL     1       3.945  16.815  26.506  0.00  0.00    +0.000 A 
ATOM     23  C   UNL     1       3.617  16.004  27.576  0.00  0.00    +0.000 A 
ATOM     24  C   UNL     1       4.418  14.888  27.916  0.00  0.00    +0.000 A 
ATOM     25  C   UNL     1       5.578  14.604  27.189  0.00  0.00    +0.000 A 
ATOM     26  N   UNL     1       7.443  15.925  24.384  0.00  0.00    +0.000 N 
ATOM     27  C   UNL     1       7.824  15.171  23.248  0.00  0.00    +0.000 C 
ATOM     28  C   UNL     1       8.194  16.208  22.214  0.00  0.00    +0.000 C 
ATOM     29  S   UNL     1       6.829  16.376  21.078  0.00  0.00    +0.000 S 
ATOM     30  C   UNL     1       7.781  16.933  19.647  0.00  0.00    +0.000 C 
ATOM     31  C   UNL     1       7.320  15.955  18.580  0.00  0.00    +0.000 C 
ATOM     32  N   UNL     1       8.247  15.792  17.459  0.00  0.00    +0.000 N 
ATOM     33  H   UNL     1       7.932  16.806  24.559  0.00  0.00    +0.000 HD
ATOM     34  H   UNL     1       8.776  16.637  17.238  0.00  0.00    +0.000 HD
ENDROOT
TORSDOF 0
ENDMDL
MODEL 6
REMARK VINA RESULT:      -6.1      5.637      8.820
REMARK  Name = 
REMARK  0 active torsions:
REMARK  status: ('A' for Active; 'I' for Inactive)
REMARK                            x       y       z     vdW  Elec       q    Type
REMARK                         _______ _______ _______ _____ _____    ______ ____
ROOT
ATOM      1  C   UNL     1       3.806  15.459  17.535  0.00  0.00    +0.000 A 
ATOM      2  C   UNL     1       3.568  16.805  17.316  0.00  0.00    +0.000 A 
ATOM      3  C   UNL     1       2.204  17.399  17.562  0.00  0.00    +0.000 A 
ATOM      4  C   UNL     1       1.081  16.711  18.250  0.00  0.00    +0.000 A 
ATOM      5  C   UNL     1       1.808  15.651  18.826  0.00  0.00    +0.000 A 
ATOM      6  C   UNL     1       2.749  14.797  18.141  0.00  0.00    +0.000 A 
ATOM      7  C   UNL     1       2.390  16.101  20.022  0.00  0.00    +0.000 A 
ATOM      8  C   UNL     1       2.159  17.409  20.517  0.00  0.00    +0.000 A 
ATOM      9  C   UNL     1       0.978  18.033  20.153  0.00  0.00    +0.000 A 
ATOM     10  N   UNL     1       0.159  17.422  19.235  0.00  0.00    +0.000 N 
ATOM     11  C   UNL     1      -1.542  18.052  19.414  0.00  0.00    +0.000 C 
ATOM     12  C   UNL     1      -3.382  17.752  19.510  0.00  0.00    +0.000 C 
ATOM     13  O   UNL     1      -4.405  17.445  20.791  0.00  0.00    +0.000 OA
ATOM     14  C   UNL     1      -5.986  17.849  20.779  0.00  0.00    +0.000 C 
ATOM     15  C   UNL     1      -7.304  17.033  21.658  0.00  0.00    +0.000 C 
ATOM     16  N   UNL     1      -7.403  15.542  21.380  0.00  0.00    +0.000 N 
ATOM     17  C   UNL     1      -7.075  15.311  20.085  0.00  0.00    +0.000 A 
ATOM     18  C   UNL     1      -5.802  14.777  19.949  0.00  0.00    +0.000 A 
ATOM     19  C   UNL     1      -5.189  14.184  21.046  0.00  0.00    +0.000 A 
ATOM     20  C   UNL     1      -5.895  13.951  22.244  0.00  0.00    +0.000 A 
ATOM     21  C   UNL     1      -5.454  13.017  23.203  0.00  0.00    +0.000 A 
ATOM     22  C   UNL     1      -6.245  12.722  24.293  0.00  0.00    +0.000 A 
ATOM     23  C   UNL     1      -7.481  13.328  24.417  0.00  0.00    +0.000 A 
ATOM     24  C   UNL     1      -7.916  14.294  23.479  0.00  0.00    +0.000 A 
ATOM     25  C   UNL     1      -7.110  14.628  22.386  0.00  0.00    +0.000 A 
ATOM     26  N   UNL     1      -3.891  13.750  20.987  0.00  0.00    +0.000 N 
ATOM     27  C   UNL     1      -2.875  14.682  20.666  0.00  0.00    +0.000 C 
ATOM     28  C   UNL     1      -1.627  13.845  20.518  0.00  0.00    +0.000 C 
ATOM     29  S   UNL     1      -0.667  14.004  22.012  0.00  0.00    +0.000 S 
ATOM     30  C   UNL     1       0.955  13.670  21.287  0.00  0.00    +0.000 C 
ATOM     31  C   UNL     1       1.752  14.870  21.768  0.00  0.00    +0.000 C 
ATOM     32  N   UNL     1       2.934  15.182  20.962  0.00  0.00    +0.000 N 
ATOM     33  H   UNL     1      -3.833  12.819  20.570  0.00  0.00    +0.000 HD
ATOM     34  H   UNL     1       3.375  14.360  20.546  0.00  0.00    +0.000 HD
ENDROOT
TORSDOF 0
ENDMDL
MODEL 7
REMARK VINA RESULT:      -6.0      1.648      2.040
REMARK  Name = 
REMARK  0 active torsions:
REMARK  status: ('A' for Active; 'I' for Inactive)
REMARK                            x       y       z     vdW  Elec       q    Type
REMARK                         _______ _______ _______ _____ _____    ______ ____
ROOT
ATOM      1  C   UNL     1      10.637  11.940  20.814  0.00  0.00    +0.000 A 
ATOM      2  C   UNL     1      10.891  12.604  19.626  0.00  0.00    +0.000 A 
ATOM      3  C   UNL     1       9.789  13.329  18.895  0.00  0.00    +0.000 A 
ATOM      4  C   UNL     1       8.434  13.604  19.443  0.00  0.00    +0.000 A 
ATOM      5  C   UNL     1       8.699  13.330  20.799  0.00  0.00    +0.000 A 
ATOM      6  C   UNL     1       9.363  12.157  21.314  0.00  0.00    +0.000 A 
ATOM      7  C   UNL     1       9.271  14.471  21.385  0.00  0.00    +0.000 A 
ATOM      8  C   UNL     1       9.443  15.675  20.658  0.00  0.00    +0.000 A 
ATOM      9  C   UNL     1       8.586  15.913  19.598  0.00  0.00    +0.000 A 
ATOM     10  N   UNL     1       7.708  14.927  19.218  0.00  0.00    +0.000 N 
ATOM     11  C   UNL     1       6.310  15.663  18.311  0.00  0.00    +0.000 C 
ATOM     12  C   UNL     1       4.476  15.794  17.983  0.00  0.00    +0.000 C 
ATOM     13  O   UNL     1       3.283  16.754  18.645  0.00  0.00    +0.000 OA
ATOM     14  C   UNL     1       1.941  17.189  17.826  0.00  0.00    +0.000 C 
ATOM     15  C   UNL     1       0.342  17.564  18.516  0.00  0.00    +0.000 C 
ATOM     16  N   UNL     1      -0.224  16.463  19.399  0.00  0.00    +0.000 N 
ATOM     17  C   UNL     1       0.139  15.259  18.892  0.00  0.00    +0.000 A 
ATOM     18  C   UNL     1       1.166  14.668  19.616  0.00  0.00    +0.000 A 
ATOM     19  C   UNL     1       1.426  15.101  20.910  0.00  0.00    +0.000 A 
ATOM     20  C   UNL     1       0.562  15.999  21.571  0.00  0.00    +0.000 A 
ATOM     21  C   UNL     1       0.562  16.141  22.973  0.00  0.00    +0.000 A 
ATOM     22  C   UNL     1      -0.391  16.926  23.587  0.00  0.00    +0.000 A 
ATOM     23  C   UNL     1      -1.356  17.546  22.816  0.00  0.00    +0.000 A 
ATOM     24  C   UNL     1      -1.342  17.439  21.405  0.00  0.00    +0.000 A 
ATOM     25  C   UNL     1      -0.362  16.673  20.767  0.00  0.00    +0.000 A 
ATOM     26  N   UNL     1       2.501  14.629  21.615  0.00  0.00    +0.000 N 
ATOM     27  C   UNL     1       3.799  14.804  21.077  0.00  0.00    +0.000 C 
ATOM     28  C   UNL     1       4.700  14.025  22.006  0.00  0.00    +0.000 C 
ATOM     29  S   UNL     1       5.498  15.178  23.107  0.00  0.00    +0.000 S 
ATOM     30  C   UNL     1       6.978  14.198  23.444  0.00  0.00    +0.000 C 
ATOM     31  C   UNL     1       8.078  15.194  23.124  0.00  0.00    +0.000 C 
ATOM     32  N   UNL     1       9.373  14.593  22.799  0.00  0.00    +0.000 N 
ATOM     33  H   UNL     1       2.284  13.734  22.059  0.00  0.00    +0.000 HD
ATOM     34  H   UNL     1       9.552  13.716  23.290  0.00  0.00    +0.000 HD
ENDROOT
TORSDOF 0
ENDMDL
MODEL 8
REMARK VINA RESULT:      -5.9      1.023      1.058
REMARK  Name = 
REMARK  0 active torsions:
REMARK  status: ('A' for Active; 'I' for Inactive)
REMARK                            x       y       z     vdW  Elec       q    Type
REMARK                         _______ _______ _______ _____ _____    ______ ____
ROOT
ATOM      1  C   UNL     1      11.536  12.935  19.672  0.00  0.00    +0.000 A 
ATOM      2  C   UNL     1      11.178  12.865  18.336  0.00  0.00    +0.000 A 
ATOM      3  C   UNL     1       9.748  13.074  17.908  0.00  0.00    +0.000 A 
ATOM      4  C   UNL     1       8.657  13.583  18.781  0.00  0.00    +0.000 A 
ATOM      5  C   UNL     1       9.449  14.079  19.834  0.00  0.00    +0.000 A 
ATOM      6  C   UNL     1      10.515  13.370  20.502  0.00  0.00    +0.000 A 
ATOM      7  C   UNL     1       9.902  15.363  19.492  0.00  0.00    +0.000 A 
ATOM      8  C   UNL     1       9.506  15.995  18.286  0.00  0.00    +0.000 A 
ATOM      9  C   UNL     1       8.295  15.619  17.732  0.00  0.00    +0.000 A 
ATOM     10  N   UNL     1       7.604  14.572  18.291  0.00  0.00    +0.000 N 
ATOM     11  C   UNL     1       5.840  14.693  17.850  0.00  0.00    +0.000 C 
ATOM     12  C   UNL     1       4.038  14.607  18.329  0.00  0.00    +0.000 C 
ATOM     13  O   UNL     1       2.969  15.757  18.892  0.00  0.00    +0.000 OA
ATOM     14  C   UNL     1       1.360  15.671  18.638  0.00  0.00    +0.000 C 
ATOM     15  C   UNL     1       0.076  16.338  19.679  0.00  0.00    +0.000 C 
ATOM     16  N   UNL     1       0.148  15.872  21.124  0.00  0.00    +0.000 N 
ATOM     17  C   UNL     1       0.582  14.588  21.154  0.00  0.00    +0.000 A 
ATOM     18  C   UNL     1       1.909  14.487  21.546  0.00  0.00    +0.000 A 
ATOM     19  C   UNL     1       2.505  15.548  22.217  0.00  0.00    +0.000 A 
ATOM     20  C   UNL     1       1.749  16.650  22.668  0.00  0.00    +0.000 A 
ATOM     21  C   UNL     1       2.218  17.518  23.673  0.00  0.00    +0.000 A 
ATOM     22  C   UNL     1       1.392  18.498  24.179  0.00  0.00    +0.000 A 
ATOM     23  C   UNL     1       0.095  18.599  23.711  0.00  0.00    +0.000 A 
ATOM     24  C   UNL     1      -0.373  17.755  22.676  0.00  0.00    +0.000 A 
ATOM     25  C   UNL     1       0.465  16.778  22.130  0.00  0.00    +0.000 A 
ATOM     26  N   UNL     1       3.842  15.538  22.518  0.00  0.00    +0.000 N 
ATOM     27  C   UNL     1       4.777  15.414  21.462  0.00  0.00    +0.000 C 
ATOM     28  C   UNL     1       6.110  15.262  22.154  0.00  0.00    +0.000 C 
ATOM     29  S   UNL     1       6.949  16.835  22.102  0.00  0.00    +0.000 S 
ATOM     30  C   UNL     1       8.640  16.204  22.188  0.00  0.00    +0.000 C 
ATOM     31  C   UNL     1       9.278  16.889  20.992  0.00  0.00    +0.000 C 
ATOM     32  N   UNL     1      10.472  16.222  20.471  0.00  0.00    +0.000 N 
ATOM     33  H   UNL     1       4.021  15.015  23.378  0.00  0.00    +0.000 HD
ATOM     34  H   UNL     1      11.022  15.745  21.188  0.00  0.00    +0.000 HD
ENDROOT
TORSDOF 0
ENDMDL
MODEL 9
REMARK VINA RESULT:      -5.8      3.864      8.095
REMARK  Name = 
REMARK  0 active torsions:
REMARK  status: ('A' for Active; 'I' for Inactive)
REMARK                            x       y       z     vdW  Elec       q    Type
REMARK                         _______ _______ _______ _____ _____    ______ ____
ROOT
ATOM      1  C   UNL     1       4.283  13.057  28.120  0.00  0.00    +0.000 A 
ATOM      2  C   UNL     1       5.064  11.914  28.182  0.00  0.00    +0.000 A 
ATOM      3  C   UNL     1       5.944  11.515  27.025  0.00  0.00    +0.000 A 
ATOM      4  C   UNL     1       6.246  12.368  25.845  0.00  0.00    +0.000 A 
ATOM      5  C   UNL     1       5.797  13.600  26.358  0.00  0.00    +0.000 A 
ATOM      6  C   UNL     1       4.528  13.839  27.002  0.00  0.00    +0.000 A 
ATOM      7  C   UNL     1       6.818  14.161  27.142  0.00  0.00    +0.000 A 
ATOM      8  C   UNL     1       8.085  13.538  27.271  0.00  0.00    +0.000 A 
ATOM      9  C   UNL     1       8.505  12.717  26.239  0.00  0.00    +0.000 A 
ATOM     10  N   UNL     1       7.634  12.439  25.215  0.00  0.00    +0.000 N 
ATOM     11  C   UNL     1       8.567  11.933  23.733  0.00  0.00    +0.000 C 
ATOM     12  C   UNL     1       8.863  12.024  21.892  0.00  0.00    +0.000 C 
ATOM     13  O   UNL     1       9.819  13.020  20.956  0.00  0.00    +0.000 OA
ATOM     14  C   UNL     1      10.439  12.558  19.520  0.00  0.00    +0.000 C 
ATOM     15  C   UNL     1      10.841  13.612  18.140  0.00  0.00    +0.000 C 
ATOM     16  N   UNL     1       9.685  14.481  17.669  0.00  0.00    +0.000 N 
ATOM     17  C   UNL     1       8.527  13.789  17.806  0.00  0.00    +0.000 A 
ATOM     18  C   UNL     1       7.786  14.211  18.901  0.00  0.00    +0.000 A 
ATOM     19  C   UNL     1       8.044  15.456  19.462  0.00  0.00    +0.000 A 
ATOM     20  C   UNL     1       8.916  16.375  18.841  0.00  0.00    +0.000 A 
ATOM     21  C   UNL     1       8.891  17.750  19.144  0.00  0.00    +0.000 A 
ATOM     22  C   UNL     1       9.663  18.631  18.416  0.00  0.00    +0.000 A 
ATOM     23  C   UNL     1      10.434  18.153  17.374  0.00  0.00    +0.000 A 
ATOM     24  C   UNL     1      10.494  16.768  17.086  0.00  0.00    +0.000 A 
ATOM     25  C   UNL     1       9.742  15.860  17.837  0.00  0.00    +0.000 A 
ATOM     26  N   UNL     1       7.418  15.861  20.611  0.00  0.00    +0.000 N 
ATOM     27  C   UNL     1       7.564  15.076  21.780  0.00  0.00    +0.000 C 
ATOM     28  C   UNL     1       6.621  15.705  22.778  0.00  0.00    +0.000 C 
ATOM     29  S   UNL     1       7.578  16.719  23.890  0.00  0.00    +0.000 S 
ATOM     30  C   UNL     1       6.464  16.628  25.310  0.00  0.00    +0.000 C 
ATOM     31  C   UNL     1       7.413  16.179  26.408  0.00  0.00    +0.000 C 
ATOM     32  N   UNL     1       6.766  15.523  27.545  0.00  0.00    +0.000 N 
ATOM     33  H   UNL     1       6.494  16.249  20.409  0.00  0.00    +0.000 HD
ATOM     34  H   UNL     1       5.826  15.874  27.740  0.00  0.00    +0.000 HD
ENDROOT
TORSDOF 0
ENDMDL
