MODEL 1
REMARK VINA RESULT:      -7.6      0.000      0.000
REMARK  Name = 
REMARK  12 active torsions:
REMARK  status: ('A' for Active; 'I' for Inactive)
REMARK    1  A    between atoms: C_1  and  C_2
REMARK    2  A    between atoms: C_2  and  C_3
REMARK    3  A    between atoms: C_3  and  C_4
REMARK    4  A    between atoms: C_4  and  C_5
REMARK    5  A    between atoms: C_5  and  S_6
REMARK    6  A    between atoms: S_6  and  C_7
REMARK    7  A    between atoms: C_10  and  C_11
REMARK    8  A    between atoms: C_11  and  C_12
REMARK    9  A    between atoms: C_11  and  O_13
REMARK   10  A    between atoms: O_13  and  C_14
REMARK   11  A    between atoms: C_17  and  O_18
REMARK   12  A    between atoms: O_18  and  C_19
REMARK                            x       y       z     vdW  Elec       q    Type
REMARK                         _______ _______ _______ _____ _____    ______ ____
ROOT
ATOM      1  C   UNL     1       2.055   7.599  19.797  0.00  0.00    +0.000 A 
ATOM      2  C   UNL     1       1.282   8.344  20.688  0.00  0.00    +0.000 A 
ATOM      3  C   UNL     1       0.727   9.566  20.296  0.00  0.00    +0.000 A 
ATOM      4  C   UNL     1       0.944  10.058  19.012  0.00  0.00    +0.000 A 
ATOM      5  C   UNL     1       1.699   9.305  18.110  0.00  0.00    +0.000 A 
ATOM      6  C   UNL     1       2.273   8.094  18.510  0.00  0.00    +0.000 A 
ENDROOT
BRANCH   1   7
ATOM      7  O   UNL     1       2.672   6.412  20.096  0.00  0.00    +0.000 OA
BRANCH   7   8
ATOM      8  C   UNL     1       2.206   5.249  19.395  0.00  0.00    +0.000 C 
ATOM      9  C   UNL     1       1.750   4.152  20.358  0.00  0.00    +0.000 C 
BRANCH   8  13
ATOM     10  C   UNL     1       5.348   4.487  17.899  0.00  0.00    +0.000 A 
ATOM     11  N   UNL     1       4.657   3.486  17.391  0.00  0.00    +0.000 NA
ATOM     12  N   UNL     1       3.360   3.635  17.825  0.00  0.00    +0.000 NA
ATOM     13  C   UNL     1       3.339   4.720  18.571  0.00  0.00    +0.000 A 
ATOM     14  O   UNL     1       4.574   5.311  18.676  0.00  0.00    +0.000 OA
BRANCH  10  15
ATOM     15  S   UNL     1       7.050   4.735  17.650  0.00  0.00    +0.000 S 
BRANCH  15  16
ATOM     16  C   UNL     1       7.052   6.497  17.180  0.00  0.00    +0.000 C 
BRANCH  16  17
ATOM     17  C   UNL     1       7.888   7.304  18.175  0.00  0.00    +0.000 C 
BRANCH  17  18
ATOM     18  C   UNL     1       8.079   8.750  17.704  0.00  0.00    +0.000 C 
BRANCH  18  20
ATOM     19  C   UNL     1       9.051  11.007  18.293  0.00  0.00    +0.000 C 
ATOM     20  C   UNL     1       8.862   9.565  18.735  0.00  0.00    +0.000 C 
ENDBRANCH  18  20
ENDBRANCH  17  18
ENDBRANCH  16  17
ENDBRANCH  15  16
ENDBRANCH  10  15
ENDBRANCH   8  13
ENDBRANCH   7   8
ENDBRANCH   1   7
BRANCH   4  21
ATOM     21  O   UNL     1       0.316  11.246  18.712  0.00  0.00    +0.000 OA
BRANCH  21  22
ATOM     22  C   UNL     1      -1.046  11.220  18.463  0.00  0.00    +0.000 A 
ATOM     23  N   UNL     1      -1.533  10.370  17.522  0.00  0.00    +0.000 NA
ATOM     24  C   UNL     1      -2.878  10.343  17.373  0.00  0.00    +0.000 A 
ATOM     25  C   UNL     1      -3.752  11.140  18.103  0.00  0.00    +0.000 A 
ATOM     26 CL   UNL     1      -5.448  10.993  17.897  0.00  0.00    +0.000 Cl
ATOM     27  C   UNL     1      -3.225  12.044  19.018  0.00  0.00    +0.000 A 
ATOM     28  C   UNL     1      -1.847  12.089  19.193  0.00  0.00    +0.000 A 
ATOM     29  F   UNL     1      -1.321  12.944  20.080  0.00  0.00    +0.000 F 
ENDBRANCH  21  22
ENDBRANCH   4  21
TORSDOF 10
ENDMDL
MODEL 2
REMARK VINA RESULT:      -7.4      2.485      3.650
REMARK  Name = 
REMARK  12 active torsions:
REMARK  status: ('A' for Active; 'I' for Inactive)
REMARK    1  A    between atoms: C_1  and  C_2
REMARK    2  A    between atoms: C_2  and  C_3
REMARK    3  A    between atoms: C_3  and  C_4
REMARK    4  A    between atoms: C_4  and  C_5
REMARK    5  A    between atoms: C_5  and  S_6
REMARK    6  A    between atoms: S_6  and  C_7
REMARK    7  A    between atoms: C_10  and  C_11
REMARK    8  A    between atoms: C_11  and  C_12
REMARK    9  A    between atoms: C_11  and  O_13
REMARK   10  A    between atoms: O_13  and  C_14
REMARK   11  A    between atoms: C_17  and  O_18
REMARK   12  A    between atoms: O_18  and  C_19
REMARK                            x       y       z     vdW  Elec       q    Type
REMARK                         _______ _______ _______ _____ _____    ______ ____
ROOT
ATOM      1  C   UNL     1       2.226   6.841  19.844  0.00  0.00    +0.000 A 
ATOM      2  C   UNL     1       2.424   7.326  18.550  0.00  0.00    +0.000 A 
ATOM      3  C   UNL     1       1.946   8.587  18.183  0.00  0.00    +0.000 A 
ATOM      4  C   UNL     1       1.259   9.375  19.104  0.00  0.00    +0.000 A 
ATOM      5  C   UNL     1       1.078   8.903  20.406  0.00  0.00    +0.000 A 
ATOM      6  C   UNL     1       1.536   7.631  20.766  0.00  0.00    +0.000 A 
ENDROOT
BRANCH   1   7
ATOM      7  O   UNL     1       2.622   5.607  20.289  0.00  0.00    +0.000 OA
BRANCH   7   8
ATOM      8  C   UNL     1       2.675   4.555  19.313  0.00  0.00    +0.000 C 
ATOM      9  C   UNL     1       2.163   3.231  19.879  0.00  0.00    +0.000 C 
BRANCH   8  13
ATOM     10  C   UNL     1       5.847   4.584  17.693  0.00  0.00    +0.000 A 
ATOM     11  N   UNL     1       6.246   4.134  18.867  0.00  0.00    +0.000 NA
ATOM     12  N   UNL     1       5.121   4.002  19.647  0.00  0.00    +0.000 NA
ATOM     13  C   UNL     1       4.104   4.378  18.900  0.00  0.00    +0.000 A 
ATOM     14  O   UNL     1       4.490   4.775  17.644  0.00  0.00    +0.000 OA
BRANCH  10  15
ATOM     15  S   UNL     1       6.906   4.928  16.358  0.00  0.00    +0.000 S 
BRANCH  15  16
ATOM     16  C   UNL     1       5.736   5.741  15.221  0.00  0.00    +0.000 C 
BRANCH  16  17
ATOM     17  C   UNL     1       5.221   4.735  14.189  0.00  0.00    +0.000 C 
BRANCH  17  18
ATOM     18  C   UNL     1       6.327   3.770  13.746  0.00  0.00    +0.000 C 
BRANCH  18  20
ATOM     19  C   UNL     1       5.179   2.847  11.692  0.00  0.00    +0.000 C 
ATOM     20  C   UNL     1       6.363   3.639  12.222  0.00  0.00    +0.000 C 
ENDBRANCH  18  20
ENDBRANCH  17  18
ENDBRANCH  16  17
ENDBRANCH  15  16
ENDBRANCH  10  15
ENDBRANCH   8  13
ENDBRANCH   7   8
ENDBRANCH   1   7
BRANCH   4  21
ATOM     21  O   UNL     1       0.871  10.618  18.656  0.00  0.00    +0.000 OA
BRANCH  21  22
ATOM     22  C   UNL     1      -0.460  10.974  18.794  0.00  0.00    +0.000 A 
ATOM     23  N   UNL     1      -0.820  11.828  19.786  0.00  0.00    +0.000 NA
ATOM     24  C   UNL     1      -2.125  12.189  19.827  0.00  0.00    +0.000 A 
ATOM     25  C   UNL     1      -3.083  11.719  18.938  0.00  0.00    +0.000 A 
ATOM     26 CL   UNL     1      -4.701  12.280  19.020  0.00  0.00    +0.000 Cl
ATOM     27  C   UNL     1      -2.701  10.799  17.967  0.00  0.00    +0.000 A 
ATOM     28  C   UNL     1      -1.367  10.415  17.903  0.00  0.00    +0.000 A 
ATOM     29  F   UNL     1      -0.977   9.540  16.966  0.00  0.00    +0.000 F 
ENDBRANCH  21  22
ENDBRANCH   4  21
TORSDOF 10
ENDMDL
MODEL 3
REMARK VINA RESULT:      -7.4      1.937      3.054
REMARK  Name = 
REMARK  12 active torsions:
REMARK  status: ('A' for Active; 'I' for Inactive)
REMARK    1  A    between atoms: C_1  and  C_2
REMARK    2  A    between atoms: C_2  and  C_3
REMARK    3  A    between atoms: C_3  and  C_4
REMARK    4  A    between atoms: C_4  and  C_5
REMARK    5  A    between atoms: C_5  and  S_6
REMARK    6  A    between atoms: S_6  and  C_7
REMARK    7  A    between atoms: C_10  and  C_11
REMARK    8  A    between atoms: C_11  and  C_12
REMARK    9  A    between atoms: C_11  and  O_13
REMARK   10  A    between atoms: O_13  and  C_14
REMARK   11  A    between atoms: C_17  and  O_18
REMARK   12  A    between atoms: O_18  and  C_19
REMARK                            x       y       z     vdW  Elec       q    Type
REMARK                         _______ _______ _______ _____ _____    ______ ____
ROOT
ATOM      1  C   UNL     1       1.928   7.608  19.995  0.00  0.00    +0.000 A 
ATOM      2  C   UNL     1       1.150   8.397  20.843  0.00  0.00    +0.000 A 
ATOM      3  C   UNL     1       0.605   9.602  20.390  0.00  0.00    +0.000 A 
ATOM      4  C   UNL     1       0.837  10.033  19.087  0.00  0.00    +0.000 A 
ATOM      5  C   UNL     1       1.597   9.236  18.228  0.00  0.00    +0.000 A 
ATOM      6  C   UNL     1       2.161   8.042  18.689  0.00  0.00    +0.000 A 
ENDROOT
BRANCH   1   7
ATOM      7  O   UNL     1       2.536   6.433  20.354  0.00  0.00    +0.000 OA
BRANCH   7   8
ATOM      8  C   UNL     1       2.053   5.237  19.723  0.00  0.00    +0.000 C 
ATOM      9  C   UNL     1       1.608   4.195  20.750  0.00  0.00    +0.000 C 
BRANCH   8  13
ATOM     10  C   UNL     1       5.143   4.454  18.136  0.00  0.00    +0.000 A 
ATOM     11  N   UNL     1       4.499   3.343  17.837  0.00  0.00    +0.000 NA
ATOM     12  N   UNL     1       3.224   3.475  18.337  0.00  0.00    +0.000 NA
ATOM     13  C   UNL     1       3.169   4.660  18.909  0.00  0.00    +0.000 A 
ATOM     14  O   UNL     1       4.360   5.338  18.832  0.00  0.00    +0.000 OA
BRANCH  10  15
ATOM     15  S   UNL     1       6.803   4.768  17.728  0.00  0.00    +0.000 S 
BRANCH  15  16
ATOM     16  C   UNL     1       6.620   5.241  15.977  0.00  0.00    +0.000 C 
BRANCH  16  17
ATOM     17  C   UNL     1       6.690   3.998  15.087  0.00  0.00    +0.000 C 
BRANCH  17  18
ATOM     18  C   UNL     1       5.662   4.062  13.952  0.00  0.00    +0.000 C 
BRANCH  18  20
ATOM     19  C   UNL     1       5.422   2.764  11.798  0.00  0.00    +0.000 C 
ATOM     20  C   UNL     1       6.302   3.699  12.611  0.00  0.00    +0.000 C 
ENDBRANCH  18  20
ENDBRANCH  17  18
ENDBRANCH  16  17
ENDBRANCH  15  16
ENDBRANCH  10  15
ENDBRANCH   8  13
ENDBRANCH   7   8
ENDBRANCH   1   7
BRANCH   4  21
ATOM     21  O   UNL     1       0.218  11.210  18.726  0.00  0.00    +0.000 OA
BRANCH  21  22
ATOM     22  C   UNL     1      -1.141  11.177  18.463  0.00  0.00    +0.000 A 
ATOM     23  N   UNL     1      -1.612  10.332  17.510  0.00  0.00    +0.000 NA
ATOM     24  C   UNL     1      -2.956  10.298  17.346  0.00  0.00    +0.000 A 
ATOM     25  C   UNL     1      -3.842  11.085  18.072  0.00  0.00    +0.000 A 
ATOM     26 CL   UNL     1      -5.535  10.931  17.846  0.00  0.00    +0.000 Cl
ATOM     27  C   UNL     1      -3.330  11.985  19.000  0.00  0.00    +0.000 A 
ATOM     28  C   UNL     1      -1.955  12.037  19.189  0.00  0.00    +0.000 A 
ATOM     29  F   UNL     1      -1.443  12.888  20.088  0.00  0.00    +0.000 F 
ENDBRANCH  21  22
ENDBRANCH   4  21
TORSDOF 10
ENDMDL
MODEL 4
REMARK VINA RESULT:      -7.2      1.853      2.981
REMARK  Name = 
REMARK  12 active torsions:
REMARK  status: ('A' for Active; 'I' for Inactive)
REMARK    1  A    between atoms: C_1  and  C_2
REMARK    2  A    between atoms: C_2  and  C_3
REMARK    3  A    between atoms: C_3  and  C_4
REMARK    4  A    between atoms: C_4  and  C_5
REMARK    5  A    between atoms: C_5  and  S_6
REMARK    6  A    between atoms: S_6  and  C_7
REMARK    7  A    between atoms: C_10  and  C_11
REMARK    8  A    between atoms: C_11  and  C_12
REMARK    9  A    between atoms: C_11  and  O_13
REMARK   10  A    between atoms: O_13  and  C_14
REMARK   11  A    between atoms: C_17  and  O_18
REMARK   12  A    between atoms: O_18  and  C_19
REMARK                            x       y       z     vdW  Elec       q    Type
REMARK                         _______ _______ _______ _____ _____    ______ ____
ROOT
ATOM      1  C   UNL     1       2.058   7.335  19.954  0.00  0.00    +0.000 A 
ATOM      2  C   UNL     1       2.249   7.790  18.648  0.00  0.00    +0.000 A 
ATOM      3  C   UNL     1       1.677   8.993  18.224  0.00  0.00    +0.000 A 
ATOM      4  C   UNL     1       0.903   9.751  19.098  0.00  0.00    +0.000 A 
ATOM      5  C   UNL     1       0.727   9.312  20.412  0.00  0.00    +0.000 A 
ATOM      6  C   UNL     1       1.281   8.096  20.830  0.00  0.00    +0.000 A 
ENDROOT
BRANCH   1   7
ATOM      7  O   UNL     1       2.543   6.155  20.453  0.00  0.00    +0.000 OA
BRANCH   7   8
ATOM      8  C   UNL     1       2.167   4.957  19.758  0.00  0.00    +0.000 C 
ATOM      9  C   UNL     1       1.748   3.849  20.725  0.00  0.00    +0.000 C 
BRANCH   8  13
ATOM     10  C   UNL     1       5.381   4.394  18.329  0.00  0.00    +0.000 A 
ATOM     11  N   UNL     1       4.789   3.304  17.880  0.00  0.00    +0.000 NA
ATOM     12  N   UNL     1       3.479   3.361  18.298  0.00  0.00    +0.000 NA
ATOM     13  C   UNL     1       3.352   4.483  18.974  0.00  0.00    +0.000 A 
ATOM     14  O   UNL     1       4.527   5.191  19.048  0.00  0.00    +0.000 OA
BRANCH  10  15
ATOM     15  S   UNL     1       7.056   4.782  18.073  0.00  0.00    +0.000 S 
BRANCH  15  16
ATOM     16  C   UNL     1       6.894   6.100  16.825  0.00  0.00    +0.000 C 
BRANCH  16  17
ATOM     17  C   UNL     1       5.564   5.960  16.081  0.00  0.00    +0.000 C 
BRANCH  17  18
ATOM     18  C   UNL     1       5.777   5.520  14.629  0.00  0.00    +0.000 C 
BRANCH  18  20
ATOM     19  C   UNL     1       6.165   3.546  13.101  0.00  0.00    +0.000 C 
ATOM     20  C   UNL     1       6.013   4.012  14.539  0.00  0.00    +0.000 C 
ENDBRANCH  18  20
ENDBRANCH  17  18
ENDBRANCH  16  17
ENDBRANCH  15  16
ENDBRANCH  10  15
ENDBRANCH   8  13
ENDBRANCH   7   8
ENDBRANCH   1   7
BRANCH   4  21
ATOM     21  O   UNL     1       0.424  10.941  18.597  0.00  0.00    +0.000 OA
BRANCH  21  22
ATOM     22  C   UNL     1      -0.938  11.177  18.668  0.00  0.00    +0.000 A 
ATOM     23  N   UNL     1      -1.417  12.023  19.616  0.00  0.00    +0.000 NA
ATOM     24  C   UNL     1      -2.749  12.264  19.591  0.00  0.00    +0.000 A 
ATOM     25  C   UNL     1      -3.622  11.682  18.680  0.00  0.00    +0.000 A 
ATOM     26 CL   UNL     1      -5.286  12.095  18.676  0.00  0.00    +0.000 Cl
ATOM     27  C   UNL     1      -3.116  10.774  17.756  0.00  0.00    +0.000 A 
ATOM     28  C   UNL     1      -1.751  10.512  17.759  0.00  0.00    +0.000 A 
ATOM     29  F   UNL     1      -1.242   9.649  16.868  0.00  0.00    +0.000 F 
ENDBRANCH  21  22
ENDBRANCH   4  21
TORSDOF 10
ENDMDL
MODEL 5
REMARK VINA RESULT:      -7.2      3.435      4.592
REMARK  Name = 
REMARK  12 active torsions:
REMARK  status: ('A' for Active; 'I' for Inactive)
REMARK    1  A    between atoms: C_1  and  C_2
REMARK    2  A    between atoms: C_2  and  C_3
REMARK    3  A    between atoms: C_3  and  C_4
REMARK    4  A    between atoms: C_4  and  C_5
REMARK    5  A    between atoms: C_5  and  S_6
REMARK    6  A    between atoms: S_6  and  C_7
REMARK    7  A    between atoms: C_10  and  C_11
REMARK    8  A    between atoms: C_11  and  C_12
REMARK    9  A    between atoms: C_11  and  O_13
REMARK   10  A    between atoms: O_13  and  C_14
REMARK   11  A    between atoms: C_17  and  O_18
REMARK   12  A    between atoms: O_18  and  C_19
REMARK                            x       y       z     vdW  Elec       q    Type
REMARK                         _______ _______ _______ _____ _____    ______ ____
ROOT
ATOM      1  C   UNL     1       2.214   7.491  19.508  0.00  0.00    +0.000 A 
ATOM      2  C   UNL     1       1.487   8.201  20.463  0.00  0.00    +0.000 A 
ATOM      3  C   UNL     1       0.809   9.373  20.114  0.00  0.00    +0.000 A 
ATOM      4  C   UNL     1       0.856   9.850  18.807  0.00  0.00    +0.000 A 
ATOM      5  C   UNL     1       1.565   9.131  17.842  0.00  0.00    +0.000 A 
ATOM      6  C   UNL     1       2.262   7.971  18.197  0.00  0.00    +0.000 A 
ENDROOT
BRANCH   1   7
ATOM      7  O   UNL     1       2.941   6.356  19.758  0.00  0.00    +0.000 OA
BRANCH   7   8
ATOM      8  C   UNL     1       2.751   5.256  18.855  0.00  0.00    +0.000 C 
ATOM      9  C   UNL     1       2.006   4.099  19.521  0.00  0.00    +0.000 C 
BRANCH   8  13
ATOM     10  C   UNL     1       5.814   4.561  17.176  0.00  0.00    +0.000 A 
ATOM     11  N   UNL     1       6.146   4.090  18.362  0.00  0.00    +0.000 NA
ATOM     12  N   UNL     1       5.040   4.227  19.169  0.00  0.00    +0.000 NA
ATOM     13  C   UNL     1       4.100   4.771  18.424  0.00  0.00    +0.000 A 
ATOM     14  O   UNL     1       4.524   5.025  17.143  0.00  0.00    +0.000 OA
BRANCH  10  15
ATOM     15  S   UNL     1       6.883   4.622  15.807  0.00  0.00    +0.000 S 
BRANCH  15  16
ATOM     16  C   UNL     1       5.736   4.119  14.482  0.00  0.00    +0.000 C 
BRANCH  16  17
ATOM     17  C   UNL     1       6.506   3.892  13.179  0.00  0.00    +0.000 C 
BRANCH  17  18
ATOM     18  C   UNL     1       5.699   3.045  12.190  0.00  0.00    +0.000 C 
BRANCH  18  20
ATOM     19  C   UNL     1       3.608   2.948  10.774  0.00  0.00    +0.000 C 
ATOM     20  C   UNL     1       4.432   3.778  11.744  0.00  0.00    +0.000 C 
ENDBRANCH  18  20
ENDBRANCH  17  18
ENDBRANCH  16  17
ENDBRANCH  15  16
ENDBRANCH  10  15
ENDBRANCH   8  13
ENDBRANCH   7   8
ENDBRANCH   1   7
BRANCH   4  21
ATOM     21  O   UNL     1       0.118  10.985  18.556  0.00  0.00    +0.000 OA
BRANCH  21  22
ATOM     22  C   UNL     1       0.636  12.203  18.963  0.00  0.00    +0.000 A 
ATOM     23  N   UNL     1       1.880  12.565  18.555  0.00  0.00    +0.000 NA
ATOM     24  C   UNL     1       2.303  13.795  18.932  0.00  0.00    +0.000 A 
ATOM     25  C   UNL     1       1.551  14.664  19.712  0.00  0.00    +0.000 A 
ATOM     26 CL   UNL     1       2.136  16.232  20.087  0.00  0.00    +0.000 Cl
ATOM     27  C   UNL     1       0.304  14.247  20.166  0.00  0.00    +0.000 A 
ATOM     28  C   UNL     1      -0.154  12.990  19.792  0.00  0.00    +0.000 A 
ATOM     29  F   UNL     1      -1.358  12.574  20.208  0.00  0.00    +0.000 F 
ENDBRANCH  21  22
ENDBRANCH   4  21
TORSDOF 10
ENDMDL
MODEL 6
REMARK VINA RESULT:      -7.1      3.479      4.310
REMARK  Name = 
REMARK  12 active torsions:
REMARK  status: ('A' for Active; 'I' for Inactive)
REMARK    1  A    between atoms: C_1  and  C_2
REMARK    2  A    between atoms: C_2  and  C_3
REMARK    3  A    between atoms: C_3  and  C_4
REMARK    4  A    between atoms: C_4  and  C_5
REMARK    5  A    between atoms: C_5  and  S_6
REMARK    6  A    between atoms: S_6  and  C_7
REMARK    7  A    between atoms: C_10  and  C_11
REMARK    8  A    between atoms: C_11  and  C_12
REMARK    9  A    between atoms: C_11  and  O_13
REMARK   10  A    between atoms: O_13  and  C_14
REMARK   11  A    between atoms: C_17  and  O_18
REMARK   12  A    between atoms: O_18  and  C_19
REMARK                            x       y       z     vdW  Elec       q    Type
REMARK                         _______ _______ _______ _____ _____    ______ ____
ROOT
ATOM      1  C   UNL     1       1.840   7.647  19.993  0.00  0.00    +0.000 A 
ATOM      2  C   UNL     1       1.166   8.554  20.813  0.00  0.00    +0.000 A 
ATOM      3  C   UNL     1       0.759   9.795  20.315  0.00  0.00    +0.000 A 
ATOM      4  C   UNL     1       1.025  10.146  18.995  0.00  0.00    +0.000 A 
ATOM      5  C   UNL     1       1.679   9.233  18.164  0.00  0.00    +0.000 A 
ATOM      6  C   UNL     1       2.107   8.001  18.668  0.00  0.00    +0.000 A 
ENDROOT
BRANCH   1   7
ATOM      7  O   UNL     1       2.312   6.425  20.395  0.00  0.00    +0.000 OA
BRANCH   7   8
ATOM      8  C   UNL     1       2.229   5.356  19.440  0.00  0.00    +0.000 C 
ATOM      9  C   UNL     1       1.299   4.241  19.920  0.00  0.00    +0.000 C 
BRANCH   8  13
ATOM     10  C   UNL     1       5.703   4.783  18.903  0.00  0.00    +0.000 A 
ATOM     11  N   UNL     1       5.394   3.594  19.382  0.00  0.00    +0.000 NA
ATOM     12  N   UNL     1       4.038   3.597  19.614  0.00  0.00    +0.000 NA
ATOM     13  C   UNL     1       3.602   4.787  19.260  0.00  0.00    +0.000 A 
ATOM     14  O   UNL     1       4.608   5.605  18.807  0.00  0.00    +0.000 OA
BRANCH  10  15
ATOM     15  S   UNL     1       7.308   5.282  18.463  0.00  0.00    +0.000 S 
BRANCH  15  16
ATOM     16  C   UNL     1       7.470   4.454  16.847  0.00  0.00    +0.000 C 
BRANCH  16  17
ATOM     17  C   UNL     1       6.351   4.910  15.908  0.00  0.00    +0.000 C 
BRANCH  17  18
ATOM     18  C   UNL     1       6.759   4.770  14.438  0.00  0.00    +0.000 C 
BRANCH  18  20
ATOM     19  C   UNL     1       6.305   3.452  12.330  0.00  0.00    +0.000 C 
ATOM     20  C   UNL     1       5.749   3.919  13.666  0.00  0.00    +0.000 C 
ENDBRANCH  18  20
ENDBRANCH  17  18
ENDBRANCH  16  17
ENDBRANCH  15  16
ENDBRANCH  10  15
ENDBRANCH   8  13
ENDBRANCH   7   8
ENDBRANCH   1   7
BRANCH   4  21
ATOM     21  O   UNL     1       0.541  11.370  18.591  0.00  0.00    +0.000 OA
BRANCH  21  22
ATOM     22  C   UNL     1       1.100  12.508  19.149  0.00  0.00    +0.000 A 
ATOM     23  N   UNL     1       0.405  13.194  20.092  0.00  0.00    +0.000 NA
ATOM     24  C   UNL     1       1.032  14.259  20.647  0.00  0.00    +0.000 A 
ATOM     25  C   UNL     1       2.306  14.678  20.285  0.00  0.00    +0.000 A 
ATOM     26 CL   UNL     1       3.053  15.997  21.086  0.00  0.00    +0.000 Cl
ATOM     27  C   UNL     1       2.973  13.994  19.274  0.00  0.00    +0.000 A 
ATOM     28  C   UNL     1       2.352  12.896  18.691  0.00  0.00    +0.000 A 
ATOM     29  F   UNL     1       2.984  12.216  17.725  0.00  0.00    +0.000 F 
ENDBRANCH  21  22
ENDBRANCH   4  21
TORSDOF 10
ENDMDL
MODEL 7
REMARK VINA RESULT:      -7.1      2.944      3.572
REMARK  Name = 
REMARK  12 active torsions:
REMARK  status: ('A' for Active; 'I' for Inactive)
REMARK    1  A    between atoms: C_1  and  C_2
REMARK    2  A    between atoms: C_2  and  C_3
REMARK    3  A    between atoms: C_3  and  C_4
REMARK    4  A    between atoms: C_4  and  C_5
REMARK    5  A    between atoms: C_5  and  S_6
REMARK    6  A    between atoms: S_6  and  C_7
REMARK    7  A    between atoms: C_10  and  C_11
REMARK    8  A    between atoms: C_11  and  C_12
REMARK    9  A    between atoms: C_11  and  O_13
REMARK   10  A    between atoms: O_13  and  C_14
REMARK   11  A    between atoms: C_17  and  O_18
REMARK   12  A    between atoms: O_18  and  C_19
REMARK                            x       y       z     vdW  Elec       q    Type
REMARK                         _______ _______ _______ _____ _____    ______ ____
ROOT
ATOM      1  C   UNL     1       2.170   7.454  19.470  0.00  0.00    +0.000 A 
ATOM      2  C   UNL     1       2.295   8.084  18.231  0.00  0.00    +0.000 A 
ATOM      3  C   UNL     1       1.738   9.349  18.018  0.00  0.00    +0.000 A 
ATOM      4  C   UNL     1       1.046   9.994  19.039  0.00  0.00    +0.000 A 
ATOM      5  C   UNL     1       0.938   9.377  20.288  0.00  0.00    +0.000 A 
ATOM      6  C   UNL     1       1.475   8.101  20.493  0.00  0.00    +0.000 A 
ENDROOT
BRANCH   1   7
ATOM      7  O   UNL     1       2.646   6.203  19.766  0.00  0.00    +0.000 OA
BRANCH   7   8
ATOM      8  C   UNL     1       1.931   5.091  19.206  0.00  0.00    +0.000 C 
ATOM      9  C   UNL     1       1.372   4.173  20.294  0.00  0.00    +0.000 C 
BRANCH   8  13
ATOM     10  C   UNL     1       4.391   3.953  16.896  0.00  0.00    +0.000 A 
ATOM     11  N   UNL     1       4.283   2.847  17.606  0.00  0.00    +0.000 NA
ATOM     12  N   UNL     1       3.311   3.075  18.553  0.00  0.00    +0.000 NA
ATOM     13  C   UNL     1       2.884   4.305  18.361  0.00  0.00    +0.000 A 
ATOM     14  O   UNL     1       3.535   4.934  17.328  0.00  0.00    +0.000 OA
BRANCH  10  15
ATOM     15  S   UNL     1       5.502   4.171  15.578  0.00  0.00    +0.000 S 
BRANCH  15  16
ATOM     16  C   UNL     1       6.983   4.713  16.492  0.00  0.00    +0.000 C 
BRANCH  16  17
ATOM     17  C   UNL     1       6.601   5.764  17.536  0.00  0.00    +0.000 C 
BRANCH  17  18
ATOM     18  C   UNL     1       7.676   5.897  18.620  0.00  0.00    +0.000 C 
BRANCH  18  20
ATOM     19  C   UNL     1       7.629   8.204  17.591  0.00  0.00    +0.000 C 
ATOM     20  C   UNL     1       8.292   7.297  18.614  0.00  0.00    +0.000 C 
ENDBRANCH  18  20
ENDBRANCH  17  18
ENDBRANCH  16  17
ENDBRANCH  15  16
ENDBRANCH  10  15
ENDBRANCH   8  13
ENDBRANCH   7   8
ENDBRANCH   1   7
BRANCH   4  21
ATOM     21  O   UNL     1       0.576  11.254  18.742  0.00  0.00    +0.000 OA
BRANCH  21  22
ATOM     22  C   UNL     1       1.010  12.312  19.522  0.00  0.00    +0.000 A 
ATOM     23  N   UNL     1       0.246  12.725  20.566  0.00  0.00    +0.000 NA
ATOM     24  C   UNL     1       0.757  13.720  21.330  0.00  0.00    +0.000 A 
ATOM     25  C   UNL     1       1.979  14.332  21.084  0.00  0.00    +0.000 A 
ATOM     26 CL   UNL     1       2.581  15.540  22.142  0.00  0.00    +0.000 Cl
ATOM     27  C   UNL     1       2.716  13.932  19.974  0.00  0.00    +0.000 A 
ATOM     28  C   UNL     1       2.215  12.910  19.176  0.00  0.00    +0.000 A 
ATOM     29  F   UNL     1       2.917  12.501  18.110  0.00  0.00    +0.000 F 
ENDBRANCH  21  22
ENDBRANCH   4  21
TORSDOF 10
ENDMDL
MODEL 8
REMARK VINA RESULT:      -7.1      1.086      1.193
REMARK  Name = 
REMARK  12 active torsions:
REMARK  status: ('A' for Active; 'I' for Inactive)
REMARK    1  A    between atoms: C_1  and  C_2
REMARK    2  A    between atoms: C_2  and  C_3
REMARK    3  A    between atoms: C_3  and  C_4
REMARK    4  A    between atoms: C_4  and  C_5
REMARK    5  A    between atoms: C_5  and  S_6
REMARK    6  A    between atoms: S_6  and  C_7
REMARK    7  A    between atoms: C_10  and  C_11
REMARK    8  A    between atoms: C_11  and  C_12
REMARK    9  A    between atoms: C_11  and  O_13
REMARK   10  A    between atoms: O_13  and  C_14
REMARK   11  A    between atoms: C_17  and  O_18
REMARK   12  A    between atoms: O_18  and  C_19
REMARK                            x       y       z     vdW  Elec       q    Type
REMARK                         _______ _______ _______ _____ _____    ______ ____
ROOT
ATOM      1  C   UNL     1       1.853   7.697  19.613  0.00  0.00    +0.000 A 
ATOM      2  C   UNL     1       1.277   8.511  20.590  0.00  0.00    +0.000 A 
ATOM      3  C   UNL     1       0.841   9.801  20.273  0.00  0.00    +0.000 A 
ATOM      4  C   UNL     1       0.980  10.293  18.979  0.00  0.00    +0.000 A 
ATOM      5  C   UNL     1       1.535   9.475  17.992  0.00  0.00    +0.000 A 
ATOM      6  C   UNL     1       1.993   8.192  18.315  0.00  0.00    +0.000 A 
ENDROOT
BRANCH   1   7
ATOM      7  O   UNL     1       2.345   6.437  19.831  0.00  0.00    +0.000 OA
BRANCH   7   8
ATOM      8  C   UNL     1       2.663   5.658  18.667  0.00  0.00    +0.000 C 
ATOM      9  C   UNL     1       1.758   4.432  18.542  0.00  0.00    +0.000 C 
BRANCH   8  13
ATOM     10  C   UNL     1       6.203   5.350  18.906  0.00  0.00    +0.000 A 
ATOM     11  N   UNL     1       5.887   4.133  19.305  0.00  0.00    +0.000 NA
ATOM     12  N   UNL     1       4.517   4.033  19.233  0.00  0.00    +0.000 NA
ATOM     13  C   UNL     1       4.081   5.195  18.792  0.00  0.00    +0.000 A 
ATOM     14  O   UNL     1       5.098   6.091  18.573  0.00  0.00    +0.000 OA
BRANCH  10  15
ATOM     15  S   UNL     1       7.824   5.971  18.831  0.00  0.00    +0.000 S 
BRANCH  15  16
ATOM     16  C   UNL     1       7.719   6.959  17.302  0.00  0.00    +0.000 C 
BRANCH  16  17
ATOM     17  C   UNL     1       7.644   8.449  17.644  0.00  0.00    +0.000 C 
BRANCH  17  18
ATOM     18  C   UNL     1       8.809   8.879  18.542  0.00  0.00    +0.000 C 
BRANCH  18  20
ATOM     19  C   UNL     1      10.215  10.912  19.063  0.00  0.00    +0.000 C 
ATOM     20  C   UNL     1       8.823  10.396  18.735  0.00  0.00    +0.000 C 
ENDBRANCH  18  20
ENDBRANCH  17  18
ENDBRANCH  16  17
ENDBRANCH  15  16
ENDBRANCH  10  15
ENDBRANCH   8  13
ENDBRANCH   7   8
ENDBRANCH   1   7
BRANCH   4  21
ATOM     21  O   UNL     1       0.477  11.556  18.760  0.00  0.00    +0.000 OA
BRANCH  21  22
ATOM     22  C   UNL     1      -0.890  11.743  18.879  0.00  0.00    +0.000 A 
ATOM     23  N   UNL     1      -1.716  11.215  17.939  0.00  0.00    +0.000 NA
ATOM     24  C   UNL     1      -3.045  11.375  18.147  0.00  0.00    +0.000 A 
ATOM     25  C   UNL     1      -3.579  12.055  19.233  0.00  0.00    +0.000 A 
ATOM     26 CL   UNL     1      -5.277  12.154  19.454  0.00  0.00    +0.000 Cl
ATOM     27  C   UNL     1      -2.711  12.638  20.150  0.00  0.00    +0.000 A 
ATOM     28  C   UNL     1      -1.343  12.486  19.962  0.00  0.00    +0.000 A 
ATOM     29  F   UNL     1      -0.490  13.028  20.841  0.00  0.00    +0.000 F 
ENDBRANCH  21  22
ENDBRANCH   4  21
TORSDOF 10
ENDMDL
MODEL 9
REMARK VINA RESULT:      -7.1      3.098      4.955
REMARK  Name = 
REMARK  12 active torsions:
REMARK  status: ('A' for Active; 'I' for Inactive)
REMARK    1  A    between atoms: C_1  and  C_2
REMARK    2  A    between atoms: C_2  and  C_3
REMARK    3  A    between atoms: C_3  and  C_4
REMARK    4  A    between atoms: C_4  and  C_5
REMARK    5  A    between atoms: C_5  and  S_6
REMARK    6  A    between atoms: S_6  and  C_7
REMARK    7  A    between atoms: C_10  and  C_11
REMARK    8  A    between atoms: C_11  and  C_12
REMARK    9  A    between atoms: C_11  and  O_13
REMARK   10  A    between atoms: O_13  and  C_14
REMARK   11  A    between atoms: C_17  and  O_18
REMARK   12  A    between atoms: O_18  and  C_19
REMARK                            x       y       z     vdW  Elec       q    Type
REMARK                         _______ _______ _______ _____ _____    ______ ____
ROOT
ATOM      1  C   UNL     1       2.456   7.811  18.219  0.00  0.00    +0.000 A 
ATOM      2  C   UNL     1       1.899   9.039  17.858  0.00  0.00    +0.000 A 
ATOM      3  C   UNL     1       1.175   9.791  18.787  0.00  0.00    +0.000 A 
ATOM      4  C   UNL     1       0.995   9.321  20.085  0.00  0.00    +0.000 A 
ATOM      5  C   UNL     1       1.569   8.104  20.458  0.00  0.00    +0.000 A 
ATOM      6  C   UNL     1       2.274   7.341  19.521  0.00  0.00    +0.000 A 
ENDROOT
BRANCH   1   7
ATOM      7  O   UNL     1       3.149   6.984  17.373  0.00  0.00    +0.000 OA
BRANCH   7   8
ATOM      8  C   UNL     1       4.553   6.831  17.628  0.00  0.00    +0.000 C 
ATOM      9  C   UNL     1       5.365   6.815  16.332  0.00  0.00    +0.000 C 
BRANCH   8  13
ATOM     10  C   UNL     1       4.466   3.468  18.796  0.00  0.00    +0.000 A 
ATOM     11  N   UNL     1       5.586   3.837  19.388  0.00  0.00    +0.000 NA
ATOM     12  N   UNL     1       5.774   5.167  19.090  0.00  0.00    +0.000 NA
ATOM     13  C   UNL     1       4.757   5.528  18.336  0.00  0.00    +0.000 A 
ATOM     14  O   UNL     1       3.887   4.494  18.094  0.00  0.00    +0.000 OA
BRANCH  10  15
ATOM     15  S   UNL     1       3.801   1.864  18.862  0.00  0.00    +0.000 S 
BRANCH  15  16
ATOM     16  C   UNL     1       2.405   2.047  17.703  0.00  0.00    +0.000 C 
BRANCH  16  17
ATOM     17  C   UNL     1       1.217   2.701  18.412  0.00  0.00    +0.000 C 
BRANCH  17  18
ATOM     18  C   UNL     1       1.254   2.447  19.922  0.00  0.00    +0.000 C 
BRANCH  18  20
ATOM     19  C   UNL     1       2.251   3.897  21.735  0.00  0.00    +0.000 C 
ATOM     20  C   UNL     1       1.144   3.757  20.703  0.00  0.00    +0.000 C 
ENDBRANCH  18  20
ENDBRANCH  17  18
ENDBRANCH  16  17
ENDBRANCH  15  16
ENDBRANCH  10  15
ENDBRANCH   8  13
ENDBRANCH   7   8
ENDBRANCH   1   7
BRANCH   4  21
ATOM     21  O   UNL     1       0.306  10.158  20.935  0.00  0.00    +0.000 OA
BRANCH  21  22
ATOM     22  C   UNL     1       0.359  11.521  20.693  0.00  0.00    +0.000 A 
ATOM     23  N   UNL     1       1.462  12.219  21.066  0.00  0.00    +0.000 NA
ATOM     24  C   UNL     1       1.480  13.534  20.742  0.00  0.00    +0.000 A 
ATOM     25  C   UNL     1       0.441  14.182  20.086  0.00  0.00    +0.000 A 
ATOM     26 CL   UNL     1       0.576  15.836  19.654  0.00  0.00    +0.000 Cl
ATOM     27  C   UNL     1      -0.702  13.457  19.767  0.00  0.00    +0.000 A 
ATOM     28  C   UNL     1      -0.745  12.106  20.086  0.00  0.00    +0.000 A 
ATOM     29  F   UNL     1      -1.833  11.388  19.776  0.00  0.00    +0.000 F 
ENDBRANCH  21  22
ENDBRANCH   4  21
TORSDOF 10
ENDMDL
