MODEL 1
REMARK VINA RESULT:      -9.0      0.000      0.000
REMARK  Name = 
REMARK  8 active torsions:
REMARK  status: ('A' for Active; 'I' for Inactive)
REMARK    1  A    between atoms: C_1  and  C_2
REMARK    2  A    between atoms: C_2  and  N_3
REMARK    3  A    between atoms: C_5  and  C_6
REMARK    4  A    between atoms: C_6  and  N_7
REMARK    5  A    between atoms: C_11  and  C_12
REMARK    6  A    between atoms: N_14  and  C_15
REMARK    7  A    between atoms: C_19  and  C_20
REMARK    8  A    between atoms: C_31  and  C_32
REMARK                            x       y       z     vdW  Elec       q    Type
REMARK                         _______ _______ _______ _____ _____    ______ ____
ROOT
ATOM      1  C   UNL     1       1.679   5.636  20.253  0.00  0.00    +0.000 C 
ATOM      2  O   UNL     1       0.588   5.394  20.792  0.00  0.00    +0.000 OA
ATOM      3  N   UNL     1       2.220   6.903  20.116  0.00  0.00    +0.000 N 
ATOM      4  H   UNL     1       3.006   7.005  19.498  0.00  0.00    +0.000 HD
ENDROOT
BRANCH   1   9
ATOM      5  N   UNL     1       4.917   4.032  18.992  0.00  0.00    +0.000 NA
ATOM      6  C   UNL     1       4.935   2.877  19.903  0.00  0.00    +0.000 C 
ATOM      7  C   UNL     1       3.575   2.247  20.058  0.00  0.00    +0.000 C 
ATOM      8  C   UNL     1       2.539   3.255  20.556  0.00  0.00    +0.000 C 
ATOM      9  C   UNL     1       2.525   4.501  19.676  0.00  0.00    +0.000 C 
ATOM     10  C   UNL     1       3.935   5.036  19.459  0.00  0.00    +0.000 C 
BRANCH   5  11
ATOM     11  C   UNL     1       6.236   4.682  18.887  0.00  0.00    +0.000 C 
BRANCH  11  14
ATOM     12  N   UNL     1       6.877   4.908  15.313  0.00  0.00    +0.000 N 
ATOM     13  C   UNL     1       6.388   4.222  16.373  0.00  0.00    +0.000 A 
ATOM     14  C   UNL     1       6.582   5.024  17.491  0.00  0.00    +0.000 A 
ATOM     15  C   UNL     1       7.220   6.183  16.957  0.00  0.00    +0.000 A 
ATOM     16  C   UNL     1       7.676   7.395  17.696  0.00  0.00    +0.000 C 
ATOM     17  N   UNL     1       7.384   6.106  15.631  0.00  0.00    +0.000 NA
BRANCH  12  19
ATOM     18  C   UNL     1       7.878   5.293  13.105  0.00  0.00    +0.000 C 
ATOM     19  C   UNL     1       6.901   4.477  13.933  0.00  0.00    +0.000 C 
ENDBRANCH  12  19
ENDBRANCH  11  14
ENDBRANCH   5  11
ENDBRANCH   1   9
BRANCH   3  20
ATOM     20  C   UNL     1       1.568   8.114  20.514  0.00  0.00    +0.000 A 
ATOM     21  C   UNL     1       1.550   8.550  21.840  0.00  0.00    +0.000 A 
ATOM     22  C   UNL     1       0.826   9.685  22.183  0.00  0.00    +0.000 A 
ATOM     23  C   UNL     1       0.101  10.351  21.225  0.00  0.00    +0.000 A 
ATOM     24  C   UNL     1       0.091   9.894  19.905  0.00  0.00    +0.000 A 
ATOM     25  C   UNL     1       0.897   8.815  19.529  0.00  0.00    +0.000 A 
BRANCH  24  26
ATOM     26  C   UNL     1      -0.936  10.382  18.989  0.00  0.00    +0.000 A 
ATOM     27  C   UNL     1      -1.034  10.095  17.642  0.00  0.00    +0.000 A 
ATOM     28  C   UNL     1      -2.151  10.780  17.146  0.00  0.00    +0.000 A 
ATOM     29  C   UNL     1      -2.733  10.907  15.880  0.00  0.00    +0.000 A 
ATOM     30  C   UNL     1      -4.116  10.983  15.837  0.00  0.00    +0.000 A 
ATOM     31  C   UNL     1      -4.777  11.532  16.925  0.00  0.00    +0.000 A 
ATOM     32  C   UNL     1      -4.081  11.894  18.090  0.00  0.00    +0.000 A 
ATOM     33  C   UNL     1      -2.801  11.361  18.218  0.00  0.00    +0.000 A 
ATOM     34  N   UNL     1      -1.933  11.277  19.285  0.00  0.00    +0.000 N 
ATOM     35  H   UNL     1      -2.100  11.700  20.192  0.00  0.00    +0.000 HD
ENDBRANCH  24  26
ENDBRANCH   3  20
TORSDOF 6
ENDMDL
MODEL 2
REMARK VINA RESULT:      -8.9      1.544      2.264
REMARK  Name = 
REMARK  8 active torsions:
REMARK  status: ('A' for Active; 'I' for Inactive)
REMARK    1  A    between atoms: C_1  and  C_2
REMARK    2  A    between atoms: C_2  and  N_3
REMARK    3  A    between atoms: C_5  and  C_6
REMARK    4  A    between atoms: C_6  and  N_7
REMARK    5  A    between atoms: C_11  and  C_12
REMARK    6  A    between atoms: N_14  and  C_15
REMARK    7  A    between atoms: C_19  and  C_20
REMARK    8  A    between atoms: C_31  and  C_32
REMARK                            x       y       z     vdW  Elec       q    Type
REMARK                         _______ _______ _______ _____ _____    ______ ____
ROOT
ATOM      1  C   UNL     1       1.816   7.655  19.477  0.00  0.00    +0.000 C 
ATOM      2  O   UNL     1       1.754   8.083  20.639  0.00  0.00    +0.000 OA
ATOM      3  N   UNL     1       1.559   8.415  18.348  0.00  0.00    +0.000 N 
ATOM      4  H   UNL     1       1.449   7.926  17.478  0.00  0.00    +0.000 HD
ENDROOT
BRANCH   1   9
ATOM      5  N   UNL     1       4.252   4.763  18.886  0.00  0.00    +0.000 NA
ATOM      6  C   UNL     1       3.802   3.896  19.986  0.00  0.00    +0.000 C 
ATOM      7  C   UNL     1       2.300   3.848  20.101  0.00  0.00    +0.000 C 
ATOM      8  C   UNL     1       1.704   5.242  20.294  0.00  0.00    +0.000 C 
ATOM      9  C   UNL     1       2.191   6.197  19.209  0.00  0.00    +0.000 C 
ATOM     10  C   UNL     1       3.706   6.128  19.055  0.00  0.00    +0.000 C 
BRANCH   5  11
ATOM     11  C   UNL     1       5.721   4.854  18.812  0.00  0.00    +0.000 C 
BRANCH  11  14
ATOM     12  N   UNL     1       6.634   4.684  15.294  0.00  0.00    +0.000 N 
ATOM     13  C   UNL     1       5.996   4.153  16.364  0.00  0.00    +0.000 A 
ATOM     14  C   UNL     1       6.201   5.028  17.424  0.00  0.00    +0.000 A 
ATOM     15  C   UNL     1       7.004   6.058  16.850  0.00  0.00    +0.000 A 
ATOM     16  C   UNL     1       7.544   7.275  17.521  0.00  0.00    +0.000 C 
ATOM     17  N   UNL     1       7.252   5.843  15.552  0.00  0.00    +0.000 NA
BRANCH  12  19
ATOM     18  C   UNL     1       7.514   5.012  13.026  0.00  0.00    +0.000 C 
ATOM     19  C   UNL     1       6.706   4.129  13.961  0.00  0.00    +0.000 C 
ENDBRANCH  12  19
ENDBRANCH  11  14
ENDBRANCH   5  11
ENDBRANCH   1   9
BRANCH   3  20
ATOM     20  C   UNL     1       1.119   9.778  18.366  0.00  0.00    +0.000 A 
ATOM     21  C   UNL     1       1.982  10.835  18.658  0.00  0.00    +0.000 A 
ATOM     22  C   UNL     1       1.481  12.128  18.752  0.00  0.00    +0.000 A 
ATOM     23  C   UNL     1       0.135  12.355  18.593  0.00  0.00    +0.000 A 
ATOM     24  C   UNL     1      -0.733  11.291  18.336  0.00  0.00    +0.000 A 
ATOM     25  C   UNL     1      -0.227  10.002  18.140  0.00  0.00    +0.000 A 
BRANCH  24  26
ATOM     26  C   UNL     1      -2.169  11.483  18.517  0.00  0.00    +0.000 A 
ATOM     27  C   UNL     1      -3.174  10.804  17.858  0.00  0.00    +0.000 A 
ATOM     28  C   UNL     1      -4.397  11.310  18.319  0.00  0.00    +0.000 A 
ATOM     29  C   UNL     1      -5.737  11.051  18.012  0.00  0.00    +0.000 A 
ATOM     30  C   UNL     1      -6.639  11.112  19.063  0.00  0.00    +0.000 A 
ATOM     31  C   UNL     1      -6.357  11.963  20.120  0.00  0.00    +0.000 A 
ATOM     32  C   UNL     1      -5.137  12.658  20.187  0.00  0.00    +0.000 A 
ATOM     33  C   UNL     1      -4.128  12.187  19.353  0.00  0.00    +0.000 A 
ATOM     34  N   UNL     1      -2.771  12.426  19.310  0.00  0.00    +0.000 N 
ATOM     35  H   UNL     1      -2.292  13.102  19.896  0.00  0.00    +0.000 HD
ENDBRANCH  24  26
ENDBRANCH   3  20
TORSDOF 6
ENDMDL
MODEL 3
REMARK VINA RESULT:      -8.8      2.261      3.196
REMARK  Name = 
REMARK  8 active torsions:
REMARK  status: ('A' for Active; 'I' for Inactive)
REMARK    1  A    between atoms: C_1  and  C_2
REMARK    2  A    between atoms: C_2  and  N_3
REMARK    3  A    between atoms: C_5  and  C_6
REMARK    4  A    between atoms: C_6  and  N_7
REMARK    5  A    between atoms: C_11  and  C_12
REMARK    6  A    between atoms: N_14  and  C_15
REMARK    7  A    between atoms: C_19  and  C_20
REMARK    8  A    between atoms: C_31  and  C_32
REMARK                            x       y       z     vdW  Elec       q    Type
REMARK                         _______ _______ _______ _____ _____    ______ ____
ROOT
ATOM      1  C   UNL     1       2.066   7.566  19.404  0.00  0.00    +0.000 C 
ATOM      2  O   UNL     1       2.057   7.983  20.572  0.00  0.00    +0.000 OA
ATOM      3  N   UNL     1       1.911   8.369  18.286  0.00  0.00    +0.000 N 
ATOM      4  H   UNL     1       1.740   7.910  17.409  0.00  0.00    +0.000 HD
ENDROOT
BRANCH   1   9
ATOM      5  N   UNL     1       4.110   4.379  18.849  0.00  0.00    +0.000 NA
ATOM      6  C   UNL     1       3.493   3.561  19.905  0.00  0.00    +0.000 C 
ATOM      7  C   UNL     1       1.995   3.718  19.951  0.00  0.00    +0.000 C 
ATOM      8  C   UNL     1       1.586   5.177  20.152  0.00  0.00    +0.000 C 
ATOM      9  C   UNL     1       2.251   6.077  19.116  0.00  0.00    +0.000 C 
ATOM     10  C   UNL     1       3.748   5.803  19.029  0.00  0.00    +0.000 C 
BRANCH   5  11
ATOM     11  C   UNL     1       5.580   4.268  18.844  0.00  0.00    +0.000 C 
BRANCH  11  14
ATOM     12  N   UNL     1       6.724   4.788  15.429  0.00  0.00    +0.000 N 
ATOM     13  C   UNL     1       5.974   4.095  16.319  0.00  0.00    +0.000 A 
ATOM     14  C   UNL     1       6.168   4.697  17.557  0.00  0.00    +0.000 A 
ATOM     15  C   UNL     1       7.083   5.753  17.269  0.00  0.00    +0.000 A 
ATOM     16  C   UNL     1       7.661   6.744  18.221  0.00  0.00    +0.000 C 
ATOM     17  N   UNL     1       7.405   5.805  15.971  0.00  0.00    +0.000 NA
BRANCH  12  19
ATOM     18  C   UNL     1       5.596   3.888  13.443  0.00  0.00    +0.000 C 
ATOM     19  C   UNL     1       6.849   4.532  14.012  0.00  0.00    +0.000 C 
ENDBRANCH  12  19
ENDBRANCH  11  14
ENDBRANCH   5  11
ENDBRANCH   1   9
BRANCH   3  20
ATOM     20  C   UNL     1       1.650   9.776  18.324  0.00  0.00    +0.000 A 
ATOM     21  C   UNL     1       2.567  10.717  17.853  0.00  0.00    +0.000 A 
ATOM     22  C   UNL     1       2.300  12.073  17.998  0.00  0.00    +0.000 A 
ATOM     23  C   UNL     1       1.154  12.482  18.635  0.00  0.00    +0.000 A 
ATOM     24  C   UNL     1       0.253  11.539  19.137  0.00  0.00    +0.000 A 
ATOM     25  C   UNL     1       0.461  10.175  18.908  0.00  0.00    +0.000 A 
BRANCH  24  26
ATOM     26  C   UNL     1      -0.759  11.963  20.101  0.00  0.00    +0.000 A 
ATOM     27  C   UNL     1      -2.020  12.440  19.806  0.00  0.00    +0.000 A 
ATOM     28  C   UNL     1      -2.650  12.744  21.020  0.00  0.00    +0.000 A 
ATOM     29  C   UNL     1      -3.897  13.277  21.365  0.00  0.00    +0.000 A 
ATOM     30  C   UNL     1      -4.490  12.780  22.514  0.00  0.00    +0.000 A 
ATOM     31  C   UNL     1      -3.667  12.318  23.529  0.00  0.00    +0.000 A 
ATOM     32  C   UNL     1      -2.275  12.243  23.358  0.00  0.00    +0.000 A 
ATOM     33  C   UNL     1      -1.824  12.318  22.043  0.00  0.00    +0.000 A 
ATOM     34  N   UNL     1      -0.605  12.042  21.462  0.00  0.00    +0.000 N 
ATOM     35  H   UNL     1       0.231  11.791  21.980  0.00  0.00    +0.000 HD
ENDBRANCH  24  26
ENDBRANCH   3  20
TORSDOF 6
ENDMDL
MODEL 4
REMARK VINA RESULT:      -8.7      2.540      3.734
REMARK  Name = 
REMARK  8 active torsions:
REMARK  status: ('A' for Active; 'I' for Inactive)
REMARK    1  A    between atoms: C_1  and  C_2
REMARK    2  A    between atoms: C_2  and  N_3
REMARK    3  A    between atoms: C_5  and  C_6
REMARK    4  A    between atoms: C_6  and  N_7
REMARK    5  A    between atoms: C_11  and  C_12
REMARK    6  A    between atoms: N_14  and  C_15
REMARK    7  A    between atoms: C_19  and  C_20
REMARK    8  A    between atoms: C_31  and  C_32
REMARK                            x       y       z     vdW  Elec       q    Type
REMARK                         _______ _______ _______ _____ _____    ______ ____
ROOT
ATOM      1  C   UNL     1       1.989   7.670  19.593  0.00  0.00    +0.000 C 
ATOM      2  O   UNL     1       1.935   8.012  20.785  0.00  0.00    +0.000 OA
ATOM      3  N   UNL     1       1.889   8.545  18.524  0.00  0.00    +0.000 N 
ATOM      4  H   UNL     1       1.751   8.145  17.613  0.00  0.00    +0.000 HD
ENDROOT
BRANCH   1   9
ATOM      5  N   UNL     1       4.020   4.503  18.901  0.00  0.00    +0.000 NA
ATOM      6  C   UNL     1       3.364   3.626  19.883  0.00  0.00    +0.000 C 
ATOM      7  C   UNL     1       1.867   3.796  19.894  0.00  0.00    +0.000 C 
ATOM      8  C   UNL     1       1.465   5.244  20.175  0.00  0.00    +0.000 C 
ATOM      9  C   UNL     1       2.170   6.200  19.217  0.00  0.00    +0.000 C 
ATOM     10  C   UNL     1       3.665   5.916  19.159  0.00  0.00    +0.000 C 
BRANCH   5  11
ATOM     11  C   UNL     1       5.489   4.377  18.932  0.00  0.00    +0.000 C 
BRANCH  11  14
ATOM     12  N   UNL     1       6.666   4.946  15.537  0.00  0.00    +0.000 N 
ATOM     13  C   UNL     1       5.849   4.294  16.398  0.00  0.00    +0.000 A 
ATOM     14  C   UNL     1       6.114   4.805  17.663  0.00  0.00    +0.000 A 
ATOM     15  C   UNL     1       7.139   5.768  17.420  0.00  0.00    +0.000 A 
ATOM     16  C   UNL     1       7.828   6.638  18.416  0.00  0.00    +0.000 C 
ATOM     17  N   UNL     1       7.458   5.853  16.123  0.00  0.00    +0.000 NA
BRANCH  12  19
ATOM     18  C   UNL     1       5.673   3.816  13.597  0.00  0.00    +0.000 C 
ATOM     19  C   UNL     1       6.755   4.753  14.107  0.00  0.00    +0.000 C 
ENDBRANCH  12  19
ENDBRANCH  11  14
ENDBRANCH   5  11
ENDBRANCH   1   9
BRANCH   3  20
ATOM     20  C   UNL     1       1.642   9.951  18.641  0.00  0.00    +0.000 A 
ATOM     21  C   UNL     1       2.415  10.901  17.972  0.00  0.00    +0.000 A 
ATOM     22  C   UNL     1       2.188  12.254  18.194  0.00  0.00    +0.000 A 
ATOM     23  C   UNL     1       1.232  12.650  19.098  0.00  0.00    +0.000 A 
ATOM     24  C   UNL     1       0.483  11.697  19.793  0.00  0.00    +0.000 A 
ATOM     25  C   UNL     1       0.632  10.337  19.503  0.00  0.00    +0.000 A 
BRANCH  24  26
ATOM     26  C   UNL     1      -0.263  12.105  20.981  0.00  0.00    +0.000 A 
ATOM     27  C   UNL     1      -0.174  13.322  21.624  0.00  0.00    +0.000 A 
ATOM     28  C   UNL     1      -1.044  13.284  22.722  0.00  0.00    +0.000 A 
ATOM     29  C   UNL     1      -1.363  14.183  23.745  0.00  0.00    +0.000 A 
ATOM     30  C   UNL     1      -2.681  14.193  24.175  0.00  0.00    +0.000 A 
ATOM     31  C   UNL     1      -3.413  13.020  24.076  0.00  0.00    +0.000 A 
ATOM     32  C   UNL     1      -2.877  11.882  23.450  0.00  0.00    +0.000 A 
ATOM     33  C   UNL     1      -1.757  12.101  22.654  0.00  0.00    +0.000 A 
ATOM     34  N   UNL     1      -1.119  11.322  21.713  0.00  0.00    +0.000 N 
ATOM     35  H   UNL     1      -1.363  10.358  21.509  0.00  0.00    +0.000 HD
ENDBRANCH  24  26
ENDBRANCH   3  20
TORSDOF 6
ENDMDL
MODEL 5
REMARK VINA RESULT:      -8.7      1.628      2.419
REMARK  Name = 
REMARK  8 active torsions:
REMARK  status: ('A' for Active; 'I' for Inactive)
REMARK    1  A    between atoms: C_1  and  C_2
REMARK    2  A    between atoms: C_2  and  N_3
REMARK    3  A    between atoms: C_5  and  C_6
REMARK    4  A    between atoms: C_6  and  N_7
REMARK    5  A    between atoms: C_11  and  C_12
REMARK    6  A    between atoms: N_14  and  C_15
REMARK    7  A    between atoms: C_19  and  C_20
REMARK    8  A    between atoms: C_31  and  C_32
REMARK                            x       y       z     vdW  Elec       q    Type
REMARK                         _______ _______ _______ _____ _____    ______ ____
ROOT
ATOM      1  C   UNL     1       1.892   7.647  19.443  0.00  0.00    +0.000 C 
ATOM      2  O   UNL     1       1.817   8.076  20.605  0.00  0.00    +0.000 OA
ATOM      3  N   UNL     1       1.682   8.417  18.311  0.00  0.00    +0.000 N 
ATOM      4  H   UNL     1       1.576   7.933  17.437  0.00  0.00    +0.000 HD
ENDROOT
BRANCH   1   9
ATOM      5  N   UNL     1       4.250   4.693  18.853  0.00  0.00    +0.000 NA
ATOM      6  C   UNL     1       3.784   3.841  19.959  0.00  0.00    +0.000 C 
ATOM      7  C   UNL     1       2.282   3.832  20.081  0.00  0.00    +0.000 C 
ATOM      8  C   UNL     1       1.722   5.242  20.270  0.00  0.00    +0.000 C 
ATOM      9  C   UNL     1       2.228   6.180  19.179  0.00  0.00    +0.000 C 
ATOM     10  C   UNL     1       3.740   6.072  19.019  0.00  0.00    +0.000 C 
BRANCH   5  11
ATOM     11  C   UNL     1       5.721   4.746  18.771  0.00  0.00    +0.000 C 
BRANCH  11  14
ATOM     12  N   UNL     1       6.611   4.746  15.243  0.00  0.00    +0.000 N 
ATOM     13  C   UNL     1       5.969   4.171  16.288  0.00  0.00    +0.000 A 
ATOM     14  C   UNL     1       6.196   4.984  17.392  0.00  0.00    +0.000 A 
ATOM     15  C   UNL     1       7.014   6.029  16.867  0.00  0.00    +0.000 A 
ATOM     16  C   UNL     1       7.578   7.200  17.598  0.00  0.00    +0.000 C 
ATOM     17  N   UNL     1       7.250   5.880  15.559  0.00  0.00    +0.000 NA
BRANCH  12  19
ATOM     18  C   UNL     1       7.645   5.059  13.039  0.00  0.00    +0.000 C 
ATOM     19  C   UNL     1       6.665   4.261  13.882  0.00  0.00    +0.000 C 
ENDBRANCH  12  19
ENDBRANCH  11  14
ENDBRANCH   5  11
ENDBRANCH   1   9
BRANCH   3  20
ATOM     20  C   UNL     1       1.283   9.793  18.324  0.00  0.00    +0.000 A 
ATOM     21  C   UNL     1       2.197  10.832  18.506  0.00  0.00    +0.000 A 
ATOM     22  C   UNL     1       1.742  12.141  18.601  0.00  0.00    +0.000 A 
ATOM     23  C   UNL     1       0.394  12.404  18.552  0.00  0.00    +0.000 A 
ATOM     24  C   UNL     1      -0.522  11.360  18.404  0.00  0.00    +0.000 A 
ATOM     25  C   UNL     1      -0.071  10.051  18.206  0.00  0.00    +0.000 A 
BRANCH  24  26
ATOM     26  C   UNL     1      -1.931  11.600  18.702  0.00  0.00    +0.000 A 
ATOM     27  C   UNL     1      -2.428  12.386  19.723  0.00  0.00    +0.000 A 
ATOM     28  C   UNL     1      -3.827  12.325  19.658  0.00  0.00    +0.000 A 
ATOM     29  C   UNL     1      -4.863  12.872  20.423  0.00  0.00    +0.000 A 
ATOM     30  C   UNL     1      -6.005  13.256  19.738  0.00  0.00    +0.000 A 
ATOM     31  C   UNL     1      -6.332  12.578  18.575  0.00  0.00    +0.000 A 
ATOM     32  C   UNL     1      -5.472  11.606  18.035  0.00  0.00    +0.000 A 
ATOM     33  C   UNL     1      -4.167  11.621  18.518  0.00  0.00    +0.000 A 
ATOM     34  N   UNL     1      -3.006  11.022  18.077  0.00  0.00    +0.000 N 
ATOM     35  H   UNL     1      -2.961  10.365  17.305  0.00  0.00    +0.000 HD
ENDBRANCH  24  26
ENDBRANCH   3  20
TORSDOF 6
ENDMDL
MODEL 6
REMARK VINA RESULT:      -8.7      1.751      2.537
REMARK  Name = 
REMARK  8 active torsions:
REMARK  status: ('A' for Active; 'I' for Inactive)
REMARK    1  A    between atoms: C_1  and  C_2
REMARK    2  A    between atoms: C_2  and  N_3
REMARK    3  A    between atoms: C_5  and  C_6
REMARK    4  A    between atoms: C_6  and  N_7
REMARK    5  A    between atoms: C_11  and  C_12
REMARK    6  A    between atoms: N_14  and  C_15
REMARK    7  A    between atoms: C_19  and  C_20
REMARK    8  A    between atoms: C_31  and  C_32
REMARK                            x       y       z     vdW  Elec       q    Type
REMARK                         _______ _______ _______ _____ _____    ______ ____
ROOT
ATOM      1  C   UNL     1       3.016   7.121  18.395  0.00  0.00    +0.000 C 
ATOM      2  O   UNL     1       3.110   8.137  17.688  0.00  0.00    +0.000 OA
ATOM      3  N   UNL     1       2.294   7.055  19.575  0.00  0.00    +0.000 N 
ATOM      4  H   UNL     1       2.442   6.252  20.161  0.00  0.00    +0.000 HD
ENDROOT
BRANCH   1   9
ATOM      5  N   UNL     1       5.637   5.055  16.524  0.00  0.00    +0.000 NA
ATOM      6  C   UNL     1       6.253   4.409  17.693  0.00  0.00    +0.000 C 
ATOM      7  C   UNL     1       5.230   3.940  18.695  0.00  0.00    +0.000 C 
ATOM      8  C   UNL     1       4.341   5.087  19.174  0.00  0.00    +0.000 C 
ATOM      9  C   UNL     1       3.725   5.829  17.992  0.00  0.00    +0.000 C 
ATOM     10  C   UNL     1       4.784   6.185  16.955  0.00  0.00    +0.000 C 
BRANCH   5  11
ATOM     11  C   UNL     1       6.642   5.565  15.573  0.00  0.00    +0.000 C 
BRANCH  11  14
ATOM     12  N   UNL     1       5.979   3.529  12.631  0.00  0.00    +0.000 N 
ATOM     13  C   UNL     1       5.643   3.919  13.884  0.00  0.00    +0.000 A 
ATOM     14  C   UNL     1       6.578   4.873  14.268  0.00  0.00    +0.000 A 
ATOM     15  C   UNL     1       7.444   4.958  13.138  0.00  0.00    +0.000 A 
ATOM     16  C   UNL     1       8.646   5.825  12.972  0.00  0.00    +0.000 C 
ATOM     17  N   UNL     1       7.064   4.144  12.145  0.00  0.00    +0.000 NA
BRANCH  12  19
ATOM     18  C   UNL     1       4.063   3.127  11.150  0.00  0.00    +0.000 C 
ATOM     19  C   UNL     1       5.300   2.548  11.815  0.00  0.00    +0.000 C 
ENDBRANCH  12  19
ENDBRANCH  11  14
ENDBRANCH   5  11
ENDBRANCH   1   9
BRANCH   3  20
ATOM     20  C   UNL     1       1.615   8.162  20.179  0.00  0.00    +0.000 A 
ATOM     21  C   UNL     1       1.663   8.405  21.553  0.00  0.00    +0.000 A 
ATOM     22  C   UNL     1       0.911   9.439  22.096  0.00  0.00    +0.000 A 
ATOM     23  C   UNL     1       0.097  10.194  21.286  0.00  0.00    +0.000 A 
ATOM     24  C   UNL     1       0.023   9.927  19.917  0.00  0.00    +0.000 A 
ATOM     25  C   UNL     1       0.851   8.956  19.344  0.00  0.00    +0.000 A 
BRANCH  24  26
ATOM     26  C   UNL     1      -1.081  10.483  19.141  0.00  0.00    +0.000 A 
ATOM     27  C   UNL     1      -1.357  10.227  17.813  0.00  0.00    +0.000 A 
ATOM     28  C   UNL     1      -2.489  10.977  17.466  0.00  0.00    +0.000 A 
ATOM     29  C   UNL     1      -3.215  11.157  16.283  0.00  0.00    +0.000 A 
ATOM     30  C   UNL     1      -4.587  11.302  16.411  0.00  0.00    +0.000 A 
ATOM     31  C   UNL     1      -5.081  11.862  17.579  0.00  0.00    +0.000 A 
ATOM     32  C   UNL     1      -4.230  12.166  18.655  0.00  0.00    +0.000 A 
ATOM     33  C   UNL     1      -2.973  11.569  18.618  0.00  0.00    +0.000 A 
ATOM     34  N   UNL     1      -1.987  11.421  19.569  0.00  0.00    +0.000 N 
ATOM     35  H   UNL     1      -2.020  11.834  20.495  0.00  0.00    +0.000 HD
ENDBRANCH  24  26
ENDBRANCH   3  20
TORSDOF 6
ENDMDL
MODEL 7
REMARK VINA RESULT:      -8.6      1.717      9.475
REMARK  Name = 
REMARK  8 active torsions:
REMARK  status: ('A' for Active; 'I' for Inactive)
REMARK    1  A    between atoms: C_1  and  C_2
REMARK    2  A    between atoms: C_2  and  N_3
REMARK    3  A    between atoms: C_5  and  C_6
REMARK    4  A    between atoms: C_6  and  N_7
REMARK    5  A    between atoms: C_11  and  C_12
REMARK    6  A    between atoms: N_14  and  C_15
REMARK    7  A    between atoms: C_19  and  C_20
REMARK    8  A    between atoms: C_31  and  C_32
REMARK                            x       y       z     vdW  Elec       q    Type
REMARK                         _______ _______ _______ _____ _____    ______ ____
ROOT
ATOM      1  C   UNL     1       1.602   7.756  20.623  0.00  0.00    +0.000 C 
ATOM      2  O   UNL     1       1.970   7.972  19.458  0.00  0.00    +0.000 OA
ATOM      3  N   UNL     1       1.478   6.495  21.182  0.00  0.00    +0.000 N 
ATOM      4  H   UNL     1       0.991   6.425  22.058  0.00  0.00    +0.000 HD
ENDROOT
BRANCH   1   9
ATOM      5  N   UNL     1       0.425  11.310  21.412  0.00  0.00    +0.000 NA
ATOM      6  C   UNL     1      -0.711  10.957  22.278  0.00  0.00    +0.000 C 
ATOM      7  C   UNL     1      -0.376   9.845  23.238  0.00  0.00    +0.000 C 
ATOM      8  C   UNL     1       0.099   8.590  22.506  0.00  0.00    +0.000 C 
ATOM      9  C   UNL     1       1.240   8.917  21.548  0.00  0.00    +0.000 C 
ATOM     10  C   UNL     1       0.896  10.117  20.673  0.00  0.00    +0.000 C 
BRANCH   5  11
ATOM     11  C   UNL     1       0.078  12.358  20.435  0.00  0.00    +0.000 C 
BRANCH  11  14
ATOM     12  N   UNL     1      -2.797  11.383  18.428  0.00  0.00    +0.000 N 
ATOM     13  C   UNL     1      -1.474  11.283  18.704  0.00  0.00    +0.000 A 
ATOM     14  C   UNL     1      -1.231  12.112  19.793  0.00  0.00    +0.000 A 
ATOM     15  C   UNL     1      -2.513  12.671  20.073  0.00  0.00    +0.000 A 
ATOM     16  C   UNL     1      -2.870  13.645  21.145  0.00  0.00    +0.000 C 
ATOM     17  N   UNL     1      -3.459  12.212  19.244  0.00  0.00    +0.000 NA
BRANCH  12  19
ATOM     18  C   UNL     1      -2.587   9.917  16.470  0.00  0.00    +0.000 C 
ATOM     19  C   UNL     1      -3.519  10.705  17.374  0.00  0.00    +0.000 C 
ENDBRANCH  12  19
ENDBRANCH  11  14
ENDBRANCH   5  11
ENDBRANCH   1   9
BRANCH   3  20
ATOM     20  C   UNL     1       1.691   5.266  20.478  0.00  0.00    +0.000 A 
ATOM     21  C   UNL     1       1.224   4.042  20.959  0.00  0.00    +0.000 A 
ATOM     22  C   UNL     1       1.538   2.870  20.281  0.00  0.00    +0.000 A 
ATOM     23  C   UNL     1       2.337   2.917  19.164  0.00  0.00    +0.000 A 
ATOM     24  C   UNL     1       2.832   4.140  18.704  0.00  0.00    +0.000 A 
ATOM     25  C   UNL     1       2.440   5.334  19.318  0.00  0.00    +0.000 A 
BRANCH  24  26
ATOM     26  C   UNL     1       3.940   4.147  17.753  0.00  0.00    +0.000 A 
ATOM     27  C   UNL     1       3.836   4.116  16.376  0.00  0.00    +0.000 A 
ATOM     28  C   UNL     1       5.137   4.119  15.856  0.00  0.00    +0.000 A 
ATOM     29  C   UNL     1       5.670   4.068  14.563  0.00  0.00    +0.000 A 
ATOM     30  C   UNL     1       6.821   4.805  14.335  0.00  0.00    +0.000 A 
ATOM     31  C   UNL     1       7.687   5.015  15.397  0.00  0.00    +0.000 A 
ATOM     32  C   UNL     1       7.356   4.596  16.697  0.00  0.00    +0.000 A 
ATOM     33  C   UNL     1       6.014   4.294  16.910  0.00  0.00    +0.000 A 
ATOM     34  N   UNL     1       5.277   4.100  18.058  0.00  0.00    +0.000 N 
ATOM     35  H   UNL     1       5.671   4.078  18.993  0.00  0.00    +0.000 HD
ENDBRANCH  24  26
ENDBRANCH   3  20
TORSDOF 6
ENDMDL
MODEL 8
REMARK VINA RESULT:      -8.5      2.743      3.383
REMARK  Name = 
REMARK  8 active torsions:
REMARK  status: ('A' for Active; 'I' for Inactive)
REMARK    1  A    between atoms: C_1  and  C_2
REMARK    2  A    between atoms: C_2  and  N_3
REMARK    3  A    between atoms: C_5  and  C_6
REMARK    4  A    between atoms: C_6  and  N_7
REMARK    5  A    between atoms: C_11  and  C_12
REMARK    6  A    between atoms: N_14  and  C_15
REMARK    7  A    between atoms: C_19  and  C_20
REMARK    8  A    between atoms: C_31  and  C_32
REMARK                            x       y       z     vdW  Elec       q    Type
REMARK                         _______ _______ _______ _____ _____    ______ ____
ROOT
ATOM      1  C   UNL     1       1.850   7.387  19.753  0.00  0.00    +0.000 C 
ATOM      2  O   UNL     1       2.217   8.345  19.055  0.00  0.00    +0.000 OA
ATOM      3  N   UNL     1       1.065   7.502  20.888  0.00  0.00    +0.000 N 
ATOM      4  H   UNL     1       0.990   6.694  21.480  0.00  0.00    +0.000 HD
ENDROOT
BRANCH   1   9
ATOM      5  N   UNL     1       4.369   4.598  19.032  0.00  0.00    +0.000 NA
ATOM      6  C   UNL     1       3.903   3.641  20.049  0.00  0.00    +0.000 C 
ATOM      7  C   UNL     1       2.400   3.554  20.109  0.00  0.00    +0.000 C 
ATOM      8  C   UNL     1       1.767   4.918  20.384  0.00  0.00    +0.000 C 
ATOM      9  C   UNL     1       2.267   5.962  19.391  0.00  0.00    +0.000 C 
ATOM     10  C   UNL     1       3.787   5.935  19.284  0.00  0.00    +0.000 C 
BRANCH   5  11
ATOM     11  C   UNL     1       5.838   4.724  19.015  0.00  0.00    +0.000 C 
BRANCH  11  14
ATOM     12  N   UNL     1       6.815   5.016  15.522  0.00  0.00    +0.000 N 
ATOM     13  C   UNL     1       6.133   4.367  16.496  0.00  0.00    +0.000 A 
ATOM     14  C   UNL     1       6.353   5.072  17.674  0.00  0.00    +0.000 A 
ATOM     15  C   UNL     1       7.209   6.137  17.264  0.00  0.00    +0.000 A 
ATOM     16  C   UNL     1       7.784   7.222  18.109  0.00  0.00    +0.000 C 
ATOM     17  N   UNL     1       7.474   6.099  15.952  0.00  0.00    +0.000 NA
BRANCH  12  19
ATOM     18  C   UNL     1       5.652   3.903  13.669  0.00  0.00    +0.000 C 
ATOM     19  C   UNL     1       6.891   4.653  14.124  0.00  0.00    +0.000 C 
ENDBRANCH  12  19
ENDBRANCH  11  14
ENDBRANCH   5  11
ENDBRANCH   1   9
BRANCH   3  20
ATOM     20  C   UNL     1       0.624   8.742  21.452  0.00  0.00    +0.000 A 
ATOM     21  C   UNL     1      -0.312   8.799  22.486  0.00  0.00    +0.000 A 
ATOM     22  C   UNL     1      -0.771  10.032  22.932  0.00  0.00    +0.000 A 
ATOM     23  C   UNL     1      -0.331  11.187  22.332  0.00  0.00    +0.000 A 
ATOM     24  C   UNL     1       0.580  11.127  21.274  0.00  0.00    +0.000 A 
ATOM     25  C   UNL     1       1.125   9.899  20.884  0.00  0.00    +0.000 A 
BRANCH  24  26
ATOM     26  C   UNL     1       0.768  12.301  20.427  0.00  0.00    +0.000 A 
ATOM     27  C   UNL     1      -0.080  13.387  20.336  0.00  0.00    +0.000 A 
ATOM     28  C   UNL     1       0.468  14.272  19.398  0.00  0.00    +0.000 A 
ATOM     29  C   UNL     1       0.066  15.502  18.866  0.00  0.00    +0.000 A 
ATOM     30  C   UNL     1       1.068  16.419  18.591  0.00  0.00    +0.000 A 
ATOM     31  C   UNL     1       2.325  15.937  18.260  0.00  0.00    +0.000 A 
ATOM     32  C   UNL     1       2.612  14.563  18.314  0.00  0.00    +0.000 A 
ATOM     33  C   UNL     1       1.710  13.785  19.033  0.00  0.00    +0.000 A 
ATOM     34  N   UNL     1       1.771  12.494  19.512  0.00  0.00    +0.000 N 
ATOM     35  H   UNL     1       2.532  11.850  19.321  0.00  0.00    +0.000 HD
ENDBRANCH  24  26
ENDBRANCH   3  20
TORSDOF 6
ENDMDL
MODEL 9
REMARK VINA RESULT:      -8.4      3.829      4.875
REMARK  Name = 
REMARK  8 active torsions:
REMARK  status: ('A' for Active; 'I' for Inactive)
REMARK    1  A    between atoms: C_1  and  C_2
REMARK    2  A    between atoms: C_2  and  N_3
REMARK    3  A    between atoms: C_5  and  C_6
REMARK    4  A    between atoms: C_6  and  N_7
REMARK    5  A    between atoms: C_11  and  C_12
REMARK    6  A    between atoms: N_14  and  C_15
REMARK    7  A    between atoms: C_19  and  C_20
REMARK    8  A    between atoms: C_31  and  C_32
REMARK                            x       y       z     vdW  Elec       q    Type
REMARK                         _______ _______ _______ _____ _____    ______ ____
ROOT
ATOM      1  C   UNL     1       1.776   7.838  19.568  0.00  0.00    +0.000 C 
ATOM      2  O   UNL     1       1.883   8.230  20.740  0.00  0.00    +0.000 OA
ATOM      3  N   UNL     1       1.321   8.621  18.520  0.00  0.00    +0.000 N 
ATOM      4  H   UNL     1       1.091   8.153  17.661  0.00  0.00    +0.000 HD
ENDROOT
BRANCH   1   9
ATOM      5  N   UNL     1       4.207   4.949  18.945  0.00  0.00    +0.000 NA
ATOM      6  C   UNL     1       3.626   3.991  19.899  0.00  0.00    +0.000 C 
ATOM      7  C   UNL     1       2.120   3.976  19.851  0.00  0.00    +0.000 C 
ATOM      8  C   UNL     1       1.533   5.361  20.120  0.00  0.00    +0.000 C 
ATOM      9  C   UNL     1       2.151   6.404  19.194  0.00  0.00    +0.000 C 
ATOM     10  C   UNL     1       3.671   6.306  19.194  0.00  0.00    +0.000 C 
BRANCH   5  11
ATOM     11  C   UNL     1       5.678   5.004  19.035  0.00  0.00    +0.000 C 
BRANCH  11  14
ATOM     12  N   UNL     1       6.884   5.192  15.607  0.00  0.00    +0.000 N 
ATOM     13  C   UNL     1       6.078   4.622  16.534  0.00  0.00    +0.000 A 
ATOM     14  C   UNL     1       6.306   5.295  17.729  0.00  0.00    +0.000 A 
ATOM     15  C   UNL     1       7.300   6.257  17.379  0.00  0.00    +0.000 A 
ATOM     16  C   UNL     1       7.944   7.267  18.266  0.00  0.00    +0.000 C 
ATOM     17  N   UNL     1       7.636   6.192  16.085  0.00  0.00    +0.000 NA
BRANCH  12  19
ATOM     18  C   UNL     1       5.910   3.857  13.793  0.00  0.00    +0.000 C 
ATOM     19  C   UNL     1       7.000   4.827  14.213  0.00  0.00    +0.000 C 
ENDBRANCH  12  19
ENDBRANCH  11  14
ENDBRANCH   5  11
ENDBRANCH   1   9
BRANCH   3  20
ATOM     20  C   UNL     1       0.846   9.965  18.654  0.00  0.00    +0.000 A 
ATOM     21  C   UNL     1      -0.504  10.294  18.525  0.00  0.00    +0.000 A 
ATOM     22  C   UNL     1      -0.897  11.627  18.574  0.00  0.00    +0.000 A 
ATOM     23  C   UNL     1       0.048  12.615  18.710  0.00  0.00    +0.000 A 
ATOM     24  C   UNL     1       1.403  12.286  18.803  0.00  0.00    +0.000 A 
ATOM     25  C   UNL     1       1.799  10.946  18.857  0.00  0.00    +0.000 A 
BRANCH  24  26
ATOM     26  C   UNL     1       2.405  13.328  18.594  0.00  0.00    +0.000 A 
ATOM     27  C   UNL     1       2.287  14.658  18.944  0.00  0.00    +0.000 A 
ATOM     28  C   UNL     1       3.466  15.303  18.548  0.00  0.00    +0.000 A 
ATOM     29  C   UNL     1       3.918  16.626  18.603  0.00  0.00    +0.000 A 
ATOM     30  C   UNL     1       5.270  16.812  18.845  0.00  0.00    +0.000 A 
ATOM     31  C   UNL     1       6.153  15.830  18.423  0.00  0.00    +0.000 A 
ATOM     32  C   UNL     1       5.687  14.624  17.871  0.00  0.00    +0.000 A 
ATOM     33  C   UNL     1       4.344  14.338  18.093  0.00  0.00    +0.000 A 
ATOM     34  N   UNL     1       3.602  13.186  17.940  0.00  0.00    +0.000 N 
ATOM     35  H   UNL     1       3.958  12.327  17.534  0.00  0.00    +0.000 HD
ENDBRANCH  24  26
ENDBRANCH   3  20
TORSDOF 6
ENDMDL
