MODEL 1
REMARK VINA RESULT:      -7.7      0.000      0.000
REMARK  Name = 
REMARK  4 active torsions:
REMARK  status: ('A' for Active; 'I' for Inactive)
REMARK    1  A    between atoms: C_1  and  O_2
REMARK    2  A    between atoms: O_2  and  C_3
REMARK    3  A    between atoms: C_6  and  N_7
REMARK    4  A    between atoms: C_13  and  C_14
REMARK                            x       y       z     vdW  Elec       q    Type
REMARK                         _______ _______ _______ _____ _____    ______ ____
ROOT
ATOM      1  N   UNL     1       2.953   7.129  18.483  0.00  0.00    +0.000 N 
ATOM      2  C   UNL     1       2.243   6.803  19.749  0.00  0.00    +0.000 C 
ATOM      3  C   UNL     1       1.691   8.115  20.444  0.00  0.00    +0.000 C 
ATOM      4  N   UNL     1       0.945   8.954  19.465  0.00  0.00    +0.000 N 
ATOM      5  C   UNL     1       0.192  10.039  19.932  0.00  0.00    +0.000 A 
ATOM      6  C   UNL     1      -0.292  10.935  18.983  0.00  0.00    +0.000 A 
ATOM      7  C   UNL     1      -0.644  12.209  19.374  0.00  0.00    +0.000 A 
ATOM      8  C   UNL     1      -0.124  13.349  18.545  0.00  0.00    +0.000 C 
ATOM      9  C   UNL     1      -1.094  12.399  20.669  0.00  0.00    +0.000 A 
ATOM     10  C   UNL     1      -1.895  13.508  21.000  0.00  0.00    +0.000 A 
ATOM     11  C   UNL     1      -2.326  13.663  22.306  0.00  0.00    +0.000 A 
ATOM     12  C   UNL     1      -1.919  12.753  23.274  0.00  0.00    +0.000 A 
ATOM     13  C   UNL     1      -1.132  11.652  22.922  0.00  0.00    +0.000 A 
ATOM     14  C   UNL     1      -0.737  11.420  21.601  0.00  0.00    +0.000 A 
ATOM     15  N   UNL     1      -0.028  10.294  21.247  0.00  0.00    +0.000 NA
ATOM     16  C   UNL     1       1.793   9.238  18.277  0.00  0.00    +0.000 C 
ATOM     17  C   UNL     1       2.112   7.922  17.576  0.00  0.00    +0.000 C 
ENDROOT
BRANCH   1  21
ATOM     18  C   UNL     1       5.640   4.746  16.270  0.00  0.00    +0.000 A 
ATOM     19  C   UNL     1       4.735   4.139  17.145  0.00  0.00    +0.000 A 
ATOM     20  C   UNL     1       3.844   4.906  17.917  0.00  0.00    +0.000 A 
ATOM     21  C   UNL     1       3.837   6.297  17.824  0.00  0.00    +0.000 A 
ATOM     22  C   UNL     1       4.806   6.884  16.984  0.00  0.00    +0.000 A 
ATOM     23  C   UNL     1       5.689   6.130  16.211  0.00  0.00    +0.000 A 
BRANCH  18  25
ATOM     24  C   UNL     1       6.190   3.868  14.142  0.00  0.00    +0.000 C 
ATOM     25  O   UNL     1       6.442   3.905  15.546  0.00  0.00    +0.000 OA
ENDBRANCH  18  25
ENDBRANCH   1  21
TORSDOF 2
ENDMDL
MODEL 2
REMARK VINA RESULT:      -7.7      3.217      9.608
REMARK  Name = 
REMARK  4 active torsions:
REMARK  status: ('A' for Active; 'I' for Inactive)
REMARK    1  A    between atoms: C_1  and  O_2
REMARK    2  A    between atoms: O_2  and  C_3
REMARK    3  A    between atoms: C_6  and  N_7
REMARK    4  A    between atoms: C_13  and  C_14
REMARK                            x       y       z     vdW  Elec       q    Type
REMARK                         _______ _______ _______ _____ _____    ______ ____
ROOT
ATOM      1  N   UNL     1       1.045   9.630  20.183  0.00  0.00    +0.000 N 
ATOM      2  C   UNL     1       1.252   9.902  18.736  0.00  0.00    +0.000 C 
ATOM      3  C   UNL     1       2.433   9.019  18.157  0.00  0.00    +0.000 C 
ATOM      4  N   UNL     1       2.261   7.591  18.542  0.00  0.00    +0.000 N 
ATOM      5  C   UNL     1       3.074   6.620  17.944  0.00  0.00    +0.000 A 
ATOM      6  C   UNL     1       3.053   5.342  18.495  0.00  0.00    +0.000 A 
ATOM      7  C   UNL     1       4.106   4.486  18.258  0.00  0.00    +0.000 A 
ATOM      8  C   UNL     1       4.687   3.770  19.444  0.00  0.00    +0.000 C 
ATOM      9  C   UNL     1       4.811   4.621  17.075  0.00  0.00    +0.000 A 
ATOM     10  C   UNL     1       5.549   3.546  16.546  0.00  0.00    +0.000 A 
ATOM     11  C   UNL     1       6.240   3.721  15.360  0.00  0.00    +0.000 A 
ATOM     12  C   UNL     1       6.235   4.965  14.741  0.00  0.00    +0.000 A 
ATOM     13  C   UNL     1       5.486   6.017  15.276  0.00  0.00    +0.000 A 
ATOM     14  C   UNL     1       4.716   5.860  16.433  0.00  0.00    +0.000 A 
ATOM     15  N   UNL     1       3.920   6.875  16.913  0.00  0.00    +0.000 NA
ATOM     16  C   UNL     1       2.112   7.469  20.018  0.00  0.00    +0.000 C 
ATOM     17  C   UNL     1       0.843   8.198  20.445  0.00  0.00    +0.000 C 
ENDROOT
BRANCH   1  21
ATOM     18  C   UNL     1      -1.217  11.944  22.890  0.00  0.00    +0.000 A 
ATOM     19  C   UNL     1      -0.538  12.571  21.841  0.00  0.00    +0.000 A 
ATOM     20  C   UNL     1       0.245  11.832  20.937  0.00  0.00    +0.000 A 
ATOM     21  C   UNL     1       0.361  10.448  21.061  0.00  0.00    +0.000 A 
ATOM     22  C   UNL     1      -0.279   9.853  22.168  0.00  0.00    +0.000 A 
ATOM     23  C   UNL     1      -1.063  10.578  23.065  0.00  0.00    +0.000 A 
BRANCH  18  25
ATOM     24  C   UNL     1      -3.371  12.466  23.719  0.00  0.00    +0.000 C 
ATOM     25  O   UNL     1      -1.974  12.753  23.693  0.00  0.00    +0.000 OA
ENDBRANCH  18  25
ENDBRANCH   1  21
TORSDOF 2
ENDMDL
MODEL 3
REMARK VINA RESULT:      -7.7      3.354      9.576
REMARK  Name = 
REMARK  4 active torsions:
REMARK  status: ('A' for Active; 'I' for Inactive)
REMARK    1  A    between atoms: C_1  and  O_2
REMARK    2  A    between atoms: O_2  and  C_3
REMARK    3  A    between atoms: C_6  and  N_7
REMARK    4  A    between atoms: C_13  and  C_14
REMARK                            x       y       z     vdW  Elec       q    Type
REMARK                         _______ _______ _______ _____ _____    ______ ____
ROOT
ATOM      1  N   UNL     1       0.843  10.427  20.467  0.00  0.00    +0.000 N 
ATOM      2  C   UNL     1       1.197  10.712  19.051  0.00  0.00    +0.000 C 
ATOM      3  C   UNL     1       2.303   9.704  18.530  0.00  0.00    +0.000 C 
ATOM      4  N   UNL     1       1.926   8.299  18.846  0.00  0.00    +0.000 N 
ATOM      5  C   UNL     1       2.658   7.251  18.275  0.00  0.00    +0.000 A 
ATOM      6  C   UNL     1       2.436   5.970  18.773  0.00  0.00    +0.000 A 
ATOM      7  C   UNL     1       3.391   4.996  18.584  0.00  0.00    +0.000 A 
ATOM      8  C   UNL     1       3.784   4.179  19.783  0.00  0.00    +0.000 C 
ATOM      9  C   UNL     1       4.200   5.075  17.464  0.00  0.00    +0.000 A 
ATOM     10  C   UNL     1       4.840   3.931  16.953  0.00  0.00    +0.000 A 
ATOM     11  C   UNL     1       5.640   4.051  15.830  0.00  0.00    +0.000 A 
ATOM     12  C   UNL     1       5.837   5.303  15.260  0.00  0.00    +0.000 A 
ATOM     13  C   UNL     1       5.184   6.425  15.777  0.00  0.00    +0.000 A 
ATOM     14  C   UNL     1       4.310   6.333  16.865  0.00  0.00    +0.000 A 
ATOM     15  N   UNL     1       3.609   7.427  17.322  0.00  0.00    +0.000 NA
ATOM     16  C   UNL     1       1.646   8.155  20.300  0.00  0.00    +0.000 C 
ATOM     17  C   UNL     1       0.446   9.025  20.657  0.00  0.00    +0.000 C 
ENDROOT
BRANCH   1  21
ATOM     18  C   UNL     1      -1.337  12.944  23.057  0.00  0.00    +0.000 A 
ATOM     19  C   UNL     1      -0.397  13.497  22.182  0.00  0.00    +0.000 A 
ATOM     20  C   UNL     1       0.365  12.684  21.324  0.00  0.00    +0.000 A 
ATOM     21  C   UNL     1       0.197  11.300  21.321  0.00  0.00    +0.000 A 
ATOM     22  C   UNL     1      -0.709  10.766  22.261  0.00  0.00    +0.000 A 
ATOM     23  C   UNL     1      -1.472  11.566  23.111  0.00  0.00    +0.000 A 
BRANCH  18  25
ATOM     24  C   UNL     1      -1.418  15.091  24.050  0.00  0.00    +0.000 C 
ATOM     25  O   UNL     1      -2.044  13.828  23.827  0.00  0.00    +0.000 OA
ENDBRANCH  18  25
ENDBRANCH   1  21
TORSDOF 2
ENDMDL
MODEL 4
REMARK VINA RESULT:      -7.6      0.334      1.008
REMARK  Name = 
REMARK  4 active torsions:
REMARK  status: ('A' for Active; 'I' for Inactive)
REMARK    1  A    between atoms: C_1  and  O_2
REMARK    2  A    between atoms: O_2  and  C_3
REMARK    3  A    between atoms: C_6  and  N_7
REMARK    4  A    between atoms: C_13  and  C_14
REMARK                            x       y       z     vdW  Elec       q    Type
REMARK                         _______ _______ _______ _____ _____    ______ ____
ROOT
ATOM      1  N   UNL     1       2.778   7.388  18.457  0.00  0.00    +0.000 N 
ATOM      2  C   UNL     1       2.107   7.069  19.745  0.00  0.00    +0.000 C 
ATOM      3  C   UNL     1       1.575   8.385  20.449  0.00  0.00    +0.000 C 
ATOM      4  N   UNL     1       0.801   9.220  19.489  0.00  0.00    +0.000 N 
ATOM      5  C   UNL     1       0.063  10.307  19.972  0.00  0.00    +0.000 A 
ATOM      6  C   UNL     1      -0.450  11.199  19.033  0.00  0.00    +0.000 A 
ATOM      7  C   UNL     1      -0.790  12.474  19.428  0.00  0.00    +0.000 A 
ATOM      8  C   UNL     1      -0.294  13.609  18.577  0.00  0.00    +0.000 C 
ATOM      9  C   UNL     1      -1.200  12.672  20.735  0.00  0.00    +0.000 A 
ATOM     10  C   UNL     1      -1.991  13.782  21.083  0.00  0.00    +0.000 A 
ATOM     11  C   UNL     1      -2.382  13.945  22.401  0.00  0.00    +0.000 A 
ATOM     12  C   UNL     1      -1.947  13.040  23.361  0.00  0.00    +0.000 A 
ATOM     13  C   UNL     1      -1.171  11.937  22.992  0.00  0.00    +0.000 A 
ATOM     14  C   UNL     1      -0.816  11.698  21.661  0.00  0.00    +0.000 A 
ATOM     15  N   UNL     1      -0.118  10.570  21.292  0.00  0.00    +0.000 NA
ATOM     16  C   UNL     1       1.613   9.496  18.274  0.00  0.00    +0.000 C 
ATOM     17  C   UNL     1       1.910   8.176  17.571  0.00  0.00    +0.000 C 
ENDROOT
BRANCH   1  21
ATOM     18  C   UNL     1       5.395   4.669  16.572  0.00  0.00    +0.000 A 
ATOM     19  C   UNL     1       5.591   6.043  16.412  0.00  0.00    +0.000 A 
ATOM     20  C   UNL     1       4.722   6.977  17.005  0.00  0.00    +0.000 A 
ATOM     21  C   UNL     1       3.641   6.552  17.776  0.00  0.00    +0.000 A 
ATOM     22  C   UNL     1       3.430   5.160  17.864  0.00  0.00    +0.000 A 
ATOM     23  C   UNL     1       4.290   4.229  17.283  0.00  0.00    +0.000 A 
BRANCH  18  25
ATOM     24  C   UNL     1       6.393   3.938  14.554  0.00  0.00    +0.000 C 
ATOM     25  O   UNL     1       6.316   3.850  15.976  0.00  0.00    +0.000 OA
ENDBRANCH  18  25
ENDBRANCH   1  21
TORSDOF 2
ENDMDL
MODEL 5
REMARK VINA RESULT:      -7.6      3.364      9.530
REMARK  Name = 
REMARK  4 active torsions:
REMARK  status: ('A' for Active; 'I' for Inactive)
REMARK    1  A    between atoms: C_1  and  O_2
REMARK    2  A    between atoms: O_2  and  C_3
REMARK    3  A    between atoms: C_6  and  N_7
REMARK    4  A    between atoms: C_13  and  C_14
REMARK                            x       y       z     vdW  Elec       q    Type
REMARK                         _______ _______ _______ _____ _____    ______ ____
ROOT
ATOM      1  N   UNL     1       0.742  10.563  20.455  0.00  0.00    +0.000 N 
ATOM      2  C   UNL     1       1.114  10.828  19.039  0.00  0.00    +0.000 C 
ATOM      3  C   UNL     1       2.222   9.811  18.544  0.00  0.00    +0.000 C 
ATOM      4  N   UNL     1       1.837   8.410  18.875  0.00  0.00    +0.000 N 
ATOM      5  C   UNL     1       2.572   7.353  18.326  0.00  0.00    +0.000 A 
ATOM      6  C   UNL     1       2.339   6.080  18.838  0.00  0.00    +0.000 A 
ATOM      7  C   UNL     1       3.294   5.100  18.673  0.00  0.00    +0.000 A 
ATOM      8  C   UNL     1       3.670   4.297  19.887  0.00  0.00    +0.000 C 
ATOM      9  C   UNL     1       4.115   5.162  17.561  0.00  0.00    +0.000 A 
ATOM     10  C   UNL     1       4.757   4.009  17.072  0.00  0.00    +0.000 A 
ATOM     11  C   UNL     1       5.570   4.111  15.957  0.00  0.00    +0.000 A 
ATOM     12  C   UNL     1       5.778   5.355  15.373  0.00  0.00    +0.000 A 
ATOM     13  C   UNL     1       5.122   6.486  15.867  0.00  0.00    +0.000 A 
ATOM     14  C   UNL     1       4.236   6.412  16.947  0.00  0.00    +0.000 A 
ATOM     15  N   UNL     1       3.534   7.513  17.381  0.00  0.00    +0.000 NA
ATOM     16  C   UNL     1       1.540   8.287  20.327  0.00  0.00    +0.000 C 
ATOM     17  C   UNL     1       0.338   9.165  20.660  0.00  0.00    +0.000 C 
ENDROOT
BRANCH   1  21
ATOM     18  C   UNL     1      -1.031  13.401  23.024  0.00  0.00    +0.000 A 
ATOM     19  C   UNL     1      -1.431  12.063  23.088  0.00  0.00    +0.000 A 
ATOM     20  C   UNL     1      -0.879  11.097  22.228  0.00  0.00    +0.000 A 
ATOM     21  C   UNL     1       0.090  11.450  21.290  0.00  0.00    +0.000 A 
ATOM     22  C   UNL     1       0.424  12.817  21.203  0.00  0.00    +0.000 A 
ATOM     23  C   UNL     1      -0.115  13.781  22.055  0.00  0.00    +0.000 A 
BRANCH  18  25
ATOM     24  C   UNL     1      -2.990  14.013  24.202  0.00  0.00    +0.000 C 
ATOM     25  O   UNL     1      -1.611  14.252  23.926  0.00  0.00    +0.000 OA
ENDBRANCH  18  25
ENDBRANCH   1  21
TORSDOF 2
ENDMDL
MODEL 6
REMARK VINA RESULT:      -6.9      1.706      3.014
REMARK  Name = 
REMARK  4 active torsions:
REMARK  status: ('A' for Active; 'I' for Inactive)
REMARK    1  A    between atoms: C_1  and  O_2
REMARK    2  A    between atoms: O_2  and  C_3
REMARK    3  A    between atoms: C_6  and  N_7
REMARK    4  A    between atoms: C_13  and  C_14
REMARK                            x       y       z     vdW  Elec       q    Type
REMARK                         _______ _______ _______ _____ _____    ______ ____
ROOT
ATOM      1  N   UNL     1       2.155   7.230  18.496  0.00  0.00    +0.000 N 
ATOM      2  C   UNL     1       2.472   8.448  17.704  0.00  0.00    +0.000 C 
ATOM      3  C   UNL     1       1.508   9.644  18.093  0.00  0.00    +0.000 C 
ATOM      4  N   UNL     1       1.449   9.813  19.571  0.00  0.00    +0.000 N 
ATOM      5  C   UNL     1       0.831  10.952  20.103  0.00  0.00    +0.000 A 
ATOM      6  C   UNL     1       0.583  10.963  21.473  0.00  0.00    +0.000 A 
ATOM      7  C   UNL     1      -0.376  11.812  21.980  0.00  0.00    +0.000 A 
ATOM      8  C   UNL     1      -1.372  11.225  22.941  0.00  0.00    +0.000 C 
ATOM      9  C   UNL     1      -0.625  12.998  21.312  0.00  0.00    +0.000 A 
ATOM     10  C   UNL     1      -1.203  14.094  21.978  0.00  0.00    +0.000 A 
ATOM     11  C   UNL     1      -1.435  15.265  21.276  0.00  0.00    +0.000 A 
ATOM     12  C   UNL     1      -1.141  15.319  19.919  0.00  0.00    +0.000 A 
ATOM     13  C   UNL     1      -0.557  14.222  19.279  0.00  0.00    +0.000 A 
ATOM     14  C   UNL     1      -0.240  13.048  19.969  0.00  0.00    +0.000 A 
ATOM     15  N   UNL     1       0.406  12.000  19.352  0.00  0.00    +0.000 NA
ATOM     16  C   UNL     1       1.077   8.529  20.223  0.00  0.00    +0.000 C 
ATOM     17  C   UNL     1       2.166   7.501  19.940  0.00  0.00    +0.000 C 
ENDROOT
BRANCH   1  21
ATOM     18  C   UNL     1       3.166   3.217  17.674  0.00  0.00    +0.000 A 
ATOM     19  C   UNL     1       4.171   4.187  17.736  0.00  0.00    +0.000 A 
ATOM     20  C   UNL     1       3.866   5.537  17.982  0.00  0.00    +0.000 A 
ATOM     21  C   UNL     1       2.547   5.944  18.177  0.00  0.00    +0.000 A 
ATOM     22  C   UNL     1       1.549   4.957  18.042  0.00  0.00    +0.000 A 
ATOM     23  C   UNL     1       1.844   3.615  17.803  0.00  0.00    +0.000 A 
BRANCH  18  25
ATOM     24  C   UNL     1       3.828   1.156  18.630  0.00  0.00    +0.000 C 
ATOM     25  O   UNL     1       3.576   1.930  17.457  0.00  0.00    +0.000 OA
ENDBRANCH  18  25
ENDBRANCH   1  21
TORSDOF 2
ENDMDL
MODEL 7
REMARK VINA RESULT:      -6.7      4.168      9.784
REMARK  Name = 
REMARK  4 active torsions:
REMARK  status: ('A' for Active; 'I' for Inactive)
REMARK    1  A    between atoms: C_1  and  O_2
REMARK    2  A    between atoms: O_2  and  C_3
REMARK    3  A    between atoms: C_6  and  N_7
REMARK    4  A    between atoms: C_13  and  C_14
REMARK                            x       y       z     vdW  Elec       q    Type
REMARK                         _______ _______ _______ _____ _____    ______ ____
ROOT
ATOM      1  N   UNL     1      -0.903  11.145  22.408  0.00  0.00    +0.000 N 
ATOM      2  C   UNL     1      -0.693   9.975  23.302  0.00  0.00    +0.000 C 
ATOM      3  C   UNL     1      -0.328   8.681  22.465  0.00  0.00    +0.000 C 
ATOM      4  N   UNL     1       0.762   8.973  21.492  0.00  0.00    +0.000 N 
ATOM      5  C   UNL     1       1.377   7.911  20.819  0.00  0.00    +0.000 A 
ATOM      6  C   UNL     1       2.216   8.231  19.754  0.00  0.00    +0.000 A 
ATOM      7  C   UNL     1       2.495   7.274  18.803  0.00  0.00    +0.000 A 
ATOM      8  C   UNL     1       2.366   7.681  17.362  0.00  0.00    +0.000 C 
ATOM      9  C   UNL     1       2.485   5.943  19.185  0.00  0.00    +0.000 A 
ATOM     10  C   UNL     1       3.194   4.976  18.450  0.00  0.00    +0.000 A 
ATOM     11  C   UNL     1       3.161   3.655  18.864  0.00  0.00    +0.000 A 
ATOM     12  C   UNL     1       2.388   3.303  19.964  0.00  0.00    +0.000 A 
ATOM     13  C   UNL     1       1.699   4.281  20.686  0.00  0.00    +0.000 A 
ATOM     14  C   UNL     1       1.767   5.635  20.344  0.00  0.00    +0.000 A 
ATOM     15  N   UNL     1       1.150   6.604  21.104  0.00  0.00    +0.000 NA
ATOM     16  C   UNL     1       0.393  10.134  20.638  0.00  0.00    +0.000 C 
ATOM     17  C   UNL     1       0.248  11.368  21.523  0.00  0.00    +0.000 C 
ENDROOT
BRANCH   1  21
ATOM     18  C   UNL     1      -3.121  14.603  23.371  0.00  0.00    +0.000 A 
ATOM     19  C   UNL     1      -1.776  14.721  23.007  0.00  0.00    +0.000 A 
ATOM     20  C   UNL     1      -1.002  13.586  22.705  0.00  0.00    +0.000 A 
ATOM     21  C   UNL     1      -1.559  12.310  22.756  0.00  0.00    +0.000 A 
ATOM     22  C   UNL     1      -2.898  12.217  23.192  0.00  0.00    +0.000 A 
ATOM     23  C   UNL     1      -3.674  13.337  23.488  0.00  0.00    +0.000 A 
BRANCH  18  25
ATOM     24  C   UNL     1      -3.652  16.298  24.935  0.00  0.00    +0.000 C 
ATOM     25  O   UNL     1      -3.789  15.772  23.615  0.00  0.00    +0.000 OA
ENDBRANCH  18  25
ENDBRANCH   1  21
TORSDOF 2
ENDMDL
MODEL 8
REMARK VINA RESULT:      -6.7      1.995      3.066
REMARK  Name = 
REMARK  4 active torsions:
REMARK  status: ('A' for Active; 'I' for Inactive)
REMARK    1  A    between atoms: C_1  and  O_2
REMARK    2  A    between atoms: O_2  and  C_3
REMARK    3  A    between atoms: C_6  and  N_7
REMARK    4  A    between atoms: C_13  and  C_14
REMARK                            x       y       z     vdW  Elec       q    Type
REMARK                         _______ _______ _______ _____ _____    ______ ____
ROOT
ATOM      1  N   UNL     1       2.128   7.146  18.659  0.00  0.00    +0.000 N 
ATOM      2  C   UNL     1       2.579   8.283  17.813  0.00  0.00    +0.000 C 
ATOM      3  C   UNL     1       1.677   9.562  18.055  0.00  0.00    +0.000 C 
ATOM      4  N   UNL     1       1.536   9.839  19.512  0.00  0.00    +0.000 N 
ATOM      5  C   UNL     1       0.966  11.049  19.924  0.00  0.00    +0.000 A 
ATOM      6  C   UNL     1       0.632  11.173  21.270  0.00  0.00    +0.000 A 
ATOM      7  C   UNL     1      -0.296  12.115  21.653  0.00  0.00    +0.000 A 
ATOM      8  C   UNL     1      -1.389  11.664  22.580  0.00  0.00    +0.000 C 
ATOM      9  C   UNL     1      -0.419  13.266  20.893  0.00  0.00    +0.000 A 
ATOM     10  C   UNL     1      -0.961  14.441  21.444  0.00  0.00    +0.000 A 
ATOM     11  C   UNL     1      -1.066  15.572  20.653  0.00  0.00    +0.000 A 
ATOM     12  C   UNL     1      -0.682  15.511  19.319  0.00  0.00    +0.000 A 
ATOM     13  C   UNL     1      -0.136  14.337  18.794  0.00  0.00    +0.000 A 
ATOM     14  C   UNL     1       0.054  13.196  19.580  0.00  0.00    +0.000 A 
ATOM     15  N   UNL     1       0.663  12.067  19.078  0.00  0.00    +0.000 NA
ATOM     16  C   UNL     1       1.034   8.630  20.220  0.00  0.00    +0.000 C 
ATOM     17  C   UNL     1       2.066   7.516  20.080  0.00  0.00    +0.000 C 
ENDROOT
BRANCH   1  21
ATOM     18  C   UNL     1       3.353   3.164  17.996  0.00  0.00    +0.000 A 
ATOM     19  C   UNL     1       2.095   3.584  17.555  0.00  0.00    +0.000 A 
ATOM     20  C   UNL     1       1.646   4.897  17.782  0.00  0.00    +0.000 A 
ATOM     21  C   UNL     1       2.449   5.818  18.453  0.00  0.00    +0.000 A 
ATOM     22  C   UNL     1       3.684   5.346  18.945  0.00  0.00    +0.000 A 
ATOM     23  C   UNL     1       4.139   4.048  18.719  0.00  0.00    +0.000 A 
BRANCH  18  25
ATOM     24  C   UNL     1       3.996   1.038  18.815  0.00  0.00    +0.000 C 
ATOM     25  O   UNL     1       3.702   1.875  17.697  0.00  0.00    +0.000 OA
ENDBRANCH  18  25
ENDBRANCH   1  21
TORSDOF 2
ENDMDL
MODEL 9
REMARK VINA RESULT:      -6.7      2.388      3.504
REMARK  Name = 
REMARK  4 active torsions:
REMARK  status: ('A' for Active; 'I' for Inactive)
REMARK    1  A    between atoms: C_1  and  O_2
REMARK    2  A    between atoms: O_2  and  C_3
REMARK    3  A    between atoms: C_6  and  N_7
REMARK    4  A    between atoms: C_13  and  C_14
REMARK                            x       y       z     vdW  Elec       q    Type
REMARK                         _______ _______ _______ _____ _____    ______ ____
ROOT
ATOM      1  N   UNL     1       1.700   7.361  19.470  0.00  0.00    +0.000 N 
ATOM      2  C   UNL     1       2.280   8.379  18.553  0.00  0.00    +0.000 C 
ATOM      3  C   UNL     1       1.440   9.722  18.593  0.00  0.00    +0.000 C 
ATOM      4  N   UNL     1       1.206  10.155  19.998  0.00  0.00    +0.000 N 
ATOM      5  C   UNL     1       0.680  11.430  20.240  0.00  0.00    +0.000 A 
ATOM      6  C   UNL     1       0.254  11.710  21.536  0.00  0.00    +0.000 A 
ATOM      7  C   UNL     1      -0.643  12.734  21.746  0.00  0.00    +0.000 A 
ATOM      8  C   UNL     1      -1.827  12.438  22.622  0.00  0.00    +0.000 C 
ATOM      9  C   UNL     1      -0.639  13.804  20.868  0.00  0.00    +0.000 A 
ATOM     10  C   UNL     1      -1.150  15.057  21.253  0.00  0.00    +0.000 A 
ATOM     11  C   UNL     1      -1.127  16.103  20.347  0.00  0.00    +0.000 A 
ATOM     12  C   UNL     1      -0.649  15.884  19.061  0.00  0.00    +0.000 A 
ATOM     13  C   UNL     1      -0.136  14.634  18.702  0.00  0.00    +0.000 A 
ATOM     14  C   UNL     1      -0.073  13.573  19.611  0.00  0.00    +0.000 A 
ATOM     15  N   UNL     1       0.504  12.369  19.275  0.00  0.00    +0.000 NA
ATOM     16  C   UNL     1       0.582   9.054  20.780  0.00  0.00    +0.000 C 
ATOM     17  C   UNL     1       1.553   7.880  20.837  0.00  0.00    +0.000 C 
ENDROOT
BRANCH   1  21
ATOM     18  C   UNL     1       2.347   3.208  19.112  0.00  0.00    +0.000 A 
ATOM     19  C   UNL     1       2.207   3.781  20.379  0.00  0.00    +0.000 A 
ATOM     20  C   UNL     1       2.016   5.165  20.535  0.00  0.00    +0.000 A 
ATOM     21  C   UNL     1       1.956   6.005  19.423  0.00  0.00    +0.000 A 
ATOM     22  C   UNL     1       2.167   5.408  18.163  0.00  0.00    +0.000 A 
ATOM     23  C   UNL     1       2.352   4.035  18.000  0.00  0.00    +0.000 A 
BRANCH  18  25
ATOM     24  C   UNL     1       3.691   1.377  18.446  0.00  0.00    +0.000 C 
ATOM     25  O   UNL     1       2.499   1.848  19.073  0.00  0.00    +0.000 OA
ENDBRANCH  18  25
ENDBRANCH   1  21
TORSDOF 2
ENDMDL
