MODEL 1
REMARK VINA RESULT:      -7.1      0.000      0.000
REMARK  Name = 
REMARK  13 active torsions:
REMARK  status: ('A' for Active; 'I' for Inactive)
REMARK    1  A    between atoms: C_1  and  C_2
REMARK    2  A    between atoms: N_4  and  C_5
REMARK    3  A    between atoms: C_7  and  N_8
REMARK    4  A    between atoms: C_11  and  O_12
REMARK    5  A    between atoms: O_12  and  P_13
REMARK    6  A    between atoms: P_13  and  O_15
REMARK    7  A    between atoms: P_13  and  O_16
REMARK    8  A    between atoms: O_16  and  P_17
REMARK    9  A    between atoms: P_17  and  O_19
REMARK   10  A    between atoms: P_17  and  N_20
REMARK   11  A    between atoms: N_20  and  P_21
REMARK   12  A    between atoms: P_21  and  O_23
REMARK   13  A    between atoms: P_21  and  O_24
REMARK                            x       y       z     vdW  Elec       q    Type
REMARK                         _______ _______ _______ _____ _____    ______ ____
ROOT
ATOM      1  C   UNL     1       4.161   3.362  19.901  0.00  0.00    +0.000 C 
ATOM      2  C   UNL     1       3.462   2.166  19.268  0.00  0.00    +0.000 C 
ATOM      3  C   UNL     1       3.570   2.478  17.779  0.00  0.00    +0.000 C 
ATOM      4  C   UNL     1       4.990   3.168  17.710  0.00  0.00    +0.000 C 
ATOM      5  O   UNL     1       5.269   3.646  19.036  0.00  0.00    +0.000 OA
ENDROOT
BRANCH   1   9
ATOM      6  C   UNL     1       2.465   7.903  18.604  0.00  0.00    +0.000 C 
ATOM      7  C   UNL     1       2.484   6.686  19.475  0.00  0.00    +0.000 A 
ATOM      8  C   UNL     1       3.306   5.648  19.304  0.00  0.00    +0.000 A 
ATOM      9  N   UNL     1       3.286   4.530  20.119  0.00  0.00    +0.000 N 
ATOM     10  C   UNL     1       2.407   4.452  21.188  0.00  0.00    +0.000 A 
ATOM     11  O   UNL     1       2.327   3.465  21.932  0.00  0.00    +0.000 OA
ATOM     12  N   UNL     1       1.595   5.538  21.402  0.00  0.00    +0.000 N 
ATOM     13  C   UNL     1       1.528   6.639  20.605  0.00  0.00    +0.000 A 
ATOM     14  O   UNL     1       0.719   7.543  20.818  0.00  0.00    +0.000 OA
ATOM     15  H   UNL     1       0.955   5.478  22.175  0.00  0.00    +0.000 HD
ENDBRANCH   1   9
BRANCH   3  16
ATOM     16  N   UNL     1       2.444   3.356  17.368  0.00  0.00    +0.000 NA
ATOM     17  N   UNL     1       1.329   3.111  17.891  0.00  0.00    +0.000 NA
ATOM     18  N   UNL     1       0.303   2.874  18.319  0.00  0.00    +0.000 NA
ENDBRANCH   3  16
BRANCH   4  19
ATOM     19  O   UNL     1       5.227   4.294  16.876  0.00  0.00    +0.000 OA
BRANCH  19  20
ATOM     20  P   UNL     1       6.548   5.206  17.049  0.00  0.00    +0.000 P 
ATOM     21  O   UNL     1       6.367   6.316  18.030  0.00  0.00    +0.000 OA
BRANCH  20  22
ATOM     22  O   UNL     1       7.446   4.050  17.744  0.00  0.00    +0.000 OA
ATOM     23  H   UNL     1       7.907   4.422  18.531  0.00  0.00    +0.000 HD
ENDBRANCH  20  22
BRANCH  20  24
ATOM     24  O   UNL     1       7.476   5.556  15.653  0.00  0.00    +0.000 OA
BRANCH  24  25
ATOM     25  P   UNL     1       6.427   4.911  14.437  0.00  0.00    +0.000 P 
ATOM     26  O   UNL     1       7.465   5.351  13.400  0.00  0.00    +0.000 OA
BRANCH  25  27
ATOM     27  O   UNL     1       6.842   3.404  14.895  0.00  0.00    +0.000 OA
ATOM     28  H   UNL     1       7.618   3.395  15.484  0.00  0.00    +0.000 HD
ENDBRANCH  25  27
BRANCH  25  29
ATOM     29  N   UNL     1       5.347   4.249  13.186  0.00  0.00    +0.000 NA
ATOM     30  H   UNL     1       5.250   4.963  12.479  0.00  0.00    +0.000 HD
BRANCH  29  31
ATOM     31  P   UNL     1       6.186   2.948  12.307  0.00  0.00    +0.000 P 
ATOM     32  O   UNL     1       4.923   2.651  11.502  0.00  0.00    +0.000 OA
BRANCH  31  33
ATOM     33  O   UNL     1       6.979   4.100  11.470  0.00  0.00    +0.000 OA
ATOM     34  H   UNL     1       7.796   3.684  11.129  0.00  0.00    +0.000 HD
ENDBRANCH  31  33
BRANCH  31  35
ATOM     35  O   UNL     1       7.003   1.685  11.452  0.00  0.00    +0.000 OA
ATOM     36  H   UNL     1       7.923   1.973  11.312  0.00  0.00    +0.000 HD
ENDBRANCH  31  35
ENDBRANCH  29  31
ENDBRANCH  25  29
ENDBRANCH  24  25
ENDBRANCH  20  24
ENDBRANCH  19  20
ENDBRANCH   4  19
TORSDOF 12
ENDMDL
MODEL 2
REMARK VINA RESULT:      -6.9      4.407      7.708
REMARK  Name = 
REMARK  13 active torsions:
REMARK  status: ('A' for Active; 'I' for Inactive)
REMARK    1  A    between atoms: C_1  and  C_2
REMARK    2  A    between atoms: N_4  and  C_5
REMARK    3  A    between atoms: C_7  and  N_8
REMARK    4  A    between atoms: C_11  and  O_12
REMARK    5  A    between atoms: O_12  and  P_13
REMARK    6  A    between atoms: P_13  and  O_15
REMARK    7  A    between atoms: P_13  and  O_16
REMARK    8  A    between atoms: O_16  and  P_17
REMARK    9  A    between atoms: P_17  and  O_19
REMARK   10  A    between atoms: P_17  and  N_20
REMARK   11  A    between atoms: N_20  and  P_21
REMARK   12  A    between atoms: P_21  and  O_23
REMARK   13  A    between atoms: P_21  and  O_24
REMARK                            x       y       z     vdW  Elec       q    Type
REMARK                         _______ _______ _______ _____ _____    ______ ____
ROOT
ATOM      1  C   UNL     1       2.332   5.134  17.828  0.00  0.00    +0.000 C 
ATOM      2  C   UNL     1       1.563   4.154  18.704  0.00  0.00    +0.000 C 
ATOM      3  C   UNL     1       1.502   4.889  20.039  0.00  0.00    +0.000 C 
ATOM      4  C   UNL     1       1.354   6.388  19.560  0.00  0.00    +0.000 C 
ATOM      5  O   UNL     1       1.855   6.430  18.214  0.00  0.00    +0.000 OA
ENDROOT
BRANCH   1   9
ATOM      6  C   UNL     1       6.929   7.141  17.952  0.00  0.00    +0.000 C 
ATOM      7  C   UNL     1       5.977   5.986  17.992  0.00  0.00    +0.000 A 
ATOM      8  C   UNL     1       4.653   6.096  17.863  0.00  0.00    +0.000 A 
ATOM      9  N   UNL     1       3.799   5.009  17.923  0.00  0.00    +0.000 N 
ATOM     10  C   UNL     1       4.300   3.728  18.096  0.00  0.00    +0.000 A 
ATOM     11  O   UNL     1       3.580   2.723  18.184  0.00  0.00    +0.000 OA
ATOM     12  N   UNL     1       5.664   3.601  18.177  0.00  0.00    +0.000 N 
ATOM     13  C   UNL     1       6.550   4.634  18.182  0.00  0.00    +0.000 A 
ATOM     14  O   UNL     1       7.758   4.449  18.334  0.00  0.00    +0.000 OA
ATOM     15  H   UNL     1       6.024   2.672  18.308  0.00  0.00    +0.000 HD
ENDBRANCH   1   9
BRANCH   3  16
ATOM     16  N   UNL     1       2.739   4.617  20.817  0.00  0.00    +0.000 NA
ATOM     17  N   UNL     1       2.810   3.493  21.373  0.00  0.00    +0.000 NA
ATOM     18  N   UNL     1       2.871   2.499  21.920  0.00  0.00    +0.000 NA
ENDBRANCH   3  16
BRANCH   4  19
ATOM     19  O   UNL     1       2.033   7.447  20.219  0.00  0.00    +0.000 OA
BRANCH  19  20
ATOM     20  P   UNL     1       1.229   8.699  20.848  0.00  0.00    +0.000 P 
ATOM     21  O   UNL     1      -0.205   8.393  21.124  0.00  0.00    +0.000 OA
BRANCH  20  22
ATOM     22  O   UNL     1       2.031   8.707  22.256  0.00  0.00    +0.000 OA
ATOM     23  H   UNL     1       2.546   9.543  22.335  0.00  0.00    +0.000 HD
ENDBRANCH  20  22
BRANCH  20  24
ATOM     24  O   UNL     1       1.583  10.266  20.254  0.00  0.00    +0.000 OA
BRANCH  24  25
ATOM     25  P   UNL     1       0.500  10.318  18.905  0.00  0.00    +0.000 P 
ATOM     26  O   UNL     1       1.027  11.726  18.619  0.00  0.00    +0.000 OA
BRANCH  25  27
ATOM     27  O   UNL     1       1.472   9.288  18.101  0.00  0.00    +0.000 OA
ATOM     28  H   UNL     1       2.363   9.656  17.954  0.00  0.00    +0.000 HD
ENDBRANCH  25  27
BRANCH  25  29
ATOM     29  N   UNL     1      -0.615  10.370  17.519  0.00  0.00    +0.000 NA
ATOM     30  H   UNL     1      -0.969   9.432  17.395  0.00  0.00    +0.000 HD
BRANCH  29  31
ATOM     31  P   UNL     1      -2.079  11.276  17.970  0.00  0.00    +0.000 P 
ATOM     32  O   UNL     1      -1.723  11.154  19.450  0.00  0.00    +0.000 OA
BRANCH  31  33
ATOM     33  O   UNL     1      -1.335  12.630  17.451  0.00  0.00    +0.000 OA
ATOM     34  H   UNL     1      -1.554  13.333  18.094  0.00  0.00    +0.000 HD
ENDBRANCH  31  33
BRANCH  31  35
ATOM     35  O   UNL     1      -3.502  12.159  18.407  0.00  0.00    +0.000 OA
ATOM     36  H   UNL     1      -3.214  12.999  18.808  0.00  0.00    +0.000 HD
ENDBRANCH  31  35
ENDBRANCH  29  31
ENDBRANCH  25  29
ENDBRANCH  24  25
ENDBRANCH  20  24
ENDBRANCH  19  20
ENDBRANCH   4  19
TORSDOF 12
ENDMDL
MODEL 3
REMARK VINA RESULT:      -6.7      4.028      8.453
REMARK  Name = 
REMARK  13 active torsions:
REMARK  status: ('A' for Active; 'I' for Inactive)
REMARK    1  A    between atoms: C_1  and  C_2
REMARK    2  A    between atoms: N_4  and  C_5
REMARK    3  A    between atoms: C_7  and  N_8
REMARK    4  A    between atoms: C_11  and  O_12
REMARK    5  A    between atoms: O_12  and  P_13
REMARK    6  A    between atoms: P_13  and  O_15
REMARK    7  A    between atoms: P_13  and  O_16
REMARK    8  A    between atoms: O_16  and  P_17
REMARK    9  A    between atoms: P_17  and  O_19
REMARK   10  A    between atoms: P_17  and  N_20
REMARK   11  A    between atoms: N_20  and  P_21
REMARK   12  A    between atoms: P_21  and  O_23
REMARK   13  A    between atoms: P_21  and  O_24
REMARK                            x       y       z     vdW  Elec       q    Type
REMARK                         _______ _______ _______ _____ _____    ______ ____
ROOT
ATOM      1  C   UNL     1       1.683   3.972  18.410  0.00  0.00    +0.000 C 
ATOM      2  C   UNL     1       1.620   2.945  19.533  0.00  0.00    +0.000 C 
ATOM      3  C   UNL     1       1.966   3.783  20.760  0.00  0.00    +0.000 C 
ATOM      4  C   UNL     1       1.277   5.158  20.399  0.00  0.00    +0.000 C 
ATOM      5  O   UNL     1       1.126   5.168  18.970  0.00  0.00    +0.000 OA
ENDROOT
BRANCH   1   9
ATOM      6  C   UNL     1       5.536   6.926  17.144  0.00  0.00    +0.000 C 
ATOM      7  C   UNL     1       4.859   5.596  17.264  0.00  0.00    +0.000 A 
ATOM      8  C   UNL     1       3.622   5.419  17.733  0.00  0.00    +0.000 A 
ATOM      9  N   UNL     1       3.032   4.173  17.848  0.00  0.00    +0.000 N 
ATOM     10  C   UNL     1       3.710   3.032  17.446  0.00  0.00    +0.000 A 
ATOM     11  O   UNL     1       3.241   1.890  17.551  0.00  0.00    +0.000 OA
ATOM     12  N   UNL     1       4.963   3.211  16.914  0.00  0.00    +0.000 N 
ATOM     13  C   UNL     1       5.617   4.401  16.827  0.00  0.00    +0.000 A 
ATOM     14  O   UNL     1       6.773   4.475  16.407  0.00  0.00    +0.000 OA
ATOM     15  H   UNL     1       5.454   2.383  16.627  0.00  0.00    +0.000 HD
ENDBRANCH   1   9
BRANCH   3  16
ATOM     16  N   UNL     1       3.443   3.862  20.912  0.00  0.00    +0.000 NA
ATOM     17  N   UNL     1       4.073   2.784  20.778  0.00  0.00    +0.000 NA
ATOM     18  N   UNL     1       4.656   1.811  20.706  0.00  0.00    +0.000 NA
ENDBRANCH   3  16
BRANCH   4  19
ATOM     19  O   UNL     1       1.900   6.400  20.694  0.00  0.00    +0.000 OA
BRANCH  19  20
ATOM     20  P   UNL     1       1.043   7.763  20.816  0.00  0.00    +0.000 P 
ATOM     21  O   UNL     1      -0.343   7.539  21.321  0.00  0.00    +0.000 OA
BRANCH  20  22
ATOM     22  O   UNL     1       1.929   8.396  22.016  0.00  0.00    +0.000 OA
ATOM     23  H   UNL     1       2.877   8.417  21.749  0.00  0.00    +0.000 HD
ENDBRANCH  20  22
BRANCH  20  24
ATOM     24  O   UNL     1       1.237   8.950  19.597  0.00  0.00    +0.000 OA
BRANCH  24  25
ATOM     25  P   UNL     1       0.951  10.378  20.532  0.00  0.00    +0.000 P 
ATOM     26  O   UNL     1       1.316  11.189  19.286  0.00  0.00    +0.000 OA
BRANCH  25  27
ATOM     27  O   UNL     1      -0.651  10.098  20.447  0.00  0.00    +0.000 OA
ATOM     28  H   UNL     1      -0.984  10.114  19.531  0.00  0.00    +0.000 HD
ENDBRANCH  25  27
BRANCH  25  29
ATOM     29  N   UNL     1       0.657  11.846  21.495  0.00  0.00    +0.000 NA
ATOM     30  H   UNL     1       0.406  12.575  20.844  0.00  0.00    +0.000 HD
BRANCH  29  31
ATOM     31  P   UNL     1      -0.837  11.644  22.441  0.00  0.00    +0.000 P 
ATOM     32  O   UNL     1      -0.192  10.526  23.258  0.00  0.00    +0.000 OA
BRANCH  31  33
ATOM     33  O   UNL     1      -0.465  13.026  23.221  0.00  0.00    +0.000 OA
ATOM     34  H   UNL     1      -0.217  13.676  22.533  0.00  0.00    +0.000 HD
ENDBRANCH  31  33
BRANCH  31  35
ATOM     35  O   UNL     1      -2.289  11.450  23.362  0.00  0.00    +0.000 OA
ATOM     36  H   UNL     1      -2.092  10.840  24.096  0.00  0.00    +0.000 HD
ENDBRANCH  31  35
ENDBRANCH  29  31
ENDBRANCH  25  29
ENDBRANCH  24  25
ENDBRANCH  20  24
ENDBRANCH  19  20
ENDBRANCH   4  19
TORSDOF 12
ENDMDL
MODEL 4
REMARK VINA RESULT:      -6.6      3.727      6.978
REMARK  Name = 
REMARK  13 active torsions:
REMARK  status: ('A' for Active; 'I' for Inactive)
REMARK    1  A    between atoms: C_1  and  C_2
REMARK    2  A    between atoms: N_4  and  C_5
REMARK    3  A    between atoms: C_7  and  N_8
REMARK    4  A    between atoms: C_11  and  O_12
REMARK    5  A    between atoms: O_12  and  P_13
REMARK    6  A    between atoms: P_13  and  O_15
REMARK    7  A    between atoms: P_13  and  O_16
REMARK    8  A    between atoms: O_16  and  P_17
REMARK    9  A    between atoms: P_17  and  O_19
REMARK   10  A    between atoms: P_17  and  N_20
REMARK   11  A    between atoms: N_20  and  P_21
REMARK   12  A    between atoms: P_21  and  O_23
REMARK   13  A    between atoms: P_21  and  O_24
REMARK                            x       y       z     vdW  Elec       q    Type
REMARK                         _______ _______ _______ _____ _____    ______ ____
ROOT
ATOM      1  C   UNL     1       6.687   4.130  17.588  0.00  0.00    +0.000 C 
ATOM      2  C   UNL     1       7.735   5.019  18.244  0.00  0.00    +0.000 C 
ATOM      3  C   UNL     1       7.002   6.352  18.365  0.00  0.00    +0.000 C 
ATOM      4  C   UNL     1       5.529   5.868  18.669  0.00  0.00    +0.000 C 
ATOM      5  O   UNL     1       5.444   4.516  18.189  0.00  0.00    +0.000 OA
ENDROOT
BRANCH   1   9
ATOM      6  C   UNL     1       8.552   5.776  13.230  0.00  0.00    +0.000 C 
ATOM      7  C   UNL     1       7.575   4.994  14.051  0.00  0.00    +0.000 A 
ATOM      8  C   UNL     1       7.571   4.957  15.386  0.00  0.00    +0.000 A 
ATOM      9  N   UNL     1       6.663   4.209  16.115  0.00  0.00    +0.000 N 
ATOM     10  C   UNL     1       5.682   3.470  15.473  0.00  0.00    +0.000 A 
ATOM     11  O   UNL     1       4.862   2.762  16.074  0.00  0.00    +0.000 OA
ATOM     12  N   UNL     1       5.647   3.544  14.102  0.00  0.00    +0.000 N 
ATOM     13  C   UNL     1       6.544   4.215  13.329  0.00  0.00    +0.000 A 
ATOM     14  O   UNL     1       6.494   4.174  12.099  0.00  0.00    +0.000 OA
ATOM     15  H   UNL     1       4.937   3.004  13.639  0.00  0.00    +0.000 HD
ENDBRANCH   1   9
BRANCH   3  16
ATOM     16  N   UNL     1       7.144   7.117  17.098  0.00  0.00    +0.000 NA
ATOM     17  N   UNL     1       7.656   8.260  17.194  0.00  0.00    +0.000 NA
ATOM     18  N   UNL     1       8.074   9.314  17.268  0.00  0.00    +0.000 NA
ENDBRANCH   3  16
BRANCH   4  19
ATOM     19  O   UNL     1       4.403   6.515  18.094  0.00  0.00    +0.000 OA
BRANCH  19  20
ATOM     20  P   UNL     1       2.925   6.352  18.725  0.00  0.00    +0.000 P 
ATOM     21  O   UNL     1       1.970   7.396  18.253  0.00  0.00    +0.000 OA
BRANCH  20  22
ATOM     22  O   UNL     1       2.583   4.963  17.964  0.00  0.00    +0.000 OA
ATOM     23  H   UNL     1       1.887   5.124  17.285  0.00  0.00    +0.000 HD
ENDBRANCH  20  22
BRANCH  20  24
ATOM     24  O   UNL     1       2.797   5.874  20.365  0.00  0.00    +0.000 OA
BRANCH  24  25
ATOM     25  P   UNL     1       2.212   4.258  20.152  0.00  0.00    +0.000 P 
ATOM     26  O   UNL     1       2.567   4.006  21.620  0.00  0.00    +0.000 OA
BRANCH  25  27
ATOM     27  O   UNL     1       0.685   4.826  20.137  0.00  0.00    +0.000 OA
ATOM     28  H   UNL     1       0.030   4.124  19.969  0.00  0.00    +0.000 HD
ENDBRANCH  25  27
BRANCH  25  29
ATOM     29  N   UNL     1       1.611   2.597  19.932  0.00  0.00    +0.000 NA
ATOM     30  H   UNL     1       0.855   2.648  19.265  0.00  0.00    +0.000 HD
BRANCH  29  31
ATOM     31  P   UNL     1       2.830   1.638  19.059  0.00  0.00    +0.000 P 
ATOM     32  O   UNL     1       2.306   2.154  17.720  0.00  0.00    +0.000 OA
BRANCH  31  33
ATOM     33  O   UNL     1       3.948   2.722  19.539  0.00  0.00    +0.000 OA
ATOM     34  H   UNL     1       4.648   2.721  18.855  0.00  0.00    +0.000 HD
ENDBRANCH  31  33
BRANCH  31  35
ATOM     35  O   UNL     1       4.016   0.705  18.211  0.00  0.00    +0.000 OA
ATOM     36  H   UNL     1       3.541   0.059  17.659  0.00  0.00    +0.000 HD
ENDBRANCH  31  35
ENDBRANCH  29  31
ENDBRANCH  25  29
ENDBRANCH  24  25
ENDBRANCH  20  24
ENDBRANCH  19  20
ENDBRANCH   4  19
TORSDOF 12
ENDMDL
MODEL 5
REMARK VINA RESULT:      -6.5     10.132     13.402
REMARK  Name = 
REMARK  13 active torsions:
REMARK  status: ('A' for Active; 'I' for Inactive)
REMARK    1  A    between atoms: C_1  and  C_2
REMARK    2  A    between atoms: N_4  and  C_5
REMARK    3  A    between atoms: C_7  and  N_8
REMARK    4  A    between atoms: C_11  and  O_12
REMARK    5  A    between atoms: O_12  and  P_13
REMARK    6  A    between atoms: P_13  and  O_15
REMARK    7  A    between atoms: P_13  and  O_16
REMARK    8  A    between atoms: O_16  and  P_17
REMARK    9  A    between atoms: P_17  and  O_19
REMARK   10  A    between atoms: P_17  and  N_20
REMARK   11  A    between atoms: N_20  and  P_21
REMARK   12  A    between atoms: P_21  and  O_23
REMARK   13  A    between atoms: P_21  and  O_24
REMARK                            x       y       z     vdW  Elec       q    Type
REMARK                         _______ _______ _______ _____ _____    ______ ____
ROOT
ATOM      1  C   UNL     1      -6.036  13.513  23.680  0.00  0.00    +0.000 C 
ATOM      2  C   UNL     1      -6.787  14.635  22.975  0.00  0.00    +0.000 C 
ATOM      3  C   UNL     1      -6.684  14.225  21.509  0.00  0.00    +0.000 C 
ATOM      4  C   UNL     1      -6.777  12.651  21.621  0.00  0.00    +0.000 C 
ATOM      5  O   UNL     1      -6.394  12.321  22.967  0.00  0.00    +0.000 OA
ENDROOT
BRANCH   1   9
ATOM      6  C   UNL     1      -1.317  11.948  22.998  0.00  0.00    +0.000 C 
ATOM      7  C   UNL     1      -2.339  12.959  23.417  0.00  0.00    +0.000 A 
ATOM      8  C   UNL     1      -3.658  12.756  23.383  0.00  0.00    +0.000 A 
ATOM      9  N   UNL     1      -4.577  13.719  23.761  0.00  0.00    +0.000 N 
ATOM     10  C   UNL     1      -4.153  14.954  24.227  0.00  0.00    +0.000 A 
ATOM     11  O   UNL     1      -4.931  15.862  24.553  0.00  0.00    +0.000 OA
ATOM     12  N   UNL     1      -2.797  15.151  24.314  0.00  0.00    +0.000 N 
ATOM     13  C   UNL     1      -1.847  14.267  23.905  0.00  0.00    +0.000 A 
ATOM     14  O   UNL     1      -0.647  14.544  23.944  0.00  0.00    +0.000 OA
ATOM     15  H   UNL     1      -2.492  16.049  24.647  0.00  0.00    +0.000 HD
ENDBRANCH   1   9
BRANCH   3  16
ATOM     16  N   UNL     1      -5.404  14.721  20.939  0.00  0.00    +0.000 NA
ATOM     17  N   UNL     1      -5.244  15.966  20.936  0.00  0.00    +0.000 NA
ATOM     18  N   UNL     1      -5.101  17.092  20.883  0.00  0.00    +0.000 NA
ENDBRANCH   3  16
BRANCH   4  19
ATOM     19  O   UNL     1      -5.978  11.801  20.811  0.00  0.00    +0.000 OA
BRANCH  19  20
ATOM     20  P   UNL     1      -6.226  11.677  19.221  0.00  0.00    +0.000 P 
ATOM     21  O   UNL     1      -7.583  12.139  18.803  0.00  0.00    +0.000 OA
BRANCH  20  22
ATOM     22  O   UNL     1      -5.148  12.813  18.805  0.00  0.00    +0.000 OA
ATOM     23  H   UNL     1      -4.878  12.681  17.867  0.00  0.00    +0.000 HD
ENDBRANCH  20  22
BRANCH  20  24
ATOM     24  O   UNL     1      -5.595  10.306  18.410  0.00  0.00    +0.000 OA
BRANCH  24  25
ATOM     25  P   UNL     1      -4.141  10.991  17.769  0.00  0.00    +0.000 P 
ATOM     26  O   UNL     1      -3.611   9.563  17.620  0.00  0.00    +0.000 OA
BRANCH  25  27
ATOM     27  O   UNL     1      -4.928  11.338  16.386  0.00  0.00    +0.000 OA
ATOM     28  H   UNL     1      -5.282  12.247  16.377  0.00  0.00    +0.000 HD
ENDBRANCH  25  27
BRANCH  25  29
ATOM     29  N   UNL     1      -2.645  11.697  17.110  0.00  0.00    +0.000 NA
ATOM     30  H   UNL     1      -2.875  12.631  16.803  0.00  0.00    +0.000 HD
BRANCH  29  31
ATOM     31  P   UNL     1      -1.499  12.000  18.437  0.00  0.00    +0.000 P 
ATOM     32  O   UNL     1      -0.720  10.735  18.080  0.00  0.00    +0.000 OA
BRANCH  31  33
ATOM     33  O   UNL     1      -0.846  13.186  17.531  0.00  0.00    +0.000 OA
ATOM     34  H   UNL     1      -1.576  13.798  17.306  0.00  0.00    +0.000 HD
ENDBRANCH  31  33
BRANCH  31  35
ATOM     35  O   UNL     1      -0.384  12.295  19.727  0.00  0.00    +0.000 OA
ATOM     36  H   UNL     1      -0.498  13.221  20.008  0.00  0.00    +0.000 HD
ENDBRANCH  31  35
ENDBRANCH  29  31
ENDBRANCH  25  29
ENDBRANCH  24  25
ENDBRANCH  20  24
ENDBRANCH  19  20
ENDBRANCH   4  19
TORSDOF 12
ENDMDL
MODEL 6
REMARK VINA RESULT:      -6.5      4.428      7.031
REMARK  Name = 
REMARK  13 active torsions:
REMARK  status: ('A' for Active; 'I' for Inactive)
REMARK    1  A    between atoms: C_1  and  C_2
REMARK    2  A    between atoms: N_4  and  C_5
REMARK    3  A    between atoms: C_7  and  N_8
REMARK    4  A    between atoms: C_11  and  O_12
REMARK    5  A    between atoms: O_12  and  P_13
REMARK    6  A    between atoms: P_13  and  O_15
REMARK    7  A    between atoms: P_13  and  O_16
REMARK    8  A    between atoms: O_16  and  P_17
REMARK    9  A    between atoms: P_17  and  O_19
REMARK   10  A    between atoms: P_17  and  N_20
REMARK   11  A    between atoms: N_20  and  P_21
REMARK   12  A    between atoms: P_21  and  O_23
REMARK   13  A    between atoms: P_21  and  O_24
REMARK                            x       y       z     vdW  Elec       q    Type
REMARK                         _______ _______ _______ _____ _____    ______ ____
ROOT
ATOM      1  C   UNL     1       0.803  11.611  18.856  0.00  0.00    +0.000 C 
ATOM      2  C   UNL     1       1.126  11.536  20.342  0.00  0.00    +0.000 C 
ATOM      3  C   UNL     1       1.258  10.033  20.570  0.00  0.00    +0.000 C 
ATOM      4  C   UNL     1       1.916   9.570  19.210  0.00  0.00    +0.000 C 
ATOM      5  O   UNL     1       1.610  10.593  18.248  0.00  0.00    +0.000 OA
ENDROOT
BRANCH   1   9
ATOM      6  C   UNL     1      -2.988   9.355  16.466  0.00  0.00    +0.000 C 
ATOM      7  C   UNL     1      -2.422  10.377  17.402  0.00  0.00    +0.000 A 
ATOM      8  C   UNL     1      -1.120  10.529  17.655  0.00  0.00    +0.000 A 
ATOM      9  N   UNL     1      -0.631  11.474  18.540  0.00  0.00    +0.000 N 
ATOM     10  C   UNL     1      -1.494  12.338  19.196  0.00  0.00    +0.000 A 
ATOM     11  O   UNL     1      -1.113  13.184  20.018  0.00  0.00    +0.000 OA
ATOM     12  N   UNL     1      -2.830  12.223  18.901  0.00  0.00    +0.000 N 
ATOM     13  C   UNL     1      -3.376  11.280  18.086  0.00  0.00    +0.000 A 
ATOM     14  O   UNL     1      -4.594  11.190  17.928  0.00  0.00    +0.000 OA
ATOM     15  H   UNL     1      -3.453  12.848  19.382  0.00  0.00    +0.000 HD
ENDBRANCH   1   9
BRANCH   3  16
ATOM     16  N   UNL     1      -0.083   9.446  20.830  0.00  0.00    +0.000 NA
ATOM     17  N   UNL     1      -0.468   9.449  22.025  0.00  0.00    +0.000 NA
ATOM     18  N   UNL     1      -0.813   9.401  23.107  0.00  0.00    +0.000 NA
ENDBRANCH   3  16
BRANCH   4  19
ATOM     19  O   UNL     1       1.527   8.363  18.572  0.00  0.00    +0.000 OA
BRANCH  19  20
ATOM     20  P   UNL     1       2.568   7.144  18.370  0.00  0.00    +0.000 P 
ATOM     21  O   UNL     1       3.823   7.557  17.675  0.00  0.00    +0.000 OA
BRANCH  20  22
ATOM     22  O   UNL     1       2.895   6.956  19.946  0.00  0.00    +0.000 OA
ATOM     23  H   UNL     1       2.349   6.221  20.308  0.00  0.00    +0.000 HD
ENDBRANCH  20  22
BRANCH  20  24
ATOM     24  O   UNL     1       1.939   5.602  17.973  0.00  0.00    +0.000 OA
BRANCH  24  25
ATOM     25  P   UNL     1       3.416   4.711  17.836  0.00  0.00    +0.000 P 
ATOM     26  O   UNL     1       3.260   4.350  19.315  0.00  0.00    +0.000 OA
BRANCH  25  27
ATOM     27  O   UNL     1       2.630   3.560  16.994  0.00  0.00    +0.000 OA
ATOM     28  H   UNL     1       2.131   2.952  17.571  0.00  0.00    +0.000 HD
ENDBRANCH  25  27
BRANCH  25  29
ATOM     29  N   UNL     1       4.936   3.796  17.694  0.00  0.00    +0.000 NA
ATOM     30  H   UNL     1       4.773   3.064  17.017  0.00  0.00    +0.000 HD
BRANCH  29  31
ATOM     31  P   UNL     1       6.160   4.802  16.884  0.00  0.00    +0.000 P 
ATOM     32  O   UNL     1       5.142   5.226  15.827  0.00  0.00    +0.000 OA
BRANCH  31  33
ATOM     33  O   UNL     1       6.003   5.876  18.099  0.00  0.00    +0.000 OA
ATOM     34  H   UNL     1       6.427   5.474  18.883  0.00  0.00    +0.000 HD
ENDBRANCH  31  33
BRANCH  31  35
ATOM     35  O   UNL     1       7.351   5.782  16.098  0.00  0.00    +0.000 OA
ATOM     36  H   UNL     1       7.693   6.413  16.757  0.00  0.00    +0.000 HD
ENDBRANCH  31  35
ENDBRANCH  29  31
ENDBRANCH  25  29
ENDBRANCH  24  25
ENDBRANCH  20  24
ENDBRANCH  19  20
ENDBRANCH   4  19
TORSDOF 12
ENDMDL
MODEL 7
REMARK VINA RESULT:      -6.5      4.245      8.721
REMARK  Name = 
REMARK  13 active torsions:
REMARK  status: ('A' for Active; 'I' for Inactive)
REMARK    1  A    between atoms: C_1  and  C_2
REMARK    2  A    between atoms: N_4  and  C_5
REMARK    3  A    between atoms: C_7  and  N_8
REMARK    4  A    between atoms: C_11  and  O_12
REMARK    5  A    between atoms: O_12  and  P_13
REMARK    6  A    between atoms: P_13  and  O_15
REMARK    7  A    between atoms: P_13  and  O_16
REMARK    8  A    between atoms: O_16  and  P_17
REMARK    9  A    between atoms: P_17  and  O_19
REMARK   10  A    between atoms: P_17  and  N_20
REMARK   11  A    between atoms: N_20  and  P_21
REMARK   12  A    between atoms: P_21  and  O_23
REMARK   13  A    between atoms: P_21  and  O_24
REMARK                            x       y       z     vdW  Elec       q    Type
REMARK                         _______ _______ _______ _____ _____    ______ ____
ROOT
ATOM      1  C   UNL     1       2.338   4.503  17.754  0.00  0.00    +0.000 C 
ATOM      2  C   UNL     1       2.032   3.376  18.732  0.00  0.00    +0.000 C 
ATOM      3  C   UNL     1       2.231   4.056  20.083  0.00  0.00    +0.000 C 
ATOM      4  C   UNL     1       1.697   5.511  19.778  0.00  0.00    +0.000 C 
ATOM      5  O   UNL     1       1.777   5.678  18.353  0.00  0.00    +0.000 OA
ENDROOT
BRANCH   1   9
ATOM      6  C   UNL     1       6.500   7.273  17.330  0.00  0.00    +0.000 C 
ATOM      7  C   UNL     1       5.742   5.985  17.246  0.00  0.00    +0.000 A 
ATOM      8  C   UNL     1       4.437   5.860  17.499  0.00  0.00    +0.000 A 
ATOM      9  N   UNL     1       3.769   4.650  17.429  0.00  0.00    +0.000 N 
ATOM     10  C   UNL     1       4.441   3.495  17.058  0.00  0.00    +0.000 A 
ATOM     11  O   UNL     1       3.900   2.382  17.005  0.00  0.00    +0.000 OA
ATOM     12  N   UNL     1       5.772   3.625  16.746  0.00  0.00    +0.000 N 
ATOM     13  C   UNL     1       6.495   4.773  16.850  0.00  0.00    +0.000 A 
ATOM     14  O   UNL     1       7.706   4.797  16.624  0.00  0.00    +0.000 OA
ATOM     15  H   UNL     1       6.258   2.785  16.482  0.00  0.00    +0.000 HD
ENDBRANCH   1   9
BRANCH   3  16
ATOM     16  N   UNL     1       3.666   4.000  20.465  0.00  0.00    +0.000 NA
ATOM     17  N   UNL     1       4.213   2.871  20.409  0.00  0.00    +0.000 NA
ATOM     18  N   UNL     1       4.711   1.849  20.408  0.00  0.00    +0.000 NA
ENDBRANCH   3  16
BRANCH   4  19
ATOM     19  O   UNL     1       2.343   6.663  20.302  0.00  0.00    +0.000 OA
BRANCH  19  20
ATOM     20  P   UNL     1       1.522   8.014  20.627  0.00  0.00    +0.000 P 
ATOM     21  O   UNL     1       1.361   8.901  19.437  0.00  0.00    +0.000 OA
BRANCH  20  22
ATOM     22  O   UNL     1       0.108   7.274  20.908  0.00  0.00    +0.000 OA
ATOM     23  H   UNL     1       0.110   6.389  20.476  0.00  0.00    +0.000 HD
ENDBRANCH  20  22
BRANCH  20  24
ATOM     24  O   UNL     1       1.799   8.786  22.131  0.00  0.00    +0.000 OA
BRANCH  24  25
ATOM     25  P   UNL     1       0.352   9.728  22.247  0.00  0.00    +0.000 P 
ATOM     26  O   UNL     1       0.574   9.763  23.762  0.00  0.00    +0.000 OA
BRANCH  25  27
ATOM     27  O   UNL     1       1.151  11.008  21.633  0.00  0.00    +0.000 OA
ATOM     28  H   UNL     1       2.115  10.867  21.608  0.00  0.00    +0.000 HD
ENDBRANCH  25  27
BRANCH  25  29
ATOM     29  N   UNL     1      -1.137  10.696  22.365  0.00  0.00    +0.000 NA
ATOM     30  H   UNL     1      -1.305  10.852  23.349  0.00  0.00    +0.000 HD
BRANCH  29  31
ATOM     31  P   UNL     1      -0.823  12.341  21.763  0.00  0.00    +0.000 P 
ATOM     32  O   UNL     1      -2.322  12.591  21.607  0.00  0.00    +0.000 OA
BRANCH  31  33
ATOM     33  O   UNL     1      -0.463  12.774  23.292  0.00  0.00    +0.000 OA
ATOM     34  H   UNL     1      -0.650  13.731  23.362  0.00  0.00    +0.000 HD
ENDBRANCH  31  33
BRANCH  31  35
ATOM     35  O   UNL     1      -0.517  13.941  21.179  0.00  0.00    +0.000 OA
ATOM     36  H   UNL     1       0.301  14.257  21.603  0.00  0.00    +0.000 HD
ENDBRANCH  31  35
ENDBRANCH  29  31
ENDBRANCH  25  29
ENDBRANCH  24  25
ENDBRANCH  20  24
ENDBRANCH  19  20
ENDBRANCH   4  19
TORSDOF 12
ENDMDL
MODEL 8
REMARK VINA RESULT:      -6.4     10.963     13.312
REMARK  Name = 
REMARK  13 active torsions:
REMARK  status: ('A' for Active; 'I' for Inactive)
REMARK    1  A    between atoms: C_1  and  C_2
REMARK    2  A    between atoms: N_4  and  C_5
REMARK    3  A    between atoms: C_7  and  N_8
REMARK    4  A    between atoms: C_11  and  O_12
REMARK    5  A    between atoms: O_12  and  P_13
REMARK    6  A    between atoms: P_13  and  O_15
REMARK    7  A    between atoms: P_13  and  O_16
REMARK    8  A    between atoms: O_16  and  P_17
REMARK    9  A    between atoms: P_17  and  O_19
REMARK   10  A    between atoms: P_17  and  N_20
REMARK   11  A    between atoms: N_20  and  P_21
REMARK   12  A    between atoms: P_21  and  O_23
REMARK   13  A    between atoms: P_21  and  O_24
REMARK                            x       y       z     vdW  Elec       q    Type
REMARK                         _______ _______ _______ _____ _____    ______ ____
ROOT
ATOM      1  C   UNL     1      -5.706  13.554  23.659  0.00  0.00    +0.000 C 
ATOM      2  C   UNL     1      -4.856  12.793  24.668  0.00  0.00    +0.000 C 
ATOM      3  C   UNL     1      -3.443  13.016  24.138  0.00  0.00    +0.000 C 
ATOM      4  C   UNL     1      -3.551  14.491  23.584  0.00  0.00    +0.000 C 
ATOM      5  O   UNL     1      -4.948  14.732  23.350  0.00  0.00    +0.000 OA
ENDROOT
BRANCH   1   9
ATOM      6  C   UNL     1      -5.101  12.356  18.824  0.00  0.00    +0.000 C 
ATOM      7  C   UNL     1      -5.757  12.209  20.162  0.00  0.00    +0.000 A 
ATOM      8  C   UNL     1      -5.456  12.946  21.234  0.00  0.00    +0.000 A 
ATOM      9  N   UNL     1      -6.070  12.773  22.463  0.00  0.00    +0.000 N 
ATOM     10  C   UNL     1      -7.064  11.820  22.625  0.00  0.00    +0.000 A 
ATOM     11  O   UNL     1      -7.627  11.604  23.708  0.00  0.00    +0.000 OA
ATOM     12  N   UNL     1      -7.415  11.094  21.514  0.00  0.00    +0.000 N 
ATOM     13  C   UNL     1      -6.812  11.179  20.298  0.00  0.00    +0.000 A 
ATOM     14  O   UNL     1      -7.131  10.440  19.365  0.00  0.00    +0.000 OA
ATOM     15  H   UNL     1      -8.133  10.401  21.636  0.00  0.00    +0.000 HD
ENDBRANCH   1   9
BRANCH   3  16
ATOM     16  N   UNL     1      -3.130  11.996  23.103  0.00  0.00    +0.000 NA
ATOM     17  N   UNL     1      -2.004  11.447  23.187  0.00  0.00    +0.000 NA
ATOM     18  N   UNL     1      -0.971  10.974  23.220  0.00  0.00    +0.000 NA
ENDBRANCH   3  16
BRANCH   4  19
ATOM     19  O   UNL     1      -2.922  14.875  22.369  0.00  0.00    +0.000 OA
BRANCH  19  20
ATOM     20  P   UNL     1      -2.307  16.355  22.170  0.00  0.00    +0.000 P 
ATOM     21  O   UNL     1      -3.316  17.348  21.698  0.00  0.00    +0.000 OA
BRANCH  20  22
ATOM     22  O   UNL     1      -2.026  16.620  23.744  0.00  0.00    +0.000 OA
ATOM     23  H   UNL     1      -1.636  15.811  24.148  0.00  0.00    +0.000 HD
ENDBRANCH  20  22
BRANCH  20  24
ATOM     24  O   UNL     1      -0.728  16.493  21.522  0.00  0.00    +0.000 OA
BRANCH  24  25
ATOM     25  P   UNL     1      -0.839  15.339  20.237  0.00  0.00    +0.000 P 
ATOM     26  O   UNL     1      -1.119  16.513  19.294  0.00  0.00    +0.000 OA
BRANCH  25  27
ATOM     27  O   UNL     1       0.779  15.155  20.278  0.00  0.00    +0.000 OA
ATOM     28  H   UNL     1       1.055  14.243  20.071  0.00  0.00    +0.000 HD
ENDBRANCH  25  27
BRANCH  25  29
ATOM     29  N   UNL     1      -0.954  14.151  18.916  0.00  0.00    +0.000 NA
ATOM     30  H   UNL     1      -0.069  14.172  18.429  0.00  0.00    +0.000 HD
BRANCH  29  31
ATOM     31  P   UNL     1      -0.980  12.508  19.598  0.00  0.00    +0.000 P 
ATOM     32  O   UNL     1       0.502  12.328  19.272  0.00  0.00    +0.000 OA
BRANCH  31  33
ATOM     33  O   UNL     1      -1.024  13.182  21.080  0.00  0.00    +0.000 OA
ATOM     34  H   UNL     1      -0.842  12.464  21.719  0.00  0.00    +0.000 HD
ENDBRANCH  31  33
BRANCH  31  35
ATOM     35  O   UNL     1      -1.005  10.910  20.262  0.00  0.00    +0.000 OA
ATOM     36  H   UNL     1      -1.918  10.726  20.548  0.00  0.00    +0.000 HD
ENDBRANCH  31  35
ENDBRANCH  29  31
ENDBRANCH  25  29
ENDBRANCH  24  25
ENDBRANCH  20  24
ENDBRANCH  19  20
ENDBRANCH   4  19
TORSDOF 12
ENDMDL
MODEL 9
REMARK VINA RESULT:      -6.4      7.628     12.294
REMARK  Name = 
REMARK  13 active torsions:
REMARK  status: ('A' for Active; 'I' for Inactive)
REMARK    1  A    between atoms: C_1  and  C_2
REMARK    2  A    between atoms: N_4  and  C_5
REMARK    3  A    between atoms: C_7  and  N_8
REMARK    4  A    between atoms: C_11  and  O_12
REMARK    5  A    between atoms: O_12  and  P_13
REMARK    6  A    between atoms: P_13  and  O_15
REMARK    7  A    between atoms: P_13  and  O_16
REMARK    8  A    between atoms: O_16  and  P_17
REMARK    9  A    between atoms: P_17  and  O_19
REMARK   10  A    between atoms: P_17  and  N_20
REMARK   11  A    between atoms: N_20  and  P_21
REMARK   12  A    between atoms: P_21  and  O_23
REMARK   13  A    between atoms: P_21  and  O_24
REMARK                            x       y       z     vdW  Elec       q    Type
REMARK                         _______ _______ _______ _____ _____    ______ ____
ROOT
ATOM      1  C   UNL     1       1.011  11.780  19.915  0.00  0.00    +0.000 C 
ATOM      2  C   UNL     1       0.365  12.183  18.597  0.00  0.00    +0.000 C 
ATOM      3  C   UNL     1      -1.122  12.037  18.906  0.00  0.00    +0.000 C 
ATOM      4  C   UNL     1      -1.171  12.499  20.416  0.00  0.00    +0.000 C 
ATOM      5  O   UNL     1       0.161  12.332  20.930  0.00  0.00    +0.000 OA
ENDROOT
BRANCH   1   9
ATOM      6  C   UNL     1       2.196   7.278  18.045  0.00  0.00    +0.000 C 
ATOM      7  C   UNL     1       1.802   8.196  19.159  0.00  0.00    +0.000 A 
ATOM      8  C   UNL     1       1.569   9.503  19.012  0.00  0.00    +0.000 A 
ATOM      9  N   UNL     1       1.223  10.329  20.067  0.00  0.00    +0.000 N 
ATOM     10  C   UNL     1       1.075   9.813  21.346  0.00  0.00    +0.000 A 
ATOM     11  O   UNL     1       0.793  10.510  22.331  0.00  0.00    +0.000 OA
ATOM     12  N   UNL     1       1.261   8.461  21.495  0.00  0.00    +0.000 N 
ATOM     13  C   UNL     1       1.657   7.609  20.510  0.00  0.00    +0.000 A 
ATOM     14  O   UNL     1       1.878   6.419  20.736  0.00  0.00    +0.000 OA
ATOM     15  H   UNL     1       1.158   8.091  22.424  0.00  0.00    +0.000 HD
ENDBRANCH   1   9
BRANCH   3  16
ATOM     16  N   UNL     1      -1.544  10.629  18.684  0.00  0.00    +0.000 NA
ATOM     17  N   UNL     1      -2.520  10.456  17.913  0.00  0.00    +0.000 NA
ATOM     18  N   UNL     1      -3.430  10.283  17.255  0.00  0.00    +0.000 NA
ENDBRANCH   3  16
BRANCH   4  19
ATOM     19  O   UNL     1      -1.997  11.841  21.366  0.00  0.00    +0.000 OA
BRANCH  19  20
ATOM     20  P   UNL     1      -2.460  12.574  22.729  0.00  0.00    +0.000 P 
ATOM     21  O   UNL     1      -3.426  11.764  23.528  0.00  0.00    +0.000 OA
BRANCH  20  22
ATOM     22  O   UNL     1      -1.010  12.495  23.448  0.00  0.00    +0.000 OA
ATOM     23  H   UNL     1      -0.805  11.558  23.672  0.00  0.00    +0.000 HD
ENDBRANCH  20  22
BRANCH  20  24
ATOM     24  O   UNL     1      -2.721  14.266  22.687  0.00  0.00    +0.000 OA
BRANCH  24  25
ATOM     25  P   UNL     1      -4.444  14.291  22.530  0.00  0.00    +0.000 P 
ATOM     26  O   UNL     1      -4.331  15.791  22.246  0.00  0.00    +0.000 OA
BRANCH  25  27
ATOM     27  O   UNL     1      -4.311  13.538  21.092  0.00  0.00    +0.000 OA
ATOM     28  H   UNL     1      -3.423  13.634  20.703  0.00  0.00    +0.000 HD
ENDBRANCH  25  27
BRANCH  25  29
ATOM     29  N   UNL     1      -6.216  14.316  22.369  0.00  0.00    +0.000 NA
ATOM     30  H   UNL     1      -6.422  14.137  21.396  0.00  0.00    +0.000 HD
BRANCH  29  31
ATOM     31  P   UNL     1      -6.905  12.887  23.177  0.00  0.00    +0.000 P 
ATOM     32  O   UNL     1      -6.288  11.969  22.122  0.00  0.00    +0.000 OA
BRANCH  31  33
ATOM     33  O   UNL     1      -5.765  13.057  24.329  0.00  0.00    +0.000 OA
ATOM     34  H   UNL     1      -6.240  13.139  25.180  0.00  0.00    +0.000 HD
ENDBRANCH  31  33
BRANCH  31  35
ATOM     35  O   UNL     1      -7.573  11.498  23.963  0.00  0.00    +0.000 OA
ATOM     36  H   UNL     1      -8.530  11.649  24.062  0.00  0.00    +0.000 HD
ENDBRANCH  31  35
ENDBRANCH  29  31
ENDBRANCH  25  29
ENDBRANCH  24  25
ENDBRANCH  20  24
ENDBRANCH  19  20
ENDBRANCH   4  19
TORSDOF 12
ENDMDL
