MODEL 1
REMARK VINA RESULT:      -8.5      0.000      0.000
REMARK  Name = 
REMARK  3 active torsions:
REMARK  status: ('A' for Active; 'I' for Inactive)
REMARK    1  A    between atoms: C_1  and  C_2
REMARK    2  A    between atoms: C_3  and  C_4
REMARK    3  A    between atoms: C_17  and  C_18
REMARK                            x       y       z     vdW  Elec       q    Type
REMARK                         _______ _______ _______ _____ _____    ______ ____
ROOT
ATOM      1  C   UNL     1       7.144   6.344  17.619  0.00  0.00    +0.000 C 
ATOM      2  N   UNL     1       6.259   5.810  18.408  0.00  0.00    +0.000 NA
ATOM      3  C   UNL     1       5.508   4.814  17.797  0.00  0.00    +0.000 A 
ATOM      4  C   UNL     1       5.682   4.411  16.496  0.00  0.00    +0.000 A 
ATOM      5  O   UNL     1       4.756   3.423  16.236  0.00  0.00    +0.000 OA
ATOM      6  C   UNL     1       4.024   3.242  17.385  0.00  0.00    +0.000 A 
ATOM      7  C   UNL     1       2.973   2.345  17.570  0.00  0.00    +0.000 A 
ATOM      8  C   UNL     1       2.363   2.342  18.837  0.00  0.00    +0.000 A 
ATOM      9  C   UNL     1       2.794   3.198  19.851  0.00  0.00    +0.000 A 
ATOM     10 BR   UNL     1       1.943   3.174  21.540  0.00  0.00    +0.000 Br
ATOM     11  C   UNL     1       3.850   4.088  19.646  0.00  0.00    +0.000 A 
ATOM     12  C   UNL     1       4.467   4.099  18.386  0.00  0.00    +0.000 A 
ATOM     13  C   UNL     1       6.668   4.999  15.675  0.00  0.00    +0.000 C 
ATOM     14  C   UNL     1       6.886   4.623  14.410  0.00  0.00    +0.000 C 
ATOM     15  O   UNL     1       7.416   6.028  16.308  0.00  0.00    +0.000 OA
ENDROOT
BRANCH   1  18
ATOM     16  C   UNL     1       8.779   9.766  18.384  0.00  0.00    +0.000 C 
ATOM     17  C   UNL     1       7.921   8.728  17.742  0.00  0.00    +0.000 C 
ATOM     18  C   UNL     1       7.981   7.447  18.128  0.00  0.00    +0.000 C 
ENDBRANCH   1  18
BRANCH  14  19
ATOM     19  C   UNL     1       7.933   5.278  13.605  0.00  0.00    +0.000 C 
ATOM     20  O   UNL     1       7.714   5.664  12.463  0.00  0.00    +0.000 OA
ENDBRANCH  14  19
TORSDOF 2
ENDMDL
MODEL 2
REMARK VINA RESULT:      -7.4      4.117      6.067
REMARK  Name = 
REMARK  3 active torsions:
REMARK  status: ('A' for Active; 'I' for Inactive)
REMARK    1  A    between atoms: C_1  and  C_2
REMARK    2  A    between atoms: C_3  and  C_4
REMARK    3  A    between atoms: C_17  and  C_18
REMARK                            x       y       z     vdW  Elec       q    Type
REMARK                         _______ _______ _______ _____ _____    ______ ____
ROOT
ATOM      1  C   UNL     1       4.232   5.467  17.304  0.00  0.00    +0.000 C 
ATOM      2  N   UNL     1       3.649   6.612  17.504  0.00  0.00    +0.000 NA
ATOM      3  C   UNL     1       2.938   6.665  18.696  0.00  0.00    +0.000 A 
ATOM      4  C   UNL     1       2.863   5.628  19.592  0.00  0.00    +0.000 A 
ATOM      5  O   UNL     1       2.064   6.036  20.640  0.00  0.00    +0.000 OA
ATOM      6  C   UNL     1       1.658   7.319  20.363  0.00  0.00    +0.000 A 
ATOM      7  C   UNL     1       0.830   8.119  21.150  0.00  0.00    +0.000 A 
ATOM      8  C   UNL     1       0.541   9.404  20.656  0.00  0.00    +0.000 A 
ATOM      9  C   UNL     1       1.060   9.846  19.439  0.00  0.00    +0.000 A 
ATOM     10 BR   UNL     1       0.641  11.578  18.801  0.00  0.00    +0.000 Br
ATOM     11  C   UNL     1       1.889   9.031  18.667  0.00  0.00    +0.000 A 
ATOM     12  C   UNL     1       2.186   7.748  19.149  0.00  0.00    +0.000 A 
ATOM     13  C   UNL     1       3.527   4.406  19.352  0.00  0.00    +0.000 C 
ATOM     14  C   UNL     1       3.499   3.378  20.207  0.00  0.00    +0.000 C 
ATOM     15  O   UNL     1       4.235   4.360  18.121  0.00  0.00    +0.000 OA
ENDROOT
BRANCH   1  18
ATOM     16  C   UNL     1       6.261   4.018  14.346  0.00  0.00    +0.000 C 
ATOM     17  C   UNL     1       5.585   4.124  15.672  0.00  0.00    +0.000 C 
ATOM     18  C   UNL     1       4.984   5.258  16.053  0.00  0.00    +0.000 C 
ENDBRANCH   1  18
BRANCH  14  19
ATOM     19  C   UNL     1       4.216   2.128  19.896  0.00  0.00    +0.000 C 
ATOM     20  O   UNL     1       5.194   1.774  20.545  0.00  0.00    +0.000 OA
ENDBRANCH  14  19
TORSDOF 2
ENDMDL
MODEL 3
REMARK VINA RESULT:      -7.4      3.129      6.065
REMARK  Name = 
REMARK  3 active torsions:
REMARK  status: ('A' for Active; 'I' for Inactive)
REMARK    1  A    between atoms: C_1  and  C_2
REMARK    2  A    between atoms: C_3  and  C_4
REMARK    3  A    between atoms: C_17  and  C_18
REMARK                            x       y       z     vdW  Elec       q    Type
REMARK                         _______ _______ _______ _____ _____    ______ ____
ROOT
ATOM      1  C   UNL     1       4.593   4.174  18.142  0.00  0.00    +0.000 C 
ATOM      2  N   UNL     1       4.483   3.899  16.875  0.00  0.00    +0.000 NA
ATOM      3  C   UNL     1       5.597   4.273  16.134  0.00  0.00    +0.000 A 
ATOM      4  C   UNL     1       6.716   4.860  16.671  0.00  0.00    +0.000 A 
ATOM      5  O   UNL     1       7.599   5.101  15.641  0.00  0.00    +0.000 OA
ATOM      6  C   UNL     1       7.000   4.663  14.484  0.00  0.00    +0.000 A 
ATOM      7  C   UNL     1       7.534   4.719  13.197  0.00  0.00    +0.000 A 
ATOM      8  C   UNL     1       6.730   4.214  12.159  0.00  0.00    +0.000 A 
ATOM      9  C   UNL     1       5.464   3.687  12.414  0.00  0.00    +0.000 A 
ATOM     10 BR   UNL     1       4.406   3.027  10.992  0.00  0.00    +0.000 Br
ATOM     11  C   UNL     1       4.948   3.639  13.711  0.00  0.00    +0.000 A 
ATOM     12  C   UNL     1       5.741   4.137  14.755  0.00  0.00    +0.000 A 
ATOM     13  C   UNL     1       6.809   5.123  18.055  0.00  0.00    +0.000 C 
ATOM     14  C   UNL     1       7.887   5.673  18.624  0.00  0.00    +0.000 C 
ATOM     15  O   UNL     1       5.655   4.753  18.798  0.00  0.00    +0.000 OA
ENDROOT
BRANCH   1  18
ATOM     16  C   UNL     1       1.112   3.743  19.774  0.00  0.00    +0.000 C 
ATOM     17  C   UNL     1       2.175   4.166  18.816  0.00  0.00    +0.000 C 
ATOM     18  C   UNL     1       3.462   3.871  19.038  0.00  0.00    +0.000 C 
ENDBRANCH   1  18
BRANCH  14  19
ATOM     19  C   UNL     1       7.921   5.922  20.077  0.00  0.00    +0.000 C 
ATOM     20  O   UNL     1       8.342   5.079  20.860  0.00  0.00    +0.000 OA
ENDBRANCH  14  19
TORSDOF 2
ENDMDL
MODEL 4
REMARK VINA RESULT:      -6.9      5.193      7.169
REMARK  Name = 
REMARK  3 active torsions:
REMARK  status: ('A' for Active; 'I' for Inactive)
REMARK    1  A    between atoms: C_1  and  C_2
REMARK    2  A    between atoms: C_3  and  C_4
REMARK    3  A    between atoms: C_17  and  C_18
REMARK                            x       y       z     vdW  Elec       q    Type
REMARK                         _______ _______ _______ _____ _____    ______ ____
ROOT
ATOM      1  C   UNL     1       3.465   6.169  18.096  0.00  0.00    +0.000 C 
ATOM      2  N   UNL     1       3.036   7.397  18.105  0.00  0.00    +0.000 NA
ATOM      3  C   UNL     1       2.227   7.688  19.196  0.00  0.00    +0.000 A 
ATOM      4  C   UNL     1       1.915   6.786  20.183  0.00  0.00    +0.000 A 
ATOM      5  O   UNL     1       1.085   7.420  21.082  0.00  0.00    +0.000 OA
ATOM      6  C   UNL     1       0.897   8.703  20.626  0.00  0.00    +0.000 A 
ATOM      7  C   UNL     1       0.120   9.695  21.224  0.00  0.00    +0.000 A 
ATOM      8  C   UNL     1       0.070  10.937  20.566  0.00  0.00    +0.000 A 
ATOM      9  C   UNL     1       0.765  11.156  19.377  0.00  0.00    +0.000 A 
ATOM     10 BR   UNL     1       0.666  12.837  18.514  0.00  0.00    +0.000 Br
ATOM     11  C   UNL     1       1.539  10.150  18.795  0.00  0.00    +0.000 A 
ATOM     12  C   UNL     1       1.599   8.907  19.442  0.00  0.00    +0.000 A 
ATOM     13  C   UNL     1       2.416   5.467  20.152  0.00  0.00    +0.000 C 
ATOM     14  C   UNL     1       2.155   4.563  21.102  0.00  0.00    +0.000 C 
ATOM     15  O   UNL     1       3.227   5.178  19.021  0.00  0.00    +0.000 OA
ENDROOT
BRANCH   1  18
ATOM     16  C   UNL     1       5.602   4.130  15.597  0.00  0.00    +0.000 C 
ATOM     17  C   UNL     1       4.829   4.492  16.822  0.00  0.00    +0.000 C 
ATOM     18  C   UNL     1       4.298   5.712  16.969  0.00  0.00    +0.000 C 
ENDBRANCH   1  18
BRANCH  14  19
ATOM     19  C   UNL     1       2.711   3.201  21.010  0.00  0.00    +0.000 C 
ATOM     20  O   UNL     1       2.753   2.461  21.986  0.00  0.00    +0.000 OA
ENDBRANCH  14  19
TORSDOF 2
ENDMDL
MODEL 5
REMARK VINA RESULT:      -6.9      3.812      5.206
REMARK  Name = 
REMARK  3 active torsions:
REMARK  status: ('A' for Active; 'I' for Inactive)
REMARK    1  A    between atoms: C_1  and  C_2
REMARK    2  A    between atoms: C_3  and  C_4
REMARK    3  A    between atoms: C_17  and  C_18
REMARK                            x       y       z     vdW  Elec       q    Type
REMARK                         _______ _______ _______ _____ _____    ______ ____
ROOT
ATOM      1  C   UNL     1       4.471   4.727  18.903  0.00  0.00    +0.000 C 
ATOM      2  N   UNL     1       3.607   5.483  19.513  0.00  0.00    +0.000 NA
ATOM      3  C   UNL     1       3.246   6.606  18.780  0.00  0.00    +0.000 A 
ATOM      4  C   UNL     1       3.731   6.895  17.529  0.00  0.00    +0.000 A 
ATOM      5  O   UNL     1       3.167   8.086  17.125  0.00  0.00    +0.000 OA
ATOM      6  C   UNL     1       2.347   8.512  18.144  0.00  0.00    +0.000 A 
ATOM      7  C   UNL     1       1.583   9.678  18.166  0.00  0.00    +0.000 A 
ATOM      8  C   UNL     1       0.824   9.911  19.326  0.00  0.00    +0.000 A 
ATOM      9  C   UNL     1       0.842   9.016  20.396  0.00  0.00    +0.000 A 
ATOM     10 BR   UNL     1      -0.185   9.367  21.946  0.00  0.00    +0.000 Br
ATOM     11  C   UNL     1       1.612   7.852  20.353  0.00  0.00    +0.000 A 
ATOM     12  C   UNL     1       2.373   7.608  19.201  0.00  0.00    +0.000 A 
ATOM     13  C   UNL     1       4.652   6.039  16.887  0.00  0.00    +0.000 C 
ATOM     14  C   UNL     1       5.134   6.270  15.661  0.00  0.00    +0.000 C 
ATOM     15  O   UNL     1       5.026   4.904  17.656  0.00  0.00    +0.000 OA
ENDROOT
BRANCH   1  18
ATOM     16  C   UNL     1       4.882   1.285  20.621  0.00  0.00    +0.000 C 
ATOM     17  C   UNL     1       4.242   2.479  19.997  0.00  0.00    +0.000 C 
ATOM     18  C   UNL     1       4.976   3.522  19.588  0.00  0.00    +0.000 C 
ENDBRANCH   1  18
BRANCH  14  19
ATOM     19  C   UNL     1       6.093   5.335  15.047  0.00  0.00    +0.000 C 
ATOM     20  O   UNL     1       7.301   5.536  15.094  0.00  0.00    +0.000 OA
ENDBRANCH  14  19
TORSDOF 2
ENDMDL
MODEL 6
REMARK VINA RESULT:      -6.7      1.942      4.079
REMARK  Name = 
REMARK  3 active torsions:
REMARK  status: ('A' for Active; 'I' for Inactive)
REMARK    1  A    between atoms: C_1  and  C_2
REMARK    2  A    between atoms: C_3  and  C_4
REMARK    3  A    between atoms: C_17  and  C_18
REMARK                            x       y       z     vdW  Elec       q    Type
REMARK                         _______ _______ _______ _____ _____    ______ ____
ROOT
ATOM      1  C   UNL     1       6.066   5.113  15.605  0.00  0.00    +0.000 C 
ATOM      2  N   UNL     1       5.033   4.493  16.093  0.00  0.00    +0.000 NA
ATOM      3  C   UNL     1       4.637   4.976  17.334  0.00  0.00    +0.000 A 
ATOM      4  C   UNL     1       5.253   6.016  17.985  0.00  0.00    +0.000 A 
ATOM      5  O   UNL     1       4.603   6.203  19.186  0.00  0.00    +0.000 OA
ATOM      6  C   UNL     1       3.598   5.268  19.252  0.00  0.00    +0.000 A 
ATOM      7  C   UNL     1       2.694   5.090  20.299  0.00  0.00    +0.000 A 
ATOM      8  C   UNL     1       1.753   4.055  20.148  0.00  0.00    +0.000 A 
ATOM      9  C   UNL     1       1.734   3.253  19.007  0.00  0.00    +0.000 A 
ATOM     10 BR   UNL     1       0.460   1.863  18.844  0.00  0.00    +0.000 Br
ATOM     11  C   UNL     1       2.648   3.448  17.970  0.00  0.00    +0.000 A 
ATOM     12  C   UNL     1       3.590   4.478  18.107  0.00  0.00    +0.000 A 
ATOM     13  C   UNL     1       6.360   6.681  17.415  0.00  0.00    +0.000 C 
ATOM     14  C   UNL     1       6.977   7.711  18.003  0.00  0.00    +0.000 C 
ATOM     15  O   UNL     1       6.765   6.164  16.155  0.00  0.00    +0.000 OA
ENDROOT
BRANCH   1  18
ATOM     16  C   UNL     1       6.669   3.514  12.135  0.00  0.00    +0.000 C 
ATOM     17  C   UNL     1       6.034   3.833  13.447  0.00  0.00    +0.000 C 
ATOM     18  C   UNL     1       6.619   4.671  14.312  0.00  0.00    +0.000 C 
ENDBRANCH   1  18
BRANCH  14  19
ATOM     19  C   UNL     1       8.128   8.364  17.353  0.00  0.00    +0.000 C 
ATOM     20  O   UNL     1       8.620   9.391  17.806  0.00  0.00    +0.000 OA
ENDBRANCH  14  19
TORSDOF 2
ENDMDL
MODEL 7
REMARK VINA RESULT:      -6.6      5.343      6.964
REMARK  Name = 
REMARK  3 active torsions:
REMARK  status: ('A' for Active; 'I' for Inactive)
REMARK    1  A    between atoms: C_1  and  C_2
REMARK    2  A    between atoms: C_3  and  C_4
REMARK    3  A    between atoms: C_17  and  C_18
REMARK                            x       y       z     vdW  Elec       q    Type
REMARK                         _______ _______ _______ _____ _____    ______ ____
ROOT
ATOM      1  C   UNL     1       2.424   5.970  19.901  0.00  0.00    +0.000 C 
ATOM      2  N   UNL     1       1.674   6.933  20.348  0.00  0.00    +0.000 NA
ATOM      3  C   UNL     1       1.746   8.088  19.578  0.00  0.00    +0.000 A 
ATOM      4  C   UNL     1       2.515   8.210  18.448  0.00  0.00    +0.000 A 
ATOM      5  O   UNL     1       2.349   9.490  17.964  0.00  0.00    +0.000 OA
ATOM      6  C   UNL     1       1.482  10.134  18.814  0.00  0.00    +0.000 A 
ATOM      7  C   UNL     1       1.039  11.452  18.709  0.00  0.00    +0.000 A 
ATOM      8  C   UNL     1       0.155  11.900  19.707  0.00  0.00    +0.000 A 
ATOM      9  C   UNL     1      -0.251  11.061  20.745  0.00  0.00    +0.000 A 
ATOM     10 BR   UNL     1      -1.434  11.702  22.076  0.00  0.00    +0.000 Br
ATOM     11  C   UNL     1       0.202   9.744  20.831  0.00  0.00    +0.000 A 
ATOM     12  C   UNL     1       1.083   9.285  19.841  0.00  0.00    +0.000 A 
ATOM     13  C   UNL     1       3.301   7.134  17.979  0.00  0.00    +0.000 C 
ATOM     14  C   UNL     1       4.047   7.202  16.872  0.00  0.00    +0.000 C 
ATOM     15  O   UNL     1       3.231   5.967  18.786  0.00  0.00    +0.000 OA
ENDROOT
BRANCH   1  18
ATOM     16  C   UNL     1       1.639   2.592  21.615  0.00  0.00    +0.000 C 
ATOM     17  C   UNL     1       1.443   3.888  20.902  0.00  0.00    +0.000 C 
ATOM     18  C   UNL     1       2.477   4.700  20.650  0.00  0.00    +0.000 C 
ENDBRANCH   1  18
BRANCH  14  19
ATOM     19  C   UNL     1       4.846   6.042  16.436  0.00  0.00    +0.000 C 
ATOM     20  O   UNL     1       5.589   6.106  15.464  0.00  0.00    +0.000 OA
ENDBRANCH  14  19
TORSDOF 2
ENDMDL
MODEL 8
REMARK VINA RESULT:      -6.6      5.694      7.179
REMARK  Name = 
REMARK  3 active torsions:
REMARK  status: ('A' for Active; 'I' for Inactive)
REMARK    1  A    between atoms: C_1  and  C_2
REMARK    2  A    between atoms: C_3  and  C_4
REMARK    3  A    between atoms: C_17  and  C_18
REMARK                            x       y       z     vdW  Elec       q    Type
REMARK                         _______ _______ _______ _____ _____    ______ ____
ROOT
ATOM      1  C   UNL     1       1.779   9.791  18.829  0.00  0.00    +0.000 C 
ATOM      2  N   UNL     1       2.416   8.846  18.205  0.00  0.00    +0.000 NA
ATOM      3  C   UNL     1       2.408   7.635  18.887  0.00  0.00    +0.000 A 
ATOM      4  C   UNL     1       1.780   7.437  20.091  0.00  0.00    +0.000 A 
ATOM      5  O   UNL     1       1.998   6.129  20.467  0.00  0.00    +0.000 OA
ATOM      6  C   UNL     1       2.765   5.547  19.485  0.00  0.00    +0.000 A 
ATOM      7  C   UNL     1       3.228   4.233  19.459  0.00  0.00    +0.000 A 
ATOM      8  C   UNL     1       4.008   3.862  18.349  0.00  0.00    +0.000 A 
ATOM      9  C   UNL     1       4.299   4.771  17.331  0.00  0.00    +0.000 A 
ATOM     10 BR   UNL     1       5.361   4.240  15.858  0.00  0.00    +0.000 Br
ATOM     11  C   UNL     1       3.824   6.083  17.375  0.00  0.00    +0.000 A 
ATOM     12  C   UNL     1       3.043   6.465  18.476  0.00  0.00    +0.000 A 
ATOM     13  C   UNL     1       1.078   8.482  20.729  0.00  0.00    +0.000 C 
ATOM     14  C   UNL     1       0.434   8.327  21.891  0.00  0.00    +0.000 C 
ATOM     15  O   UNL     1       1.110   9.718  20.030  0.00  0.00    +0.000 OA
ENDROOT
BRANCH   1  18
ATOM     16  C   UNL     1       1.772  13.607  18.193  0.00  0.00    +0.000 C 
ATOM     17  C   UNL     1       1.736  12.300  18.910  0.00  0.00    +0.000 C 
ATOM     18  C   UNL     1       1.747  11.142  18.237  0.00  0.00    +0.000 C 
ENDBRANCH   1  18
BRANCH  14  19
ATOM     19  C   UNL     1      -0.283   9.460  22.505  0.00  0.00    +0.000 C 
ATOM     20  O   UNL     1       0.140  10.011  23.515  0.00  0.00    +0.000 OA
ENDBRANCH  14  19
TORSDOF 2
ENDMDL
MODEL 9
REMARK VINA RESULT:      -6.4      6.570      8.036
REMARK  Name = 
REMARK  3 active torsions:
REMARK  status: ('A' for Active; 'I' for Inactive)
REMARK    1  A    between atoms: C_1  and  C_2
REMARK    2  A    between atoms: C_3  and  C_4
REMARK    3  A    between atoms: C_17  and  C_18
REMARK                            x       y       z     vdW  Elec       q    Type
REMARK                         _______ _______ _______ _____ _____    ______ ____
ROOT
ATOM      1  C   UNL     1       0.856  10.524  19.126  0.00  0.00    +0.000 C 
ATOM      2  N   UNL     1       1.626   9.738  18.433  0.00  0.00    +0.000 NA
ATOM      3  C   UNL     1       1.910   8.540  19.077  0.00  0.00    +0.000 A 
ATOM      4  C   UNL     1       1.421   8.199  20.314  0.00  0.00    +0.000 A 
ATOM      5  O   UNL     1       1.924   6.956  20.635  0.00  0.00    +0.000 OA
ATOM      6  C   UNL     1       2.721   6.559  19.588  0.00  0.00    +0.000 A 
ATOM      7  C   UNL     1       3.437   5.367  19.492  0.00  0.00    +0.000 A 
ATOM      8  C   UNL     1       4.195   5.181  18.322  0.00  0.00    +0.000 A 
ATOM      9  C   UNL     1       4.225   6.146  17.316  0.00  0.00    +0.000 A 
ATOM     10 BR   UNL     1       5.265   5.866  15.760  0.00  0.00    +0.000 Br
ATOM     11  C   UNL     1       3.499   7.333  17.430  0.00  0.00    +0.000 A 
ATOM     12  C   UNL     1       2.737   7.530  18.591  0.00  0.00    +0.000 A 
ATOM     13  C   UNL     1       0.569   9.069  21.028  0.00  0.00    +0.000 C 
ATOM     14  C   UNL     1       0.053   8.768  22.225  0.00  0.00    +0.000 C 
ATOM     15  O   UNL     1       0.302  10.297  20.365  0.00  0.00    +0.000 OA
ENDROOT
BRANCH   1  18
ATOM     16  C   UNL     1       0.023  14.267  18.609  0.00  0.00    +0.000 C 
ATOM     17  C   UNL     1       0.299  12.967  19.286  0.00  0.00    +0.000 C 
ATOM     18  C   UNL     1       0.511  11.850  18.579  0.00  0.00    +0.000 C 
ENDBRANCH   1  18
BRANCH  14  19
ATOM     19  C   UNL     1      -0.832   9.722  22.918  0.00  0.00    +0.000 C 
ATOM     20  O   UNL     1      -0.396  10.756  23.410  0.00  0.00    +0.000 OA
ENDBRANCH  14  19
TORSDOF 2
ENDMDL
