MODEL 1
REMARK VINA RESULT:      -7.2      0.000      0.000
REMARK  Name = 
REMARK  13 active torsions:
REMARK  status: ('A' for Active; 'I' for Inactive)
REMARK    1  A    between atoms: C_1  and  C_2
REMARK    2  A    between atoms: C_2  and  O_3
REMARK    3  A    between atoms: O_3  and  C_4
REMARK    4  A    between atoms: C_4  and  C_5
REMARK    5  A    between atoms: C_5  and  C_6
REMARK    6  A    between atoms: C_6  and  N_7
REMARK    7  A    between atoms: C_8  and  C_10
REMARK    8  A    between atoms: C_13  and  N_14
REMARK    9  A    between atoms: N_14  and  C_15
REMARK   10  A    between atoms: N_14  and  S_16
REMARK   11  A    between atoms: S_16  and  C_19
REMARK   12  A    between atoms: C_22  and  O_23
REMARK   13  A    between atoms: O_23  and  C_24
REMARK                            x       y       z     vdW  Elec       q    Type
REMARK                         _______ _______ _______ _____ _____    ______ ____
ROOT
ATOM      1  C   UNL     1       6.071   4.634  16.726  0.00  0.00    +0.000 A 
ATOM      2  C   UNL     1       5.056   3.774  16.276  0.00  0.00    +0.000 A 
ATOM      3  C   UNL     1       4.185   3.157  17.183  0.00  0.00    +0.000 A 
ATOM      4  C   UNL     1       4.340   3.381  18.551  0.00  0.00    +0.000 A 
ATOM      5  C   UNL     1       5.372   4.206  19.007  0.00  0.00    +0.000 A 
ATOM      6  C   UNL     1       6.236   4.830  18.102  0.00  0.00    +0.000 A 
ENDROOT
BRANCH   1   8
ATOM      7  N   UNL     1       6.991   4.728  14.458  0.00  0.00    +0.000 N 
ATOM      8  C   UNL     1       6.937   5.304  15.713  0.00  0.00    +0.000 C 
ATOM      9  O   UNL     1       7.586   6.297  16.031  0.00  0.00    +0.000 OA
ATOM     10  H   UNL     1       6.555   3.833  14.296  0.00  0.00    +0.000 HD
BRANCH   7  11
ATOM     11  C   UNL     1       7.853   5.254  13.411  0.00  0.00    +0.000 C 
BRANCH  11  12
ATOM     12  C   UNL     1       7.337   4.901  12.016  0.00  0.00    +0.000 C 
BRANCH  12  13
ATOM     13  C   UNL     1       6.789   3.479  11.956  0.00  0.00    +0.000 C 
BRANCH  13  14
ATOM     14  O   UNL     1       5.399   3.496  12.260  0.00  0.00    +0.000 OA
BRANCH  14  16
ATOM     15  C   UNL     1       3.606   3.502  10.688  0.00  0.00    +0.000 C 
ATOM     16  C   UNL     1       4.644   2.653  11.395  0.00  0.00    +0.000 C 
ENDBRANCH  14  16
ENDBRANCH  13  14
ENDBRANCH  12  13
ENDBRANCH  11  12
ENDBRANCH   7  11
ENDBRANCH   1   8
BRANCH   4  17
ATOM     17  N   UNL     1       3.446   2.838  19.525  0.00  0.00    +0.000 N 
ATOM     18  C   UNL     1       4.009   2.362  20.794  0.00  0.00    +0.000 C 
BRANCH  17  19
ATOM     19  S   UNL     1       1.814   3.305  19.499  0.00  0.00    +0.000 S 
ATOM     20  O   UNL     1       1.196   2.788  18.297  0.00  0.00    +0.000 OA
ATOM     21  O   UNL     1       1.248   3.017  20.803  0.00  0.00    +0.000 OA
BRANCH  19  22
ATOM     22  C   UNL     1       1.868   5.083  19.348  0.00  0.00    +0.000 A 
ATOM     23  C   UNL     1       1.766   5.875  20.493  0.00  0.00    +0.000 A 
ATOM     24  C   UNL     1       1.815   7.265  20.371  0.00  0.00    +0.000 A 
ATOM     25  C   UNL     1       2.005   7.866  19.122  0.00  0.00    +0.000 A 
ATOM     26  C   UNL     1       2.145   7.066  17.987  0.00  0.00    +0.000 A 
ATOM     27  C   UNL     1       2.087   5.671  18.099  0.00  0.00    +0.000 A 
BRANCH  25  28
ATOM     28  O   UNL     1       1.996   9.232  19.137  0.00  0.00    +0.000 OA
ATOM     29  C   UNL     1       0.835   9.850  19.679  0.00  0.00    +0.000 C 
ENDBRANCH  25  28
ENDBRANCH  19  22
ENDBRANCH  17  19
ENDBRANCH   4  17
TORSDOF 10
ENDMDL
MODEL 2
REMARK VINA RESULT:      -7.1      2.958      7.058
REMARK  Name = 
REMARK  13 active torsions:
REMARK  status: ('A' for Active; 'I' for Inactive)
REMARK    1  A    between atoms: C_1  and  C_2
REMARK    2  A    between atoms: C_2  and  O_3
REMARK    3  A    between atoms: O_3  and  C_4
REMARK    4  A    between atoms: C_4  and  C_5
REMARK    5  A    between atoms: C_5  and  C_6
REMARK    6  A    between atoms: C_6  and  N_7
REMARK    7  A    between atoms: C_8  and  C_10
REMARK    8  A    between atoms: C_13  and  N_14
REMARK    9  A    between atoms: N_14  and  C_15
REMARK   10  A    between atoms: N_14  and  S_16
REMARK   11  A    between atoms: S_16  and  C_19
REMARK   12  A    between atoms: C_22  and  O_23
REMARK   13  A    between atoms: O_23  and  C_24
REMARK                            x       y       z     vdW  Elec       q    Type
REMARK                         _______ _______ _______ _____ _____    ______ ____
ROOT
ATOM      1  C   UNL     1       1.971   7.701  18.849  0.00  0.00    +0.000 A 
ATOM      2  C   UNL     1       2.102   6.943  17.672  0.00  0.00    +0.000 A 
ATOM      3  C   UNL     1       2.208   5.548  17.726  0.00  0.00    +0.000 A 
ATOM      4  C   UNL     1       2.207   4.902  18.963  0.00  0.00    +0.000 A 
ATOM      5  C   UNL     1       2.115   5.653  20.138  0.00  0.00    +0.000 A 
ATOM      6  C   UNL     1       1.999   7.046  20.085  0.00  0.00    +0.000 A 
ENDROOT
BRANCH   1   8
ATOM      7  N   UNL     1       1.092   9.813  19.725  0.00  0.00    +0.000 N 
ATOM      8  C   UNL     1       1.810   9.179  18.729  0.00  0.00    +0.000 C 
ATOM      9  O   UNL     1       2.277   9.763  17.754  0.00  0.00    +0.000 OA
ATOM     10  H   UNL     1       0.608   9.265  20.422  0.00  0.00    +0.000 HD
BRANCH   7  11
ATOM     11  C   UNL     1       0.814  11.239  19.679  0.00  0.00    +0.000 C 
BRANCH  11  12
ATOM     12  C   UNL     1      -0.662  11.541  19.943  0.00  0.00    +0.000 C 
BRANCH  12  13
ATOM     13  C   UNL     1      -1.582  10.642  19.125  0.00  0.00    +0.000 C 
BRANCH  13  14
ATOM     14  O   UNL     1      -1.274  10.786  17.742  0.00  0.00    +0.000 OA
BRANCH  14  16
ATOM     15  C   UNL     1      -2.688  10.454  15.851  0.00  0.00    +0.000 C 
ATOM     16  C   UNL     1      -1.884   9.777  16.943  0.00  0.00    +0.000 C 
ENDBRANCH  14  16
ENDBRANCH  13  14
ENDBRANCH  12  13
ENDBRANCH  11  12
ENDBRANCH   7  11
ENDBRANCH   1   8
BRANCH   4  17
ATOM     17  N   UNL     1       2.244   3.479  19.086  0.00  0.00    +0.000 N 
ATOM     18  C   UNL     1       1.044   2.720  18.716  0.00  0.00    +0.000 C 
BRANCH  17  19
ATOM     19  S   UNL     1       3.743   2.684  19.030  0.00  0.00    +0.000 S 
ATOM     20  O   UNL     1       4.211   2.467  20.382  0.00  0.00    +0.000 OA
ATOM     21  O   UNL     1       3.623   1.574  18.103  0.00  0.00    +0.000 OA
BRANCH  19  22
ATOM     22  C   UNL     1       4.840   3.868  18.270  0.00  0.00    +0.000 A 
ATOM     23  C   UNL     1       5.616   4.704  19.076  0.00  0.00    +0.000 A 
ATOM     24  C   UNL     1       6.479   5.624  18.477  0.00  0.00    +0.000 A 
ATOM     25  C   UNL     1       6.599   5.689  17.085  0.00  0.00    +0.000 A 
ATOM     26  C   UNL     1       5.849   4.824  16.286  0.00  0.00    +0.000 A 
ATOM     27  C   UNL     1       4.974   3.904  16.879  0.00  0.00    +0.000 A 
BRANCH  25  28
ATOM     28  O   UNL     1       7.448   6.657  16.627  0.00  0.00    +0.000 OA
ATOM     29  C   UNL     1       7.649   7.775  17.484  0.00  0.00    +0.000 C 
ENDBRANCH  25  28
ENDBRANCH  19  22
ENDBRANCH  17  19
ENDBRANCH   4  17
TORSDOF 10
ENDMDL
MODEL 3
REMARK VINA RESULT:      -7.1      0.462      1.024
REMARK  Name = 
REMARK  13 active torsions:
REMARK  status: ('A' for Active; 'I' for Inactive)
REMARK    1  A    between atoms: C_1  and  C_2
REMARK    2  A    between atoms: C_2  and  O_3
REMARK    3  A    between atoms: O_3  and  C_4
REMARK    4  A    between atoms: C_4  and  C_5
REMARK    5  A    between atoms: C_5  and  C_6
REMARK    6  A    between atoms: C_6  and  N_7
REMARK    7  A    between atoms: C_8  and  C_10
REMARK    8  A    between atoms: C_13  and  N_14
REMARK    9  A    between atoms: N_14  and  C_15
REMARK   10  A    between atoms: N_14  and  S_16
REMARK   11  A    between atoms: S_16  and  C_19
REMARK   12  A    between atoms: C_22  and  O_23
REMARK   13  A    between atoms: O_23  and  C_24
REMARK                            x       y       z     vdW  Elec       q    Type
REMARK                         _______ _______ _______ _____ _____    ______ ____
ROOT
ATOM      1  C   UNL     1       6.142   4.651  16.792  0.00  0.00    +0.000 A 
ATOM      2  C   UNL     1       5.152   3.785  16.299  0.00  0.00    +0.000 A 
ATOM      3  C   UNL     1       4.266   3.139  17.170  0.00  0.00    +0.000 A 
ATOM      4  C   UNL     1       4.381   3.340  18.547  0.00  0.00    +0.000 A 
ATOM      5  C   UNL     1       5.388   4.171  19.045  0.00  0.00    +0.000 A 
ATOM      6  C   UNL     1       6.267   4.824  18.175  0.00  0.00    +0.000 A 
ENDROOT
BRANCH   1   8
ATOM      7  N   UNL     1       7.183   4.758  14.577  0.00  0.00    +0.000 N 
ATOM      8  C   UNL     1       7.025   5.352  15.815  0.00  0.00    +0.000 C 
ATOM      9  O   UNL     1       7.598   6.386  16.148  0.00  0.00    +0.000 OA
ATOM     10  H   UNL     1       6.807   3.837  14.410  0.00  0.00    +0.000 HD
BRANCH   7  11
ATOM     11  C   UNL     1       8.071   5.315  13.569  0.00  0.00    +0.000 C 
BRANCH  11  12
ATOM     12  C   UNL     1       7.515   5.135  12.156  0.00  0.00    +0.000 C 
BRANCH  12  13
ATOM     13  C   UNL     1       7.058   3.702  11.903  0.00  0.00    +0.000 C 
BRANCH  13  14
ATOM     14  O   UNL     1       5.696   3.566  12.294  0.00  0.00    +0.000 OA
BRANCH  14  16
ATOM     15  C   UNL     1       3.755   3.204  10.957  0.00  0.00    +0.000 C 
ATOM     16  C   UNL     1       5.010   2.577  11.531  0.00  0.00    +0.000 C 
ENDBRANCH  14  16
ENDBRANCH  13  14
ENDBRANCH  12  13
ENDBRANCH  11  12
ENDBRANCH   7  11
ENDBRANCH   1   8
BRANCH   4  17
ATOM     17  N   UNL     1       3.469   2.766  19.485  0.00  0.00    +0.000 N 
ATOM     18  C   UNL     1       4.008   2.250  20.749  0.00  0.00    +0.000 C 
BRANCH  17  19
ATOM     19  S   UNL     1       1.838   3.235  19.444  0.00  0.00    +0.000 S 
ATOM     20  O   UNL     1       1.253   2.793  18.195  0.00  0.00    +0.000 OA
ATOM     21  O   UNL     1       1.237   2.866  20.712  0.00  0.00    +0.000 OA
BRANCH  19  22
ATOM     22  C   UNL     1       1.893   5.018  19.406  0.00  0.00    +0.000 A 
ATOM     23  C   UNL     1       2.018   5.677  18.181  0.00  0.00    +0.000 A 
ATOM     24  C   UNL     1       2.055   7.072  18.154  0.00  0.00    +0.000 A 
ATOM     25  C   UNL     1       1.929   7.812  19.335  0.00  0.00    +0.000 A 
ATOM     26  C   UNL     1       1.765   7.148  20.552  0.00  0.00    +0.000 A 
ATOM     27  C   UNL     1       1.738   5.747  20.588  0.00  0.00    +0.000 A 
BRANCH  25  28
ATOM     28  O   UNL     1       2.019   9.167  19.175  0.00  0.00    +0.000 OA
ATOM     29  C   UNL     1       2.019   9.644  17.835  0.00  0.00    +0.000 C 
ENDBRANCH  25  28
ENDBRANCH  19  22
ENDBRANCH  17  19
ENDBRANCH   4  17
TORSDOF 10
ENDMDL
MODEL 4
REMARK VINA RESULT:      -7.0      4.233      7.587
REMARK  Name = 
REMARK  13 active torsions:
REMARK  status: ('A' for Active; 'I' for Inactive)
REMARK    1  A    between atoms: C_1  and  C_2
REMARK    2  A    between atoms: C_2  and  O_3
REMARK    3  A    between atoms: O_3  and  C_4
REMARK    4  A    between atoms: C_4  and  C_5
REMARK    5  A    between atoms: C_5  and  C_6
REMARK    6  A    between atoms: C_6  and  N_7
REMARK    7  A    between atoms: C_8  and  C_10
REMARK    8  A    between atoms: C_13  and  N_14
REMARK    9  A    between atoms: N_14  and  C_15
REMARK   10  A    between atoms: N_14  and  S_16
REMARK   11  A    between atoms: S_16  and  C_19
REMARK   12  A    between atoms: C_22  and  O_23
REMARK   13  A    between atoms: O_23  and  C_24
REMARK                            x       y       z     vdW  Elec       q    Type
REMARK                         _______ _______ _______ _____ _____    ______ ____
ROOT
ATOM      1  C   UNL     1       2.488   7.338  18.953  0.00  0.00    +0.000 A 
ATOM      2  C   UNL     1       2.443   8.192  17.838  0.00  0.00    +0.000 A 
ATOM      3  C   UNL     1       1.824   9.446  17.920  0.00  0.00    +0.000 A 
ATOM      4  C   UNL     1       1.227   9.845  19.116  0.00  0.00    +0.000 A 
ATOM      5  C   UNL     1       1.236   8.984  20.217  0.00  0.00    +0.000 A 
ATOM      6  C   UNL     1       1.861   7.736  20.139  0.00  0.00    +0.000 A 
ENDROOT
BRANCH   1   8
ATOM      7  N   UNL     1       3.160   5.418  17.588  0.00  0.00    +0.000 N 
ATOM      8  C   UNL     1       3.204   6.036  18.823  0.00  0.00    +0.000 C 
ATOM      9  O   UNL     1       3.763   5.551  19.804  0.00  0.00    +0.000 OA
ATOM     10  H   UNL     1       2.565   5.789  16.862  0.00  0.00    +0.000 HD
BRANCH   7  11
ATOM     11  C   UNL     1       3.764   4.115  17.362  0.00  0.00    +0.000 C 
BRANCH  11  12
ATOM     12  C   UNL     1       2.734   2.988  17.443  0.00  0.00    +0.000 C 
BRANCH  12  13
ATOM     13  C   UNL     1       2.981   2.076  18.639  0.00  0.00    +0.000 C 
BRANCH  13  14
ATOM     14  O   UNL     1       1.739   1.765  19.260  0.00  0.00    +0.000 OA
BRANCH  14  16
ATOM     15  C   UNL     1       1.116   3.537  20.729  0.00  0.00    +0.000 C 
ATOM     16  C   UNL     1       0.889   2.903  19.371  0.00  0.00    +0.000 C 
ENDBRANCH  14  16
ENDBRANCH  13  14
ENDBRANCH  12  13
ENDBRANCH  11  12
ENDBRANCH   7  11
ENDBRANCH   1   8
BRANCH   4  17
ATOM     17  N   UNL     1       0.639  11.136  19.288  0.00  0.00    +0.000 N 
ATOM     18  C   UNL     1       1.515  12.311  19.212  0.00  0.00    +0.000 C 
BRANCH  17  19
ATOM     19  S   UNL     1      -1.011  11.344  18.949  0.00  0.00    +0.000 S 
ATOM     20  O   UNL     1      -1.163  12.425  17.998  0.00  0.00    +0.000 OA
ATOM     21  O   UNL     1      -1.579  10.037  18.678  0.00  0.00    +0.000 OA
BRANCH  19  22
ATOM     22  C   UNL     1      -1.711  11.893  20.497  0.00  0.00    +0.000 A 
ATOM     23  C   UNL     1      -1.107  11.517  21.698  0.00  0.00    +0.000 A 
ATOM     24  C   UNL     1      -1.654  11.955  22.906  0.00  0.00    +0.000 A 
ATOM     25  C   UNL     1      -2.774  12.793  22.921  0.00  0.00    +0.000 A 
ATOM     26  C   UNL     1      -3.349  13.196  21.715  0.00  0.00    +0.000 A 
ATOM     27  C   UNL     1      -2.813  12.754  20.498  0.00  0.00    +0.000 A 
BRANCH  25  28
ATOM     28  O   UNL     1      -3.231  13.116  24.167  0.00  0.00    +0.000 OA
ATOM     29  C   UNL     1      -4.384  12.415  24.617  0.00  0.00    +0.000 C 
ENDBRANCH  25  28
ENDBRANCH  19  22
ENDBRANCH  17  19
ENDBRANCH   4  17
TORSDOF 10
ENDMDL
MODEL 5
REMARK VINA RESULT:      -7.0      3.069      7.514
REMARK  Name = 
REMARK  13 active torsions:
REMARK  status: ('A' for Active; 'I' for Inactive)
REMARK    1  A    between atoms: C_1  and  C_2
REMARK    2  A    between atoms: C_2  and  O_3
REMARK    3  A    between atoms: O_3  and  C_4
REMARK    4  A    between atoms: C_4  and  C_5
REMARK    5  A    between atoms: C_5  and  C_6
REMARK    6  A    between atoms: C_6  and  N_7
REMARK    7  A    between atoms: C_8  and  C_10
REMARK    8  A    between atoms: C_13  and  N_14
REMARK    9  A    between atoms: N_14  and  C_15
REMARK   10  A    between atoms: N_14  and  S_16
REMARK   11  A    between atoms: S_16  and  C_19
REMARK   12  A    between atoms: C_22  and  O_23
REMARK   13  A    between atoms: O_23  and  C_24
REMARK                            x       y       z     vdW  Elec       q    Type
REMARK                         _______ _______ _______ _____ _____    ______ ____
ROOT
ATOM      1  C   UNL     1       1.693   7.564  20.462  0.00  0.00    +0.000 A 
ATOM      2  C   UNL     1       2.267   7.546  19.179  0.00  0.00    +0.000 A 
ATOM      3  C   UNL     1       2.549   6.335  18.536  0.00  0.00    +0.000 A 
ATOM      4  C   UNL     1       2.278   5.129  19.184  0.00  0.00    +0.000 A 
ATOM      5  C   UNL     1       1.743   5.140  20.475  0.00  0.00    +0.000 A 
ATOM      6  C   UNL     1       1.453   6.350  21.115  0.00  0.00    +0.000 A 
ENDROOT
BRANCH   1   8
ATOM      7  N   UNL     1       0.797   9.834  20.254  0.00  0.00    +0.000 N 
ATOM      8  C   UNL     1       1.367   8.882  21.078  0.00  0.00    +0.000 C 
ATOM      9  O   UNL     1       1.645   9.086  22.257  0.00  0.00    +0.000 OA
ATOM     10  H   UNL     1       0.727   9.663  19.262  0.00  0.00    +0.000 HD
BRANCH   7  11
ATOM     11  C   UNL     1       0.499  11.176  20.728  0.00  0.00    +0.000 C 
BRANCH  11  12
ATOM     12  C   UNL     1      -0.801  11.716  20.129  0.00  0.00    +0.000 C 
BRANCH  12  13
ATOM     13  C   UNL     1      -0.910  11.412  18.639  0.00  0.00    +0.000 C 
BRANCH  13  14
ATOM     14  O   UNL     1      -1.558  10.157  18.460  0.00  0.00    +0.000 OA
BRANCH  14  16
ATOM     15  C   UNL     1      -3.517  10.558  17.160  0.00  0.00    +0.000 C 
ATOM     16  C   UNL     1      -2.103  10.011  17.152  0.00  0.00    +0.000 C 
ENDBRANCH  14  16
ENDBRANCH  13  14
ENDBRANCH  12  13
ENDBRANCH  11  12
ENDBRANCH   7  11
ENDBRANCH   1   8
BRANCH   4  17
ATOM     17  N   UNL     1       2.478   3.860  18.560  0.00  0.00    +0.000 N 
ATOM     18  C   UNL     1       1.601   3.491  17.442  0.00  0.00    +0.000 C 
BRANCH  17  19
ATOM     19  S   UNL     1       4.005   3.124  18.655  0.00  0.00    +0.000 S 
ATOM     20  O   UNL     1       4.333   2.900  20.047  0.00  0.00    +0.000 OA
ATOM     21  O   UNL     1       4.031   2.028  17.705  0.00  0.00    +0.000 OA
BRANCH  19  22
ATOM     22  C   UNL     1       5.130   4.363  18.035  0.00  0.00    +0.000 A 
ATOM     23  C   UNL     1       6.022   4.983  18.912  0.00  0.00    +0.000 A 
ATOM     24  C   UNL     1       6.905   5.947  18.421  0.00  0.00    +0.000 A 
ATOM     25  C   UNL     1       6.929   6.267  17.059  0.00  0.00    +0.000 A 
ATOM     26  C   UNL     1       6.060   5.615  16.183  0.00  0.00    +0.000 A 
ATOM     27  C   UNL     1       5.164   4.653  16.668  0.00  0.00    +0.000 A 
BRANCH  25  28
ATOM     28  O   UNL     1       7.812   7.252  16.717  0.00  0.00    +0.000 OA
ATOM     29  C   UNL     1       7.959   8.318  17.649  0.00  0.00    +0.000 C 
ENDBRANCH  25  28
ENDBRANCH  19  22
ENDBRANCH  17  19
ENDBRANCH   4  17
TORSDOF 10
ENDMDL
MODEL 6
REMARK VINA RESULT:      -6.9      3.126      7.510
REMARK  Name = 
REMARK  13 active torsions:
REMARK  status: ('A' for Active; 'I' for Inactive)
REMARK    1  A    between atoms: C_1  and  C_2
REMARK    2  A    between atoms: C_2  and  O_3
REMARK    3  A    between atoms: O_3  and  C_4
REMARK    4  A    between atoms: C_4  and  C_5
REMARK    5  A    between atoms: C_5  and  C_6
REMARK    6  A    between atoms: C_6  and  N_7
REMARK    7  A    between atoms: C_8  and  C_10
REMARK    8  A    between atoms: C_13  and  N_14
REMARK    9  A    between atoms: N_14  and  C_15
REMARK   10  A    between atoms: N_14  and  S_16
REMARK   11  A    between atoms: S_16  and  C_19
REMARK   12  A    between atoms: C_22  and  O_23
REMARK   13  A    between atoms: O_23  and  C_24
REMARK                            x       y       z     vdW  Elec       q    Type
REMARK                         _______ _______ _______ _____ _____    ______ ____
ROOT
ATOM      1  C   UNL     1       2.042   7.381  18.645  0.00  0.00    +0.000 A 
ATOM      2  C   UNL     1       2.323   7.053  19.982  0.00  0.00    +0.000 A 
ATOM      3  C   UNL     1       2.509   5.720  20.369  0.00  0.00    +0.000 A 
ATOM      4  C   UNL     1       2.393   4.703  19.421  0.00  0.00    +0.000 A 
ATOM      5  C   UNL     1       2.076   5.021  18.098  0.00  0.00    +0.000 A 
ATOM      6  C   UNL     1       1.900   6.352  17.708  0.00  0.00    +0.000 A 
ENDROOT
BRANCH   1   8
ATOM      7  N   UNL     1       1.188   9.621  19.151  0.00  0.00    +0.000 N 
ATOM      8  C   UNL     1       1.904   8.821  18.281  0.00  0.00    +0.000 C 
ATOM      9  O   UNL     1       2.387   9.228  17.227  0.00  0.00    +0.000 OA
ATOM     10  H   UNL     1       0.691   9.204  19.923  0.00  0.00    +0.000 HD
BRANCH   7  11
ATOM     11  C   UNL     1       0.931  11.023  18.865  0.00  0.00    +0.000 C 
BRANCH  11  12
ATOM     12  C   UNL     1      -0.047  11.640  19.866  0.00  0.00    +0.000 C 
BRANCH  12  13
ATOM     13  C   UNL     1       0.278  11.234  21.300  0.00  0.00    +0.000 C 
BRANCH  13  14
ATOM     14  O   UNL     1      -0.799  10.466  21.827  0.00  0.00    +0.000 OA
BRANCH  14  16
ATOM     15  C   UNL     1       1.077   9.231  22.631  0.00  0.00    +0.000 C 
ATOM     16  C   UNL     1      -0.378   9.586  22.867  0.00  0.00    +0.000 C 
ENDBRANCH  14  16
ENDBRANCH  13  14
ENDBRANCH  12  13
ENDBRANCH  11  12
ENDBRANCH   7  11
ENDBRANCH   1   8
BRANCH   4  17
ATOM     17  N   UNL     1       2.637   3.330  19.733  0.00  0.00    +0.000 N 
ATOM     18  C   UNL     1       1.489   2.482  20.076  0.00  0.00    +0.000 C 
BRANCH  17  19
ATOM     19  S   UNL     1       4.032   2.579  19.123  0.00  0.00    +0.000 S 
ATOM     20  O   UNL     1       4.789   2.025  20.225  0.00  0.00    +0.000 OA
ATOM     21  O   UNL     1       3.634   1.742  18.007  0.00  0.00    +0.000 OA
BRANCH  19  22
ATOM     22  C   UNL     1       4.989   3.920  18.438  0.00  0.00    +0.000 A 
ATOM     23  C   UNL     1       4.990   4.132  17.058  0.00  0.00    +0.000 A 
ATOM     24  C   UNL     1       5.735   5.187  16.527  0.00  0.00    +0.000 A 
ATOM     25  C   UNL     1       6.446   6.052  17.366  0.00  0.00    +0.000 A 
ATOM     26  C   UNL     1       6.409   5.858  18.748  0.00  0.00    +0.000 A 
ATOM     27  C   UNL     1       5.672   4.796  19.288  0.00  0.00    +0.000 A 
BRANCH  25  28
ATOM     28  O   UNL     1       7.163   7.018  16.718  0.00  0.00    +0.000 OA
ATOM     29  C   UNL     1       7.748   8.024  17.536  0.00  0.00    +0.000 C 
ENDBRANCH  25  28
ENDBRANCH  19  22
ENDBRANCH  17  19
ENDBRANCH   4  17
TORSDOF 10
ENDMDL
MODEL 7
REMARK VINA RESULT:      -6.8      3.754      5.622
REMARK  Name = 
REMARK  13 active torsions:
REMARK  status: ('A' for Active; 'I' for Inactive)
REMARK    1  A    between atoms: C_1  and  C_2
REMARK    2  A    between atoms: C_2  and  O_3
REMARK    3  A    between atoms: O_3  and  C_4
REMARK    4  A    between atoms: C_4  and  C_5
REMARK    5  A    between atoms: C_5  and  C_6
REMARK    6  A    between atoms: C_6  and  N_7
REMARK    7  A    between atoms: C_8  and  C_10
REMARK    8  A    between atoms: C_13  and  N_14
REMARK    9  A    between atoms: N_14  and  C_15
REMARK   10  A    between atoms: N_14  and  S_16
REMARK   11  A    between atoms: S_16  and  C_19
REMARK   12  A    between atoms: C_22  and  O_23
REMARK   13  A    between atoms: O_23  and  C_24
REMARK                            x       y       z     vdW  Elec       q    Type
REMARK                         _______ _______ _______ _____ _____    ______ ____
ROOT
ATOM      1  C   UNL     1       6.603   6.017  17.687  0.00  0.00    +0.000 A 
ATOM      2  C   UNL     1       5.927   5.328  16.666  0.00  0.00    +0.000 A 
ATOM      3  C   UNL     1       5.030   4.297  16.969  0.00  0.00    +0.000 A 
ATOM      4  C   UNL     1       4.819   3.933  18.300  0.00  0.00    +0.000 A 
ATOM      5  C   UNL     1       5.517   4.590  19.317  0.00  0.00    +0.000 A 
ATOM      6  C   UNL     1       6.406   5.626  19.016  0.00  0.00    +0.000 A 
ENDROOT
BRANCH   1   8
ATOM      7  N   UNL     1       7.544   8.229  18.158  0.00  0.00    +0.000 N 
ATOM      8  C   UNL     1       7.509   7.140  17.308  0.00  0.00    +0.000 C 
ATOM      9  O   UNL     1       8.147   7.077  16.261  0.00  0.00    +0.000 OA
ATOM     10  H   UNL     1       6.890   8.290  18.924  0.00  0.00    +0.000 HD
BRANCH   7  11
ATOM     11  C   UNL     1       8.337   9.410  17.857  0.00  0.00    +0.000 C 
BRANCH  11  12
ATOM     12  C   UNL     1       9.214   9.825  19.039  0.00  0.00    +0.000 C 
BRANCH  12  13
ATOM     13  C   UNL     1       9.592  11.301  18.975  0.00  0.00    +0.000 C 
BRANCH  13  14
ATOM     14  O   UNL     1      11.007  11.420  18.866  0.00  0.00    +0.000 OA
BRANCH  14  16
ATOM     15  C   UNL     1      10.826  13.277  20.351  0.00  0.00    +0.000 C 
ATOM     16  C   UNL     1      11.592  12.010  20.023  0.00  0.00    +0.000 C 
ENDBRANCH  14  16
ENDBRANCH  13  14
ENDBRANCH  12  13
ENDBRANCH  11  12
ENDBRANCH   7  11
ENDBRANCH   1   8
BRANCH   4  17
ATOM     17  N   UNL     1       3.869   2.938  18.683  0.00  0.00    +0.000 N 
ATOM     18  C   UNL     1       4.279   1.930  19.668  0.00  0.00    +0.000 C 
BRANCH  17  19
ATOM     19  S   UNL     1       2.212   3.274  18.526  0.00  0.00    +0.000 S 
ATOM     20  O   UNL     1       1.859   3.252  17.122  0.00  0.00    +0.000 OA
ATOM     21  O   UNL     1       1.497   2.447  19.480  0.00  0.00    +0.000 OA
BRANCH  19  22
ATOM     22  C   UNL     1       2.050   4.960  19.090  0.00  0.00    +0.000 A 
ATOM     23  C   UNL     1       1.771   5.212  20.435  0.00  0.00    +0.000 A 
ATOM     24  C   UNL     1       1.652   6.532  20.873  0.00  0.00    +0.000 A 
ATOM     25  C   UNL     1       1.846   7.598  19.989  0.00  0.00    +0.000 A 
ATOM     26  C   UNL     1       2.163   7.339  18.654  0.00  0.00    +0.000 A 
ATOM     27  C   UNL     1       2.275   6.017  18.204  0.00  0.00    +0.000 A 
BRANCH  25  28
ATOM     28  O   UNL     1       1.664   8.837  20.536  0.00  0.00    +0.000 OA
ATOM     29  C   UNL     1       1.219   8.870  21.887  0.00  0.00    +0.000 C 
ENDBRANCH  25  28
ENDBRANCH  19  22
ENDBRANCH  17  19
ENDBRANCH   4  17
TORSDOF 10
ENDMDL
MODEL 8
REMARK VINA RESULT:      -6.8      3.836      6.747
REMARK  Name = 
REMARK  13 active torsions:
REMARK  status: ('A' for Active; 'I' for Inactive)
REMARK    1  A    between atoms: C_1  and  C_2
REMARK    2  A    between atoms: C_2  and  O_3
REMARK    3  A    between atoms: O_3  and  C_4
REMARK    4  A    between atoms: C_4  and  C_5
REMARK    5  A    between atoms: C_5  and  C_6
REMARK    6  A    between atoms: C_6  and  N_7
REMARK    7  A    between atoms: C_8  and  C_10
REMARK    8  A    between atoms: C_13  and  N_14
REMARK    9  A    between atoms: N_14  and  C_15
REMARK   10  A    between atoms: N_14  and  S_16
REMARK   11  A    between atoms: S_16  and  C_19
REMARK   12  A    between atoms: C_22  and  O_23
REMARK   13  A    between atoms: O_23  and  C_24
REMARK                            x       y       z     vdW  Elec       q    Type
REMARK                         _______ _______ _______ _____ _____    ______ ____
ROOT
ATOM      1  C   UNL     1       2.485   6.923  18.453  0.00  0.00    +0.000 A 
ATOM      2  C   UNL     1       2.099   7.151  19.784  0.00  0.00    +0.000 A 
ATOM      3  C   UNL     1       1.632   8.407  20.191  0.00  0.00    +0.000 A 
ATOM      4  C   UNL     1       1.570   9.452  19.268  0.00  0.00    +0.000 A 
ATOM      5  C   UNL     1       1.989   9.242  17.952  0.00  0.00    +0.000 A 
ATOM      6  C   UNL     1       2.446   7.985  17.543  0.00  0.00    +0.000 A 
ENDROOT
BRANCH   1   8
ATOM      7  N   UNL     1       4.275   5.372  17.826  0.00  0.00    +0.000 N 
ATOM      8  C   UNL     1       2.926   5.552  18.064  0.00  0.00    +0.000 C 
ATOM      9  O   UNL     1       2.090   4.660  17.936  0.00  0.00    +0.000 OA
ATOM     10  H   UNL     1       4.892   6.171  17.803  0.00  0.00    +0.000 HD
BRANCH   7  11
ATOM     11  C   UNL     1       4.810   4.097  17.376  0.00  0.00    +0.000 C 
BRANCH  11  12
ATOM     12  C   UNL     1       5.842   4.273  16.261  0.00  0.00    +0.000 C 
BRANCH  12  13
ATOM     13  C   UNL     1       6.132   5.744  15.982  0.00  0.00    +0.000 C 
BRANCH  13  14
ATOM     14  O   UNL     1       7.471   6.041  16.363  0.00  0.00    +0.000 OA
BRANCH  14  16
ATOM     15  C   UNL     1       7.773   8.087  17.550  0.00  0.00    +0.000 C 
ATOM     16  C   UNL     1       7.551   6.592  17.674  0.00  0.00    +0.000 C 
ENDBRANCH  14  16
ENDBRANCH  13  14
ENDBRANCH  12  13
ENDBRANCH  11  12
ENDBRANCH   7  11
ENDBRANCH   1   8
BRANCH   4  17
ATOM     17  N   UNL     1       1.041  10.737  19.599  0.00  0.00    +0.000 N 
ATOM     18  C   UNL     1       1.575  11.909  18.894  0.00  0.00    +0.000 C 
BRANCH  17  19
ATOM     19  S   UNL     1      -0.519  10.844  20.259  0.00  0.00    +0.000 S 
ATOM     20  O   UNL     1      -0.794   9.640  21.015  0.00  0.00    +0.000 OA
ATOM     21  O   UNL     1      -0.653  12.150  20.877  0.00  0.00    +0.000 OA
BRANCH  19  22
ATOM     22  C   UNL     1      -1.599  10.839  18.838  0.00  0.00    +0.000 A 
ATOM     23  C   UNL     1      -1.367   9.932  17.801  0.00  0.00    +0.000 A 
ATOM     24  C   UNL     1      -2.218   9.927  16.694  0.00  0.00    +0.000 A 
ATOM     25  C   UNL     1      -3.317  10.791  16.633  0.00  0.00    +0.000 A 
ATOM     26  C   UNL     1      -3.564  11.667  17.691  0.00  0.00    +0.000 A 
ATOM     27  C   UNL     1      -2.709  11.686  18.801  0.00  0.00    +0.000 A 
BRANCH  25  28
ATOM     28  O   UNL     1      -4.046  10.711  15.480  0.00  0.00    +0.000 OA
ATOM     29  C   UNL     1      -3.396  10.114  14.364  0.00  0.00    +0.000 C 
ENDBRANCH  25  28
ENDBRANCH  19  22
ENDBRANCH  17  19
ENDBRANCH   4  17
TORSDOF 10
ENDMDL
MODEL 9
REMARK VINA RESULT:      -6.7      4.139      7.250
REMARK  Name = 
REMARK  13 active torsions:
REMARK  status: ('A' for Active; 'I' for Inactive)
REMARK    1  A    between atoms: C_1  and  C_2
REMARK    2  A    between atoms: C_2  and  O_3
REMARK    3  A    between atoms: O_3  and  C_4
REMARK    4  A    between atoms: C_4  and  C_5
REMARK    5  A    between atoms: C_5  and  C_6
REMARK    6  A    between atoms: C_6  and  N_7
REMARK    7  A    between atoms: C_8  and  C_10
REMARK    8  A    between atoms: C_13  and  N_14
REMARK    9  A    between atoms: N_14  and  C_15
REMARK   10  A    between atoms: N_14  and  S_16
REMARK   11  A    between atoms: S_16  and  C_19
REMARK   12  A    between atoms: C_22  and  O_23
REMARK   13  A    between atoms: O_23  and  C_24
REMARK                            x       y       z     vdW  Elec       q    Type
REMARK                         _______ _______ _______ _____ _____    ______ ____
ROOT
ATOM      1  C   UNL     1       2.313   7.324  19.432  0.00  0.00    +0.000 A 
ATOM      2  C   UNL     1       1.590   7.900  20.490  0.00  0.00    +0.000 A 
ATOM      3  C   UNL     1       0.840   9.066  20.293  0.00  0.00    +0.000 A 
ATOM      4  C   UNL     1       0.827   9.677  19.038  0.00  0.00    +0.000 A 
ATOM      5  C   UNL     1       1.575   9.129  17.993  0.00  0.00    +0.000 A 
ATOM      6  C   UNL     1       2.317   7.959  18.185  0.00  0.00    +0.000 A 
ENDROOT
BRANCH   1   8
ATOM      7  N   UNL     1       4.230   5.865  18.985  0.00  0.00    +0.000 N 
ATOM      8  C   UNL     1       3.053   6.054  19.685  0.00  0.00    +0.000 C 
ATOM      9  O   UNL     1       2.585   5.223  20.459  0.00  0.00    +0.000 OA
ATOM     10  H   UNL     1       4.489   6.512  18.255  0.00  0.00    +0.000 HD
BRANCH   7  11
ATOM     11  C   UNL     1       4.999   4.637  19.100  0.00  0.00    +0.000 C 
BRANCH  11  12
ATOM     12  C   UNL     1       4.615   3.620  18.024  0.00  0.00    +0.000 C 
BRANCH  12  13
ATOM     13  C   UNL     1       4.398   4.282  16.668  0.00  0.00    +0.000 C 
BRANCH  13  14
ATOM     14  O   UNL     1       5.539   5.066  16.338  0.00  0.00    +0.000 OA
BRANCH  14  16
ATOM     15  C   UNL     1       6.125   4.016  14.279  0.00  0.00    +0.000 C 
ATOM     16  C   UNL     1       6.559   4.300  15.704  0.00  0.00    +0.000 C 
ENDBRANCH  14  16
ENDBRANCH  13  14
ENDBRANCH  12  13
ENDBRANCH  11  12
ENDBRANCH   7  11
ENDBRANCH   1   8
BRANCH   4  17
ATOM     17  N   UNL     1       0.030  10.828  18.752  0.00  0.00    +0.000 N 
ATOM     18  C   UNL     1      -1.289  10.624  18.142  0.00  0.00    +0.000 C 
BRANCH  17  19
ATOM     19  S   UNL     1       0.290  12.253  19.638  0.00  0.00    +0.000 S 
ATOM     20  O   UNL     1       1.593  12.186  20.265  0.00  0.00    +0.000 OA
ATOM     21  O   UNL     1      -0.064  13.375  18.789  0.00  0.00    +0.000 OA
BRANCH  19  22
ATOM     22  C   UNL     1      -0.931  12.191  20.938  0.00  0.00    +0.000 A 
ATOM     23  C   UNL     1      -0.640  11.516  22.125  0.00  0.00    +0.000 A 
ATOM     24  C   UNL     1      -1.595  11.475  23.142  0.00  0.00    +0.000 A 
ATOM     25  C   UNL     1      -2.820  12.135  22.997  0.00  0.00    +0.000 A 
ATOM     26  C   UNL     1      -3.090  12.840  21.823  0.00  0.00    +0.000 A 
ATOM     27  C   UNL     1      -2.140  12.878  20.794  0.00  0.00    +0.000 A 
BRANCH  25  28
ATOM     28  O   UNL     1      -3.680  11.985  24.050  0.00  0.00    +0.000 OA
ATOM     29  C   UNL     1      -4.789  12.875  24.089  0.00  0.00    +0.000 C 
ENDBRANCH  25  28
ENDBRANCH  19  22
ENDBRANCH  17  19
ENDBRANCH   4  17
TORSDOF 10
ENDMDL
