MODEL 1
REMARK VINA RESULT:      -7.7      0.000      0.000
REMARK  Name = 
REMARK  6 active torsions:
REMARK  status: ('A' for Active; 'I' for Inactive)
REMARK    1  A    between atoms: C_1  and  O_2
REMARK    2  A    between atoms: O_2  and  C_3
REMARK    3  A    between atoms: C_3  and  C_4
REMARK    4  A    between atoms: C_4  and  N_5
REMARK    5  A    between atoms: C_6  and  C_8
REMARK    6  A    between atoms: N_12  and  C_13
REMARK                            x       y       z     vdW  Elec       q    Type
REMARK                         _______ _______ _______ _____ _____    ______ ____
ROOT
ATOM      1  C   UNL     1       7.474   5.496  17.861  0.00  0.00    +0.000 C 
ATOM      2  C   UNL     1       7.306   4.625  16.627  0.00  0.00    +0.000 C 
ATOM      3  C   UNL     1       5.840   4.272  16.631  0.00  0.00    +0.000 C 
ATOM      4  O   UNL     1       5.278   3.809  15.651  0.00  0.00    +0.000 OA
ATOM      5  N   UNL     1       5.338   4.497  17.920  0.00  0.00    +0.000 N 
ATOM      6  C   UNL     1       6.382   4.993  18.794  0.00  0.00    +0.000 C 
ENDROOT
BRANCH   5   7
ATOM      7  C   UNL     1       4.025   4.192  18.377  0.00  0.00    +0.000 A 
ATOM      8  C   UNL     1       2.898   4.391  17.563  0.00  0.00    +0.000 A 
ATOM      9  C   UNL     1       1.610   4.073  18.013  0.00  0.00    +0.000 A 
ATOM     10  C   UNL     1       1.432   3.553  19.285  0.00  0.00    +0.000 A 
ATOM     11  F   UNL     1       0.192   3.248  19.695  0.00  0.00    +0.000 F 
ATOM     12  C   UNL     1       2.529   3.355  20.114  0.00  0.00    +0.000 A 
ATOM     13 CL   UNL     1       2.322   2.704  21.697  0.00  0.00    +0.000 Cl
ATOM     14  C   UNL     1       3.815   3.675  19.666  0.00  0.00    +0.000 A 
ENDBRANCH   5   7
BRANCH   1  16
ATOM     15  N   UNL     1       8.153   7.807  18.273  0.00  0.00    +0.000 N 
ATOM     16  C   UNL     1       7.331   6.978  17.539  0.00  0.00    +0.000 C 
ATOM     17  O   UNL     1       6.515   7.409  16.730  0.00  0.00    +0.000 OA
ATOM     18  H   UNL     1       8.954   7.416  18.756  0.00  0.00    +0.000 HD
BRANCH  15  19
ATOM     19  C   UNL     1       8.252   9.218  17.929  0.00  0.00    +0.000 C 
BRANCH  19  20
ATOM     20  C   UNL     1       9.066  10.006  18.953  0.00  0.00    +0.000 C 
BRANCH  20  22
ATOM     21  C   UNL     1      10.161  12.094  19.078  0.00  0.00    +0.000 C 
ATOM     22  O   UNL     1       9.880  10.962  18.264  0.00  0.00    +0.000 OA
ENDBRANCH  20  22
ENDBRANCH  19  20
ENDBRANCH  15  19
ENDBRANCH   1  16
TORSDOF 5
ENDMDL
MODEL 2
REMARK VINA RESULT:      -7.6      2.855      4.925
REMARK  Name = 
REMARK  6 active torsions:
REMARK  status: ('A' for Active; 'I' for Inactive)
REMARK    1  A    between atoms: C_1  and  O_2
REMARK    2  A    between atoms: O_2  and  C_3
REMARK    3  A    between atoms: C_3  and  C_4
REMARK    4  A    between atoms: C_4  and  N_5
REMARK    5  A    between atoms: C_6  and  C_8
REMARK    6  A    between atoms: N_12  and  C_13
REMARK                            x       y       z     vdW  Elec       q    Type
REMARK                         _______ _______ _______ _____ _____    ______ ____
ROOT
ATOM      1  C   UNL     1       6.752   6.504  16.876  0.00  0.00    +0.000 C 
ATOM      2  C   UNL     1       7.480   6.333  18.199  0.00  0.00    +0.000 C 
ATOM      3  C   UNL     1       6.493   5.583  19.058  0.00  0.00    +0.000 C 
ATOM      4  O   UNL     1       6.821   5.030  20.097  0.00  0.00    +0.000 OA
ATOM      5  N   UNL     1       5.220   5.724  18.491  0.00  0.00    +0.000 N 
ATOM      6  C   UNL     1       5.286   6.523  17.284  0.00  0.00    +0.000 C 
ENDROOT
BRANCH   5   7
ATOM      7  C   UNL     1       3.995   5.259  19.046  0.00  0.00    +0.000 A 
ATOM      8  C   UNL     1       3.161   6.102  19.799  0.00  0.00    +0.000 A 
ATOM      9  C   UNL     1       1.949   5.642  20.328  0.00  0.00    +0.000 A 
ATOM     10  C   UNL     1       1.555   4.331  20.115  0.00  0.00    +0.000 A 
ATOM     11  F   UNL     1       0.387   3.911  20.624  0.00  0.00    +0.000 F 
ATOM     12  C   UNL     1       2.365   3.473  19.381  0.00  0.00    +0.000 A 
ATOM     13 CL   UNL     1       1.884   1.841  19.103  0.00  0.00    +0.000 Cl
ATOM     14  C   UNL     1       3.578   3.932  18.854  0.00  0.00    +0.000 A 
ENDBRANCH   5   7
BRANCH   1  16
ATOM     15  N   UNL     1       6.322   5.399  14.740  0.00  0.00    +0.000 N 
ATOM     16  C   UNL     1       7.072   5.382  15.898  0.00  0.00    +0.000 C 
ATOM     17  O   UNL     1       7.891   4.500  16.137  0.00  0.00    +0.000 OA
ATOM     18  H   UNL     1       5.829   6.245  14.476  0.00  0.00    +0.000 HD
BRANCH  15  19
ATOM     19  C   UNL     1       6.661   4.501  13.645  0.00  0.00    +0.000 C 
BRANCH  19  20
ATOM     20  C   UNL     1       5.498   3.583  13.272  0.00  0.00    +0.000 C 
BRANCH  20  22
ATOM     21  C   UNL     1       7.114   3.062  11.631  0.00  0.00    +0.000 C 
ATOM     22  O   UNL     1       5.732   3.045  11.966  0.00  0.00    +0.000 OA
ENDBRANCH  20  22
ENDBRANCH  19  20
ENDBRANCH  15  19
ENDBRANCH   1  16
TORSDOF 5
ENDMDL
MODEL 3
REMARK VINA RESULT:      -7.6      1.132      1.203
REMARK  Name = 
REMARK  6 active torsions:
REMARK  status: ('A' for Active; 'I' for Inactive)
REMARK    1  A    between atoms: C_1  and  O_2
REMARK    2  A    between atoms: O_2  and  C_3
REMARK    3  A    between atoms: C_3  and  C_4
REMARK    4  A    between atoms: C_4  and  N_5
REMARK    5  A    between atoms: C_6  and  C_8
REMARK    6  A    between atoms: N_12  and  C_13
REMARK                            x       y       z     vdW  Elec       q    Type
REMARK                         _______ _______ _______ _____ _____    ______ ____
ROOT
ATOM      1  C   UNL     1       7.739   5.726  18.389  0.00  0.00    +0.000 C 
ATOM      2  C   UNL     1       7.503   4.761  17.239  0.00  0.00    +0.000 C 
ATOM      3  C   UNL     1       6.015   4.518  17.273  0.00  0.00    +0.000 C 
ATOM      4  O   UNL     1       5.416   4.009  16.339  0.00  0.00    +0.000 OA
ATOM      5  N   UNL     1       5.537   4.895  18.535  0.00  0.00    +0.000 N 
ATOM      6  C   UNL     1       6.618   5.391  19.362  0.00  0.00    +0.000 C 
ENDROOT
BRANCH   5   7
ATOM      7  C   UNL     1       4.208   4.728  19.016  0.00  0.00    +0.000 A 
ATOM      8  C   UNL     1       3.485   5.798  19.567  0.00  0.00    +0.000 A 
ATOM      9  C   UNL     1       2.172   5.631  20.024  0.00  0.00    +0.000 A 
ATOM     10  C   UNL     1       1.563   4.389  19.937  0.00  0.00    +0.000 A 
ATOM     11  F   UNL     1       0.302   4.251  20.372  0.00  0.00    +0.000 F 
ATOM     12  C   UNL     1       2.259   3.311  19.404  0.00  0.00    +0.000 A 
ATOM     13 CL   UNL     1       1.512   1.762  19.285  0.00  0.00    +0.000 Cl
ATOM     14  C   UNL     1       3.572   3.477  18.951  0.00  0.00    +0.000 A 
ENDBRANCH   5   7
BRANCH   1  16
ATOM     15  N   UNL     1       8.434   8.046  18.719  0.00  0.00    +0.000 N 
ATOM     16  C   UNL     1       7.702   7.179  17.933  0.00  0.00    +0.000 C 
ATOM     17  O   UNL     1       7.036   7.562  16.977  0.00  0.00    +0.000 OA
ATOM     18  H   UNL     1       9.137   7.677  19.348  0.00  0.00    +0.000 HD
BRANCH  15  19
ATOM     19  C   UNL     1       8.637   9.420  18.284  0.00  0.00    +0.000 C 
BRANCH  19  20
ATOM     20  C   UNL     1       9.250  10.288  19.381  0.00  0.00    +0.000 C 
BRANCH  20  22
ATOM     21  C   UNL     1      10.352  12.336  18.975  0.00  0.00    +0.000 C 
ATOM     22  O   UNL     1      10.429  10.920  18.870  0.00  0.00    +0.000 OA
ENDBRANCH  20  22
ENDBRANCH  19  20
ENDBRANCH  15  19
ENDBRANCH   1  16
TORSDOF 5
ENDMDL
MODEL 4
REMARK VINA RESULT:      -7.5      1.381      1.541
REMARK  Name = 
REMARK  6 active torsions:
REMARK  status: ('A' for Active; 'I' for Inactive)
REMARK    1  A    between atoms: C_1  and  O_2
REMARK    2  A    between atoms: O_2  and  C_3
REMARK    3  A    between atoms: C_3  and  C_4
REMARK    4  A    between atoms: C_4  and  N_5
REMARK    5  A    between atoms: C_6  and  C_8
REMARK    6  A    between atoms: N_12  and  C_13
REMARK                            x       y       z     vdW  Elec       q    Type
REMARK                         _______ _______ _______ _____ _____    ______ ____
ROOT
ATOM      1  C   UNL     1       7.600   5.549  17.718  0.00  0.00    +0.000 C 
ATOM      2  C   UNL     1       7.086   4.679  16.583  0.00  0.00    +0.000 C 
ATOM      3  C   UNL     1       5.684   4.323  17.009  0.00  0.00    +0.000 C 
ATOM      4  O   UNL     1       4.864   3.859  16.231  0.00  0.00    +0.000 OA
ATOM      5  N   UNL     1       5.574   4.545  18.388  0.00  0.00    +0.000 N 
ATOM      6  C   UNL     1       6.824   5.042  18.925  0.00  0.00    +0.000 C 
ENDROOT
BRANCH   5   7
ATOM      7  C   UNL     1       4.449   4.235  19.203  0.00  0.00    +0.000 A 
ATOM      8  C   UNL     1       4.197   2.925  19.642  0.00  0.00    +0.000 A 
ATOM      9  C   UNL     1       3.097   2.630  20.458  0.00  0.00    +0.000 A 
ATOM     10  C   UNL     1       2.231   3.641  20.842  0.00  0.00    +0.000 A 
ATOM     11  F   UNL     1       1.188   3.340  21.629  0.00  0.00    +0.000 F 
ATOM     12  C   UNL     1       2.452   4.944  20.413  0.00  0.00    +0.000 A 
ATOM     13 CL   UNL     1       1.385   6.212  20.889  0.00  0.00    +0.000 Cl
ATOM     14  C   UNL     1       3.549   5.238  19.597  0.00  0.00    +0.000 A 
ENDBRANCH   5   7
BRANCH   1  16
ATOM     15  N   UNL     1       8.173   7.878  18.186  0.00  0.00    +0.000 N 
ATOM     16  C   UNL     1       7.367   7.031  17.454  0.00  0.00    +0.000 C 
ATOM     17  O   UNL     1       6.498   7.445  16.692  0.00  0.00    +0.000 OA
ATOM     18  H   UNL     1       9.012   7.515  18.624  0.00  0.00    +0.000 HD
BRANCH  15  19
ATOM     19  C   UNL     1       8.184   9.303  17.887  0.00  0.00    +0.000 C 
BRANCH  19  20
ATOM     20  C   UNL     1       9.061  10.089  18.860  0.00  0.00    +0.000 C 
BRANCH  20  22
ATOM     21  C   UNL     1       9.097  12.266  17.947  0.00  0.00    +0.000 C 
ATOM     22  O   UNL     1       9.821  11.055  18.125  0.00  0.00    +0.000 OA
ENDBRANCH  20  22
ENDBRANCH  19  20
ENDBRANCH  15  19
ENDBRANCH   1  16
TORSDOF 5
ENDMDL
MODEL 5
REMARK VINA RESULT:      -7.4      3.140      5.485
REMARK  Name = 
REMARK  6 active torsions:
REMARK  status: ('A' for Active; 'I' for Inactive)
REMARK    1  A    between atoms: C_1  and  O_2
REMARK    2  A    between atoms: O_2  and  C_3
REMARK    3  A    between atoms: C_3  and  C_4
REMARK    4  A    between atoms: C_4  and  N_5
REMARK    5  A    between atoms: C_6  and  C_8
REMARK    6  A    between atoms: N_12  and  C_13
REMARK                            x       y       z     vdW  Elec       q    Type
REMARK                         _______ _______ _______ _____ _____    ______ ____
ROOT
ATOM      1  C   UNL     1       6.184   6.036  15.754  0.00  0.00    +0.000 C 
ATOM      2  C   UNL     1       7.028   6.023  17.018  0.00  0.00    +0.000 C 
ATOM      3  C   UNL     1       6.375   4.969  17.876  0.00  0.00    +0.000 C 
ATOM      4  O   UNL     1       6.929   4.487  18.852  0.00  0.00    +0.000 OA
ATOM      5  N   UNL     1       5.078   4.752  17.393  0.00  0.00    +0.000 N 
ATOM      6  C   UNL     1       4.813   5.595  16.245  0.00  0.00    +0.000 C 
ENDROOT
BRANCH   5   7
ATOM      7  C   UNL     1       4.090   3.913  17.982  0.00  0.00    +0.000 A 
ATOM      8  C   UNL     1       4.098   2.522  17.794  0.00  0.00    +0.000 A 
ATOM      9  C   UNL     1       3.133   1.700  18.390  0.00  0.00    +0.000 A 
ATOM     10  C   UNL     1       2.143   2.260  19.181  0.00  0.00    +0.000 A 
ATOM     11  F   UNL     1       1.232   1.457  19.749  0.00  0.00    +0.000 F 
ATOM     12  C   UNL     1       2.106   3.635  19.377  0.00  0.00    +0.000 A 
ATOM     13 CL   UNL     1       0.883   4.345  20.364  0.00  0.00    +0.000 Cl
ATOM     14  C   UNL     1       3.069   4.456  18.779  0.00  0.00    +0.000 A 
ENDBRANCH   5   7
BRANCH   1  16
ATOM     15  N   UNL     1       5.799   4.351  14.027  0.00  0.00    +0.000 N 
ATOM     16  C   UNL     1       6.745   5.113  14.681  0.00  0.00    +0.000 C 
ATOM     17  O   UNL     1       7.946   5.012  14.449  0.00  0.00    +0.000 OA
ATOM     18  H   UNL     1       4.822   4.614  14.080  0.00  0.00    +0.000 HD
BRANCH  15  19
ATOM     19  C   UNL     1       6.179   3.574  12.856  0.00  0.00    +0.000 C 
BRANCH  19  20
ATOM     20  C   UNL     1       4.990   3.294  11.939  0.00  0.00    +0.000 C 
BRANCH  20  22
ATOM     21  C   UNL     1       6.498   1.632  11.203  0.00  0.00    +0.000 C 
ATOM     22  O   UNL     1       5.131   1.982  11.382  0.00  0.00    +0.000 OA
ENDBRANCH  20  22
ENDBRANCH  19  20
ENDBRANCH  15  19
ENDBRANCH   1  16
TORSDOF 5
ENDMDL
MODEL 6
REMARK VINA RESULT:      -7.3      4.064      5.648
REMARK  Name = 
REMARK  6 active torsions:
REMARK  status: ('A' for Active; 'I' for Inactive)
REMARK    1  A    between atoms: C_1  and  O_2
REMARK    2  A    between atoms: O_2  and  C_3
REMARK    3  A    between atoms: C_3  and  C_4
REMARK    4  A    between atoms: C_4  and  N_5
REMARK    5  A    between atoms: C_6  and  C_8
REMARK    6  A    between atoms: N_12  and  C_13
REMARK                            x       y       z     vdW  Elec       q    Type
REMARK                         _______ _______ _______ _____ _____    ______ ____
ROOT
ATOM      1  C   UNL     1       4.963   4.302  18.725  0.00  0.00    +0.000 C 
ATOM      2  C   UNL     1       3.698   3.597  18.262  0.00  0.00    +0.000 C 
ATOM      3  C   UNL     1       2.698   4.716  18.110  0.00  0.00    +0.000 C 
ATOM      4  O   UNL     1       1.650   4.576  17.499  0.00  0.00    +0.000 OA
ATOM      5  N   UNL     1       3.163   5.822  18.833  0.00  0.00    +0.000 N 
ATOM      6  C   UNL     1       4.433   5.522  19.464  0.00  0.00    +0.000 C 
ENDROOT
BRANCH   5   7
ATOM      7  C   UNL     1       2.468   7.047  19.037  0.00  0.00    +0.000 A 
ATOM      8  C   UNL     1       2.290   7.974  17.996  0.00  0.00    +0.000 A 
ATOM      9  C   UNL     1       1.591   9.170  18.199  0.00  0.00    +0.000 A 
ATOM     10  C   UNL     1       1.062   9.459  19.447  0.00  0.00    +0.000 A 
ATOM     11  F   UNL     1       0.390  10.606  19.620  0.00  0.00    +0.000 F 
ATOM     12  C   UNL     1       1.233   8.564  20.496  0.00  0.00    +0.000 A 
ATOM     13 CL   UNL     1       0.576   8.908  22.053  0.00  0.00    +0.000 Cl
ATOM     14  C   UNL     1       1.933   7.370  20.295  0.00  0.00    +0.000 A 
ENDBRANCH   5   7
BRANCH   1  16
ATOM     15  N   UNL     1       6.062   3.665  16.637  0.00  0.00    +0.000 N 
ATOM     16  C   UNL     1       5.870   4.673  17.559  0.00  0.00    +0.000 C 
ATOM     17  O   UNL     1       6.429   5.762  17.469  0.00  0.00    +0.000 OA
ATOM     18  H   UNL     1       5.424   2.877  16.619  0.00  0.00    +0.000 HD
BRANCH  15  19
ATOM     19  C   UNL     1       6.747   3.951  15.385  0.00  0.00    +0.000 C 
BRANCH  19  20
ATOM     20  C   UNL     1       5.770   4.188  14.235  0.00  0.00    +0.000 C 
BRANCH  20  22
ATOM     21  C   UNL     1       5.695   3.131  12.125  0.00  0.00    +0.000 C 
ATOM     22  O   UNL     1       6.450   3.966  12.994  0.00  0.00    +0.000 OA
ENDBRANCH  20  22
ENDBRANCH  19  20
ENDBRANCH  15  19
ENDBRANCH   1  16
TORSDOF 5
ENDMDL
MODEL 7
REMARK VINA RESULT:      -7.3      2.819      5.004
REMARK  Name = 
REMARK  6 active torsions:
REMARK  status: ('A' for Active; 'I' for Inactive)
REMARK    1  A    between atoms: C_1  and  O_2
REMARK    2  A    between atoms: O_2  and  C_3
REMARK    3  A    between atoms: C_3  and  C_4
REMARK    4  A    between atoms: C_4  and  N_5
REMARK    5  A    between atoms: C_6  and  C_8
REMARK    6  A    between atoms: N_12  and  C_13
REMARK                            x       y       z     vdW  Elec       q    Type
REMARK                         _______ _______ _______ _____ _____    ______ ____
ROOT
ATOM      1  C   UNL     1       6.134   6.508  16.509  0.00  0.00    +0.000 C 
ATOM      2  C   UNL     1       6.824   6.379  17.857  0.00  0.00    +0.000 C 
ATOM      3  C   UNL     1       5.931   5.440  18.630  0.00  0.00    +0.000 C 
ATOM      4  O   UNL     1       6.297   4.889  19.656  0.00  0.00    +0.000 OA
ATOM      5  N   UNL     1       4.677   5.415  18.006  0.00  0.00    +0.000 N 
ATOM      6  C   UNL     1       4.668   6.279  16.844  0.00  0.00    +0.000 C 
ENDROOT
BRANCH   5   7
ATOM      7  C   UNL     1       3.517   4.738  18.477  0.00  0.00    +0.000 A 
ATOM      8  C   UNL     1       2.477   4.369  17.609  0.00  0.00    +0.000 A 
ATOM      9  C   UNL     1       1.345   3.688  18.076  0.00  0.00    +0.000 A 
ATOM     10  C   UNL     1       1.237   3.369  19.420  0.00  0.00    +0.000 A 
ATOM     11  F   UNL     1       0.150   2.710  19.847  0.00  0.00    +0.000 F 
ATOM     12  C   UNL     1       2.247   3.730  20.302  0.00  0.00    +0.000 A 
ATOM     13 CL   UNL     1       2.129   3.333  21.976  0.00  0.00    +0.000 Cl
ATOM     14  C   UNL     1       3.377   4.412  19.836  0.00  0.00    +0.000 A 
ENDBRANCH   5   7
BRANCH   1  16
ATOM     15  N   UNL     1       5.819   4.445  15.238  0.00  0.00    +0.000 N 
ATOM     16  C   UNL     1       6.666   5.502  15.496  0.00  0.00    +0.000 C 
ATOM     17  O   UNL     1       7.779   5.592  14.987  0.00  0.00    +0.000 OA
ATOM     18  H   UNL     1       4.840   4.516  15.492  0.00  0.00    +0.000 HD
BRANCH  15  19
ATOM     19  C   UNL     1       6.122   3.523  14.153  0.00  0.00    +0.000 C 
BRANCH  19  20
ATOM     20  C   UNL     1       5.650   4.050  12.799  0.00  0.00    +0.000 C 
BRANCH  20  22
ATOM     21  C   UNL     1       4.159   3.064  11.256  0.00  0.00    +0.000 C 
ATOM     22  O   UNL     1       5.407   2.940  11.927  0.00  0.00    +0.000 OA
ENDBRANCH  20  22
ENDBRANCH  19  20
ENDBRANCH  15  19
ENDBRANCH   1  16
TORSDOF 5
ENDMDL
MODEL 8
REMARK VINA RESULT:      -7.3      1.826      2.298
REMARK  Name = 
REMARK  6 active torsions:
REMARK  status: ('A' for Active; 'I' for Inactive)
REMARK    1  A    between atoms: C_1  and  O_2
REMARK    2  A    between atoms: O_2  and  C_3
REMARK    3  A    between atoms: C_3  and  C_4
REMARK    4  A    between atoms: C_4  and  N_5
REMARK    5  A    between atoms: C_6  and  C_8
REMARK    6  A    between atoms: N_12  and  C_13
REMARK                            x       y       z     vdW  Elec       q    Type
REMARK                         _______ _______ _______ _____ _____    ______ ____
ROOT
ATOM      1  C   UNL     1       6.013   5.877  16.506  0.00  0.00    +0.000 C 
ATOM      2  C   UNL     1       5.014   6.999  16.275  0.00  0.00    +0.000 C 
ATOM      3  C   UNL     1       3.970   6.777  17.341  0.00  0.00    +0.000 C 
ATOM      4  O   UNL     1       3.153   7.634  17.642  0.00  0.00    +0.000 OA
ATOM      5  N   UNL     1       4.087   5.460  17.802  0.00  0.00    +0.000 N 
ATOM      6  C   UNL     1       5.161   4.773  17.115  0.00  0.00    +0.000 C 
ENDROOT
BRANCH   5   7
ATOM      7  C   UNL     1       3.224   4.815  18.732  0.00  0.00    +0.000 A 
ATOM      8  C   UNL     1       3.205   5.173  20.090  0.00  0.00    +0.000 A 
ATOM      9  C   UNL     1       2.342   4.545  20.996  0.00  0.00    +0.000 A 
ATOM     10  C   UNL     1       1.487   3.547  20.558  0.00  0.00    +0.000 A 
ATOM     11  F   UNL     1       0.662   2.962  21.440  0.00  0.00    +0.000 F 
ATOM     12  C   UNL     1       1.492   3.166  19.222  0.00  0.00    +0.000 A 
ATOM     13 CL   UNL     1       0.430   1.929  18.662  0.00  0.00    +0.000 Cl
ATOM     14  C   UNL     1       2.356   3.791  18.316  0.00  0.00    +0.000 A 
ENDBRANCH   5   7
BRANCH   1  16
ATOM     15  N   UNL     1       7.454   7.651  17.370  0.00  0.00    +0.000 N 
ATOM     16  C   UNL     1       7.154   6.305  17.420  0.00  0.00    +0.000 C 
ATOM     17  O   UNL     1       7.792   5.514  18.107  0.00  0.00    +0.000 OA
ATOM     18  H   UNL     1       6.781   8.299  16.977  0.00  0.00    +0.000 HD
BRANCH  15  19
ATOM     19  C   UNL     1       8.390   8.219  18.330  0.00  0.00    +0.000 C 
BRANCH  19  20
ATOM     20  C   UNL     1       8.503   9.736  18.196  0.00  0.00    +0.000 C 
BRANCH  20  22
ATOM     21  C   UNL     1      10.145  11.351  18.718  0.00  0.00    +0.000 C 
ATOM     22  O   UNL     1       9.415  10.224  19.187  0.00  0.00    +0.000 OA
ENDBRANCH  20  22
ENDBRANCH  19  20
ENDBRANCH  15  19
ENDBRANCH   1  16
TORSDOF 5
ENDMDL
MODEL 9
REMARK VINA RESULT:      -7.3      2.943      5.303
REMARK  Name = 
REMARK  6 active torsions:
REMARK  status: ('A' for Active; 'I' for Inactive)
REMARK    1  A    between atoms: C_1  and  O_2
REMARK    2  A    between atoms: O_2  and  C_3
REMARK    3  A    between atoms: C_3  and  C_4
REMARK    4  A    between atoms: C_4  and  N_5
REMARK    5  A    between atoms: C_6  and  C_8
REMARK    6  A    between atoms: N_12  and  C_13
REMARK                            x       y       z     vdW  Elec       q    Type
REMARK                         _______ _______ _______ _____ _____    ______ ____
ROOT
ATOM      1  C   UNL     1       6.076   6.175  16.439  0.00  0.00    +0.000 C 
ATOM      2  C   UNL     1       6.971   6.457  17.635  0.00  0.00    +0.000 C 
ATOM      3  C   UNL     1       6.442   5.536  18.705  0.00  0.00    +0.000 C 
ATOM      4  O   UNL     1       7.074   5.285  19.720  0.00  0.00    +0.000 OA
ATOM      5  N   UNL     1       5.148   5.141  18.344  0.00  0.00    +0.000 N 
ATOM      6  C   UNL     1       4.768   5.735  17.079  0.00  0.00    +0.000 C 
ENDROOT
BRANCH   5   7
ATOM      7  C   UNL     1       4.257   4.358  19.131  0.00  0.00    +0.000 A 
ATOM      8  C   UNL     1       4.632   3.103  19.637  0.00  0.00    +0.000 A 
ATOM      9  C   UNL     1       3.756   2.344  20.424  0.00  0.00    +0.000 A 
ATOM     10  C   UNL     1       2.491   2.829  20.713  0.00  0.00    +0.000 A 
ATOM     11  F   UNL     1       1.669   2.092  21.475  0.00  0.00    +0.000 F 
ATOM     12  C   UNL     1       2.091   4.064  20.218  0.00  0.00    +0.000 A 
ATOM     13 CL   UNL     1       0.522   4.682  20.575  0.00  0.00    +0.000 Cl
ATOM     14  C   UNL     1       2.965   4.821  19.429  0.00  0.00    +0.000 A 
ENDBRANCH   5   7
BRANCH   1  16
ATOM     15  N   UNL     1       5.799   4.645  14.554  0.00  0.00    +0.000 N 
ATOM     16  C   UNL     1       6.665   5.111  15.522  0.00  0.00    +0.000 C 
ATOM     17  O   UNL     1       7.799   4.664  15.660  0.00  0.00    +0.000 OA
ATOM     18  H   UNL     1       4.969   5.181  14.326  0.00  0.00    +0.000 HD
BRANCH  15  19
ATOM     19  C   UNL     1       6.294   3.773  13.500  0.00  0.00    +0.000 C 
BRANCH  19  20
ATOM     20  C   UNL     1       5.262   3.562  12.394  0.00  0.00    +0.000 C 
BRANCH  20  22
ATOM     21  C   UNL     1       6.952   2.218  11.437  0.00  0.00    +0.000 C 
ATOM     22  O   UNL     1       5.561   2.342  11.705  0.00  0.00    +0.000 OA
ENDBRANCH  20  22
ENDBRANCH  19  20
ENDBRANCH  15  19
ENDBRANCH   1  16
TORSDOF 5
ENDMDL
