MODEL 1
REMARK VINA RESULT:      -7.6      0.000      0.000
REMARK  Name = 
REMARK  7 active torsions:
REMARK  status: ('A' for Active; 'I' for Inactive)
REMARK    1  A    between atoms: C_1  and  O_2
REMARK    2  A    between atoms: O_2  and  C_3
REMARK    3  A    between atoms: C_5  and  C_6
REMARK    4  A    between atoms: C_16  and  N_17
REMARK    5  A    between atoms: C_21  and  C_22
REMARK    6  A    between atoms: C_25  and  O_26
REMARK    7  A    between atoms: O_26  and  C_27
REMARK                            x       y       z     vdW  Elec       q    Type
REMARK                         _______ _______ _______ _____ _____    ______ ____
ROOT
ATOM      1  C   UNL     1       2.055   5.482  20.225  0.00  0.00    +0.000 A 
ATOM      2  C   UNL     1       2.703   4.674  19.272  0.00  0.00    +0.000 A 
ATOM      3  C   UNL     1       3.308   5.244  18.131  0.00  0.00    +0.000 A 
ATOM      4  C   UNL     1       3.175   6.609  17.918  0.00  0.00    +0.000 A 
ATOM      5  C   UNL     1       2.644   7.411  18.914  0.00  0.00    +0.000 A 
ATOM      6  C   UNL     1       2.069   6.878  20.082  0.00  0.00    +0.000 A 
ENDROOT
BRANCH   3   7
ATOM      7  C   UNL     1       4.015   4.384  17.143  0.00  0.00    +0.000 C 
ATOM      8  O   UNL     1       3.331   3.544  16.553  0.00  0.00    +0.000 OA
ATOM      9  N   UNL     1       5.380   4.537  16.888  0.00  0.00    +0.000 N 
ATOM     10  C   UNL     1       6.379   5.360  17.596  0.00  0.00    +0.000 C 
ATOM     11  C   UNL     1       7.070   6.295  16.593  0.00  0.00    +0.000 C 
ATOM     12  O   UNL     1       7.675   5.546  15.525  0.00  0.00    +0.000 OA
ATOM     13  C   UNL     1       6.697   4.751  14.830  0.00  0.00    +0.000 C 
ATOM     14  C   UNL     1       5.983   3.784  15.788  0.00  0.00    +0.000 C 
ENDBRANCH   3   7
BRANCH   6  15
ATOM     15  N   UNL     1       1.589   7.743  21.093  0.00  0.00    +0.000 N 
ATOM     16  C   UNL     1       0.974   8.974  20.857  0.00  0.00    +0.000 A 
ATOM     17  N   UNL     1       1.239   9.977  21.691  0.00  0.00    +0.000 NA
ATOM     18  C   UNL     1       0.846  11.203  21.281  0.00  0.00    +0.000 A 
ATOM     19  C   UNL     1       0.240  11.493  20.065  0.00  0.00    +0.000 A 
ATOM     20  C   UNL     1      -0.061  10.349  19.343  0.00  0.00    +0.000 A 
ATOM     21  N   UNL     1       0.256   9.111  19.740  0.00  0.00    +0.000 NA
ATOM     22  H   UNL     1       2.231   7.835  21.870  0.00  0.00    +0.000 HD
BRANCH  19  23
ATOM     23  C   UNL     1      -0.021  12.898  19.612  0.00  0.00    +0.000 C 
ATOM     24  C   UNL     1      -1.316  13.591  19.986  0.00  0.00    +0.000 C 
ATOM     25  C   UNL     1      -0.030  14.031  20.615  0.00  0.00    +0.000 C 
ENDBRANCH  19  23
BRANCH  20  26
ATOM     26  O   UNL     1      -0.674  10.490  18.112  0.00  0.00    +0.000 OA
ATOM     27  C   UNL     1      -2.066  10.145  18.145  0.00  0.00    +0.000 C 
ENDBRANCH  20  26
ENDBRANCH   6  15
BRANCH   1  29
ATOM     28  C   UNL     1       1.676   3.398  21.285  0.00  0.00    +0.000 C 
ATOM     29  O   UNL     1       1.495   4.816  21.293  0.00  0.00    +0.000 OA
ENDBRANCH   1  29
TORSDOF 5
ENDMDL
MODEL 2
REMARK VINA RESULT:      -7.3      2.170      8.269
REMARK  Name = 
REMARK  7 active torsions:
REMARK  status: ('A' for Active; 'I' for Inactive)
REMARK    1  A    between atoms: C_1  and  O_2
REMARK    2  A    between atoms: O_2  and  C_3
REMARK    3  A    between atoms: C_5  and  C_6
REMARK    4  A    between atoms: C_16  and  N_17
REMARK    5  A    between atoms: C_21  and  C_22
REMARK    6  A    between atoms: C_25  and  O_26
REMARK    7  A    between atoms: O_26  and  C_27
REMARK                            x       y       z     vdW  Elec       q    Type
REMARK                         _______ _______ _______ _____ _____    ______ ____
ROOT
ATOM      1  C   UNL     1       1.598   8.360  20.321  0.00  0.00    +0.000 A 
ATOM      2  C   UNL     1       0.945   9.576  20.041  0.00  0.00    +0.000 A 
ATOM      3  C   UNL     1       0.866  10.068  18.721  0.00  0.00    +0.000 A 
ATOM      4  C   UNL     1       1.523   9.377  17.711  0.00  0.00    +0.000 A 
ATOM      5  C   UNL     1       2.058   8.126  17.971  0.00  0.00    +0.000 A 
ATOM      6  C   UNL     1       2.116   7.588  19.271  0.00  0.00    +0.000 A 
ENDROOT
BRANCH   3   7
ATOM      7  C   UNL     1       0.151  11.340  18.431  0.00  0.00    +0.000 C 
ATOM      8  O   UNL     1      -1.028  11.244  18.081  0.00  0.00    +0.000 OA
ATOM      9  N   UNL     1       0.782  12.579  18.568  0.00  0.00    +0.000 N 
ATOM     10  C   UNL     1       2.204  12.884  18.815  0.00  0.00    +0.000 C 
ATOM     11  C   UNL     1       2.325  13.768  20.064  0.00  0.00    +0.000 C 
ATOM     12  O   UNL     1       1.552  14.972  19.920  0.00  0.00    +0.000 OA
ATOM     13  C   UNL     1       0.164  14.672  19.688  0.00  0.00    +0.000 C 
ATOM     14  C   UNL     1      -0.017  13.799  18.436  0.00  0.00    +0.000 C 
ENDBRANCH   3   7
BRANCH   6  15
ATOM     15  N   UNL     1       2.623   6.284  19.474  0.00  0.00    +0.000 N 
ATOM     16  C   UNL     1       3.649   5.707  18.723  0.00  0.00    +0.000 A 
ATOM     17  N   UNL     1       3.558   4.411  18.430  0.00  0.00    +0.000 NA
ATOM     18  C   UNL     1       4.417   3.959  17.490  0.00  0.00    +0.000 A 
ATOM     19  C   UNL     1       5.336   4.735  16.794  0.00  0.00    +0.000 A 
ATOM     20  C   UNL     1       5.389   6.036  17.268  0.00  0.00    +0.000 A 
ATOM     21  N   UNL     1       4.598   6.510  18.238  0.00  0.00    +0.000 NA
ATOM     22  H   UNL     1       1.895   5.598  19.625  0.00  0.00    +0.000 HD
BRANCH  19  23
ATOM     23  C   UNL     1       6.144   4.194  15.653  0.00  0.00    +0.000 C 
ATOM     24  C   UNL     1       5.538   4.102  14.267  0.00  0.00    +0.000 C 
ATOM     25  C   UNL     1       6.606   5.114  14.545  0.00  0.00    +0.000 C 
ENDBRANCH  19  23
BRANCH  20  26
ATOM     26  O   UNL     1       6.268   6.920  16.669  0.00  0.00    +0.000 OA
ATOM     27  C   UNL     1       7.373   7.259  17.517  0.00  0.00    +0.000 C 
ENDBRANCH  20  26
ENDBRANCH   6  15
BRANCH   1  29
ATOM     28  C   UNL     1       1.203   8.991  22.570  0.00  0.00    +0.000 C 
ATOM     29  O   UNL     1       1.617   7.982  21.645  0.00  0.00    +0.000 OA
ENDBRANCH   1  29
TORSDOF 5
ENDMDL
MODEL 3
REMARK VINA RESULT:      -7.1      2.459      8.460
REMARK  Name = 
REMARK  7 active torsions:
REMARK  status: ('A' for Active; 'I' for Inactive)
REMARK    1  A    between atoms: C_1  and  O_2
REMARK    2  A    between atoms: O_2  and  C_3
REMARK    3  A    between atoms: C_5  and  C_6
REMARK    4  A    between atoms: C_16  and  N_17
REMARK    5  A    between atoms: C_21  and  C_22
REMARK    6  A    between atoms: C_25  and  O_26
REMARK    7  A    between atoms: O_26  and  C_27
REMARK                            x       y       z     vdW  Elec       q    Type
REMARK                         _______ _______ _______ _____ _____    ______ ____
ROOT
ATOM      1  C   UNL     1       0.801  10.020  21.401  0.00  0.00    +0.000 A 
ATOM      2  C   UNL     1       0.371  11.232  20.826  0.00  0.00    +0.000 A 
ATOM      3  C   UNL     1       0.414  11.425  19.429  0.00  0.00    +0.000 A 
ATOM      4  C   UNL     1       0.974  10.433  18.635  0.00  0.00    +0.000 A 
ATOM      5  C   UNL     1       1.282   9.202  19.191  0.00  0.00    +0.000 A 
ATOM      6  C   UNL     1       1.211   8.963  20.576  0.00  0.00    +0.000 A 
ENDROOT
BRANCH   3   7
ATOM      7  C   UNL     1      -0.068  12.698  18.829  0.00  0.00    +0.000 C 
ATOM      8  O   UNL     1      -1.122  12.644  18.190  0.00  0.00    +0.000 OA
ATOM      9  N   UNL     1       0.632  13.896  18.998  0.00  0.00    +0.000 N 
ATOM     10  C   UNL     1       1.968  14.125  19.580  0.00  0.00    +0.000 C 
ATOM     11  C   UNL     1       1.857  15.151  20.718  0.00  0.00    +0.000 C 
ATOM     12  O   UNL     1       1.275  16.380  20.248  0.00  0.00    +0.000 OA
ATOM     13  C   UNL     1      -0.031  16.154  19.689  0.00  0.00    +0.000 C 
ATOM     14  C   UNL     1       0.024  15.143  18.532  0.00  0.00    +0.000 C 
ENDBRANCH   3   7
BRANCH   6  15
ATOM     15  N   UNL     1       1.486   7.673  21.086  0.00  0.00    +0.000 N 
ATOM     16  C   UNL     1       1.989   6.612  20.329  0.00  0.00    +0.000 A 
ATOM     17  N   UNL     1       1.531   5.388  20.585  0.00  0.00    +0.000 NA
ATOM     18  C   UNL     1       1.834   4.444  19.667  0.00  0.00    +0.000 A 
ATOM     19  C   UNL     1       2.534   4.659  18.487  0.00  0.00    +0.000 A 
ATOM     20  C   UNL     1       3.031   5.949  18.399  0.00  0.00    +0.000 A 
ATOM     21  N   UNL     1       2.805   6.899  19.313  0.00  0.00    +0.000 NA
ATOM     22  H   UNL     1       0.757   7.329  21.698  0.00  0.00    +0.000 HD
BRANCH  19  23
ATOM     23  C   UNL     1       2.693   3.595  17.442  0.00  0.00    +0.000 C 
ATOM     24  C   UNL     1       3.818   2.585  17.548  0.00  0.00    +0.000 C 
ATOM     25  C   UNL     1       2.405   2.149  17.779  0.00  0.00    +0.000 C 
ENDBRANCH  19  23
BRANCH  20  26
ATOM     26  O   UNL     1       3.755   6.301  17.275  0.00  0.00    +0.000 OA
ATOM     27  C   UNL     1       5.166   6.357  17.522  0.00  0.00    +0.000 C 
ENDBRANCH  20  26
ENDBRANCH   6  15
BRANCH   1  29
ATOM     28  C   UNL     1      -0.610   9.937  23.302  0.00  0.00    +0.000 C 
ATOM     29  O   UNL     1       0.719   9.947  22.774  0.00  0.00    +0.000 OA
ENDBRANCH   1  29
TORSDOF 5
ENDMDL
MODEL 4
REMARK VINA RESULT:      -7.0      2.350      8.488
REMARK  Name = 
REMARK  7 active torsions:
REMARK  status: ('A' for Active; 'I' for Inactive)
REMARK    1  A    between atoms: C_1  and  O_2
REMARK    2  A    between atoms: O_2  and  C_3
REMARK    3  A    between atoms: C_5  and  C_6
REMARK    4  A    between atoms: C_16  and  N_17
REMARK    5  A    between atoms: C_21  and  C_22
REMARK    6  A    between atoms: C_25  and  O_26
REMARK    7  A    between atoms: O_26  and  C_27
REMARK                            x       y       z     vdW  Elec       q    Type
REMARK                         _______ _______ _______ _____ _____    ______ ____
ROOT
ATOM      1  C   UNL     1       1.278   8.851  20.196  0.00  0.00    +0.000 A 
ATOM      2  C   UNL     1       0.783  10.164  20.076  0.00  0.00    +0.000 A 
ATOM      3  C   UNL     1       1.000  10.915  18.901  0.00  0.00    +0.000 A 
ATOM      4  C   UNL     1       1.790  10.370  17.898  0.00  0.00    +0.000 A 
ATOM      5  C   UNL     1       2.171   9.041  17.970  0.00  0.00    +0.000 A 
ATOM      6  C   UNL     1       1.934   8.251  19.111  0.00  0.00    +0.000 A 
ENDROOT
BRANCH   3   7
ATOM      7  C   UNL     1       0.449  12.291  18.773  0.00  0.00    +0.000 C 
ATOM      8  O   UNL     1      -0.685  12.391  18.300  0.00  0.00    +0.000 OA
ATOM      9  N   UNL     1       1.178  13.410  19.186  0.00  0.00    +0.000 N 
ATOM     10  C   UNL     1       2.586  13.503  19.618  0.00  0.00    +0.000 C 
ATOM     11  C   UNL     1       2.649  14.149  21.010  0.00  0.00    +0.000 C 
ATOM     12  O   UNL     1       2.018  15.442  21.006  0.00  0.00    +0.000 OA
ATOM     13  C   UNL     1       0.643  15.346  20.593  0.00  0.00    +0.000 C 
ATOM     14  C   UNL     1       0.523  14.718  19.196  0.00  0.00    +0.000 C 
ENDBRANCH   3   7
BRANCH   6  15
ATOM     15  N   UNL     1       2.296   6.884  19.113  0.00  0.00    +0.000 N 
ATOM     16  C   UNL     1       3.307   6.331  18.325  0.00  0.00    +0.000 A 
ATOM     17  N   UNL     1       3.109   5.119  17.810  0.00  0.00    +0.000 NA
ATOM     18  C   UNL     1       3.980   4.738  16.850  0.00  0.00    +0.000 A 
ATOM     19  C   UNL     1       5.015   5.514  16.344  0.00  0.00    +0.000 A 
ATOM     20  C   UNL     1       5.164   6.705  17.035  0.00  0.00    +0.000 A 
ATOM     21  N   UNL     1       4.361   7.095  18.032  0.00  0.00    +0.000 NA
ATOM     22  H   UNL     1       1.495   6.265  19.109  0.00  0.00    +0.000 HD
BRANCH  19  23
ATOM     23  C   UNL     1       5.839   5.084  15.167  0.00  0.00    +0.000 C 
ATOM     24  C   UNL     1       7.211   4.477  15.379  0.00  0.00    +0.000 C 
ATOM     25  C   UNL     1       6.082   3.614  14.905  0.00  0.00    +0.000 C 
ENDBRANCH  19  23
BRANCH  20  26
ATOM     26  O   UNL     1       6.164   7.575  16.640  0.00  0.00    +0.000 OA
ATOM     27  C   UNL     1       7.301   7.542  17.512  0.00  0.00    +0.000 C 
ENDBRANCH  20  26
ENDBRANCH   6  15
BRANCH   1  29
ATOM     28  C   UNL     1      -0.282   8.482  21.940  0.00  0.00    +0.000 C 
ATOM     29  O   UNL     1       1.010   8.217  21.389  0.00  0.00    +0.000 OA
ENDBRANCH   1  29
TORSDOF 5
ENDMDL
MODEL 5
REMARK VINA RESULT:      -6.8      1.763      8.459
REMARK  Name = 
REMARK  7 active torsions:
REMARK  status: ('A' for Active; 'I' for Inactive)
REMARK    1  A    between atoms: C_1  and  O_2
REMARK    2  A    between atoms: O_2  and  C_3
REMARK    3  A    between atoms: C_5  and  C_6
REMARK    4  A    between atoms: C_16  and  N_17
REMARK    5  A    between atoms: C_21  and  C_22
REMARK    6  A    between atoms: C_25  and  O_26
REMARK    7  A    between atoms: O_26  and  C_27
REMARK                            x       y       z     vdW  Elec       q    Type
REMARK                         _______ _______ _______ _____ _____    ______ ____
ROOT
ATOM      1  C   UNL     1       2.402   6.212  19.849  0.00  0.00    +0.000 A 
ATOM      2  C   UNL     1       1.761   7.436  20.124  0.00  0.00    +0.000 A 
ATOM      3  C   UNL     1       1.812   8.502  19.202  0.00  0.00    +0.000 A 
ATOM      4  C   UNL     1       2.583   8.357  18.056  0.00  0.00    +0.000 A 
ATOM      5  C   UNL     1       3.109   7.117  17.735  0.00  0.00    +0.000 A 
ATOM      6  C   UNL     1       3.041   6.021  18.615  0.00  0.00    +0.000 A 
ENDROOT
BRANCH   3   7
ATOM      7  C   UNL     1       1.109   9.782  19.489  0.00  0.00    +0.000 C 
ATOM      8  O   UNL     1       0.677  10.405  18.516  0.00  0.00    +0.000 OA
ATOM      9  N   UNL     1       0.934  10.240  20.797  0.00  0.00    +0.000 N 
ATOM     10  C   UNL     1       1.509   9.726  22.055  0.00  0.00    +0.000 C 
ATOM     11  C   UNL     1       0.374   9.410  23.040  0.00  0.00    +0.000 C 
ATOM     12  O   UNL     1      -0.441  10.571  23.277  0.00  0.00    +0.000 OA
ATOM     13  C   UNL     1      -1.007  11.065  22.050  0.00  0.00    +0.000 C 
ATOM     14  C   UNL     1       0.089  11.413  21.030  0.00  0.00    +0.000 C 
ENDBRANCH   3   7
BRANCH   6  15
ATOM     15  N   UNL     1       3.547   4.761  18.216  0.00  0.00    +0.000 N 
ATOM     16  C   UNL     1       4.654   4.579  17.386  0.00  0.00    +0.000 A 
ATOM     17  N   UNL     1       4.616   3.586  16.499  0.00  0.00    +0.000 NA
ATOM     18  C   UNL     1       5.574   3.610  15.548  0.00  0.00    +0.000 A 
ATOM     19  C   UNL     1       6.546   4.592  15.404  0.00  0.00    +0.000 A 
ATOM     20  C   UNL     1       6.528   5.505  16.446  0.00  0.00    +0.000 A 
ATOM     21  N   UNL     1       5.634   5.483  17.441  0.00  0.00    +0.000 NA
ATOM     22  H   UNL     1       2.818   4.112  17.948  0.00  0.00    +0.000 HD
BRANCH  19  23
ATOM     23  C   UNL     1       7.476   4.636  14.228  0.00  0.00    +0.000 C 
ATOM     24  C   UNL     1       7.036   4.082  12.888  0.00  0.00    +0.000 C 
ATOM     25  C   UNL     1       7.189   5.561  13.066  0.00  0.00    +0.000 C 
ENDBRANCH  19  23
BRANCH  20  26
ATOM     26  O   UNL     1       7.449   6.536  16.434  0.00  0.00    +0.000 OA
ATOM     27  C   UNL     1       7.433   7.305  17.644  0.00  0.00    +0.000 C 
ENDBRANCH  20  26
ENDBRANCH   6  15
BRANCH   1  29
ATOM     28  C   UNL     1       1.217   4.319  20.638  0.00  0.00    +0.000 C 
ATOM     29  O   UNL     1       2.290   5.245  20.824  0.00  0.00    +0.000 OA
ENDBRANCH   1  29
TORSDOF 5
ENDMDL
MODEL 6
REMARK VINA RESULT:      -6.8      2.511      4.103
REMARK  Name = 
REMARK  7 active torsions:
REMARK  status: ('A' for Active; 'I' for Inactive)
REMARK    1  A    between atoms: C_1  and  O_2
REMARK    2  A    between atoms: O_2  and  C_3
REMARK    3  A    between atoms: C_5  and  C_6
REMARK    4  A    between atoms: C_16  and  N_17
REMARK    5  A    between atoms: C_21  and  C_22
REMARK    6  A    between atoms: C_25  and  O_26
REMARK    7  A    between atoms: O_26  and  C_27
REMARK                            x       y       z     vdW  Elec       q    Type
REMARK                         _______ _______ _______ _____ _____    ______ ____
ROOT
ATOM      1  C   UNL     1       1.086   8.641  20.251  0.00  0.00    +0.000 A 
ATOM      2  C   UNL     1       2.009   7.677  19.800  0.00  0.00    +0.000 A 
ATOM      3  C   UNL     1       2.461   7.677  18.464  0.00  0.00    +0.000 A 
ATOM      4  C   UNL     1       1.910   8.589  17.573  0.00  0.00    +0.000 A 
ATOM      5  C   UNL     1       1.098   9.606  18.047  0.00  0.00    +0.000 A 
ATOM      6  C   UNL     1       0.662   9.659  19.384  0.00  0.00    +0.000 A 
ENDROOT
BRANCH   3   7
ATOM      7  C   UNL     1       3.457   6.671  18.004  0.00  0.00    +0.000 C 
ATOM      8  O   UNL     1       4.595   7.086  17.774  0.00  0.00    +0.000 OA
ATOM      9  N   UNL     1       3.119   5.323  17.859  0.00  0.00    +0.000 N 
ATOM     10  C   UNL     1       1.794   4.677  17.930  0.00  0.00    +0.000 C 
ATOM     11  C   UNL     1       1.830   3.559  18.982  0.00  0.00    +0.000 C 
ATOM     12  O   UNL     1       2.861   2.602  18.682  0.00  0.00    +0.000 OA
ATOM     13  C   UNL     1       4.153   3.234  18.623  0.00  0.00    +0.000 C 
ATOM     14  C   UNL     1       4.177   4.355  17.571  0.00  0.00    +0.000 C 
ENDBRANCH   3   7
BRANCH   6  15
ATOM     15  N   UNL     1      -0.123  10.748  19.829  0.00  0.00    +0.000 N 
ATOM     16  C   UNL     1       0.383  12.006  20.163  0.00  0.00    +0.000 A 
ATOM     17  N   UNL     1      -0.160  12.647  21.196  0.00  0.00    +0.000 NA
ATOM     18  C   UNL     1       0.524  13.721  21.647  0.00  0.00    +0.000 A 
ATOM     19  C   UNL     1       1.742  14.169  21.153  0.00  0.00    +0.000 A 
ATOM     20  C   UNL     1       2.139  13.472  20.023  0.00  0.00    +0.000 A 
ATOM     21  N   UNL     1       1.461  12.440  19.507  0.00  0.00    +0.000 NA
ATOM     22  H   UNL     1      -0.819  10.478  20.513  0.00  0.00    +0.000 HD
BRANCH  19  23
ATOM     23  C   UNL     1       2.518  15.272  21.809  0.00  0.00    +0.000 C 
ATOM     24  C   UNL     1       2.405  16.693  21.296  0.00  0.00    +0.000 C 
ATOM     25  C   UNL     1       1.801  16.330  22.617  0.00  0.00    +0.000 C 
ENDBRANCH  19  23
BRANCH  20  26
ATOM     26  O   UNL     1       3.335  13.819  19.422  0.00  0.00    +0.000 OA
ATOM     27  C   UNL     1       3.148  14.532  18.192  0.00  0.00    +0.000 C 
ENDBRANCH  20  26
ENDBRANCH   6  15
BRANCH   1  29
ATOM     28  C   UNL     1       1.571   9.212  22.498  0.00  0.00    +0.000 C 
ATOM     29  O   UNL     1       0.713   8.540  21.573  0.00  0.00    +0.000 OA
ENDBRANCH   1  29
TORSDOF 5
ENDMDL
MODEL 7
REMARK VINA RESULT:      -6.8      2.380      8.308
REMARK  Name = 
REMARK  7 active torsions:
REMARK  status: ('A' for Active; 'I' for Inactive)
REMARK    1  A    between atoms: C_1  and  O_2
REMARK    2  A    between atoms: O_2  and  C_3
REMARK    3  A    between atoms: C_5  and  C_6
REMARK    4  A    between atoms: C_16  and  N_17
REMARK    5  A    between atoms: C_21  and  C_22
REMARK    6  A    between atoms: C_25  and  O_26
REMARK    7  A    between atoms: O_26  and  C_27
REMARK                            x       y       z     vdW  Elec       q    Type
REMARK                         _______ _______ _______ _____ _____    ______ ____
ROOT
ATOM      1  C   UNL     1       1.633   8.291  20.404  0.00  0.00    +0.000 A 
ATOM      2  C   UNL     1       0.846   9.405  20.053  0.00  0.00    +0.000 A 
ATOM      3  C   UNL     1       0.708   9.798  18.705  0.00  0.00    +0.000 A 
ATOM      4  C   UNL     1       1.437   9.121  17.735  0.00  0.00    +0.000 A 
ATOM      5  C   UNL     1       2.110   7.958  18.070  0.00  0.00    +0.000 A 
ATOM      6  C   UNL     1       2.232   7.516  19.400  0.00  0.00    +0.000 A 
ENDROOT
BRANCH   3   7
ATOM      7  C   UNL     1      -0.147  10.960  18.341  0.00  0.00    +0.000 C 
ATOM      8  O   UNL     1       0.384  12.072  18.385  0.00  0.00    +0.000 OA
ATOM      9  N   UNL     1      -1.479  10.792  17.953  0.00  0.00    +0.000 N 
ATOM     10  C   UNL     1      -2.321   9.581  17.993  0.00  0.00    +0.000 C 
ATOM     11  C   UNL     1      -2.886   9.308  16.591  0.00  0.00    +0.000 C 
ATOM     12  O   UNL     1      -3.626  10.441  16.105  0.00  0.00    +0.000 OA
ATOM     13  C   UNL     1      -2.800  11.619  16.059  0.00  0.00    +0.000 C 
ATOM     14  C   UNL     1      -2.219  11.947  17.443  0.00  0.00    +0.000 C 
ENDBRANCH   3   7
BRANCH   6  15
ATOM     15  N   UNL     1       2.884   6.293  19.682  0.00  0.00    +0.000 N 
ATOM     16  C   UNL     1       3.962   5.784  18.956  0.00  0.00    +0.000 A 
ATOM     17  N   UNL     1       4.015   4.469  18.751  0.00  0.00    +0.000 NA
ATOM     18  C   UNL     1       4.912   4.053  17.830  0.00  0.00    +0.000 A 
ATOM     19  C   UNL     1       5.732   4.877  17.070  0.00  0.00    +0.000 A 
ATOM     20  C   UNL     1       5.642   6.206  17.455  0.00  0.00    +0.000 A 
ATOM     21  N   UNL     1       4.811   6.653  18.403  0.00  0.00    +0.000 NA
ATOM     22  H   UNL     1       2.239   5.542  19.890  0.00  0.00    +0.000 HD
BRANCH  19  23
ATOM     23  C   UNL     1       6.586   4.353  15.955  0.00  0.00    +0.000 C 
ATOM     24  C   UNL     1       5.945   3.703  14.746  0.00  0.00    +0.000 C 
ATOM     25  C   UNL     1       6.591   5.047  14.610  0.00  0.00    +0.000 C 
ENDBRANCH  19  23
BRANCH  20  26
ATOM     26  O   UNL     1       6.412   7.138  16.785  0.00  0.00    +0.000 OA
ATOM     27  C   UNL     1       7.559   7.553  17.539  0.00  0.00    +0.000 C 
ENDBRANCH  20  26
ENDBRANCH   6  15
BRANCH   1  29
ATOM     28  C   UNL     1       1.222   9.040  22.613  0.00  0.00    +0.000 C 
ATOM     29  O   UNL     1       1.699   8.005  21.750  0.00  0.00    +0.000 OA
ENDBRANCH   1  29
TORSDOF 5
ENDMDL
MODEL 8
REMARK VINA RESULT:      -6.5      1.700      8.036
REMARK  Name = 
REMARK  7 active torsions:
REMARK  status: ('A' for Active; 'I' for Inactive)
REMARK    1  A    between atoms: C_1  and  O_2
REMARK    2  A    between atoms: O_2  and  C_3
REMARK    3  A    between atoms: C_5  and  C_6
REMARK    4  A    between atoms: C_16  and  N_17
REMARK    5  A    between atoms: C_21  and  C_22
REMARK    6  A    between atoms: C_25  and  O_26
REMARK    7  A    between atoms: O_26  and  C_27
REMARK                            x       y       z     vdW  Elec       q    Type
REMARK                         _______ _______ _______ _____ _____    ______ ____
ROOT
ATOM      1  C   UNL     1       2.217   5.352  20.737  0.00  0.00    +0.000 A 
ATOM      2  C   UNL     1       1.435   6.434  21.184  0.00  0.00    +0.000 A 
ATOM      3  C   UNL     1       1.406   7.651  20.471  0.00  0.00    +0.000 A 
ATOM      4  C   UNL     1       2.235   7.796  19.366  0.00  0.00    +0.000 A 
ATOM      5  C   UNL     1       2.907   6.694  18.863  0.00  0.00    +0.000 A 
ATOM      6  C   UNL     1       2.923   5.454  19.529  0.00  0.00    +0.000 A 
ENDROOT
BRANCH   3   7
ATOM      7  C   UNL     1       0.555   8.779  20.936  0.00  0.00    +0.000 C 
ATOM      8  O   UNL     1       0.061   8.670  22.061  0.00  0.00    +0.000 OA
ATOM      9  N   UNL     1       0.345   9.910  20.143  0.00  0.00    +0.000 N 
ATOM     10  C   UNL     1       0.712  10.147  18.734  0.00  0.00    +0.000 C 
ATOM     11  C   UNL     1       1.559  11.425  18.637  0.00  0.00    +0.000 C 
ATOM     12  O   UNL     1       0.855  12.551  19.189  0.00  0.00    +0.000 OA
ATOM     13  C   UNL     1       0.506  12.321  20.566  0.00  0.00    +0.000 C 
ATOM     14  C   UNL     1      -0.357  11.058  20.718  0.00  0.00    +0.000 C 
ENDBRANCH   3   7
BRANCH   6  15
ATOM     15  N   UNL     1       3.581   4.346  18.945  0.00  0.00    +0.000 N 
ATOM     16  C   UNL     1       4.427   4.420  17.837  0.00  0.00    +0.000 A 
ATOM     17  N   UNL     1       4.381   3.432  16.946  0.00  0.00    +0.000 NA
ATOM     18  C   UNL     1       5.007   3.669  15.773  0.00  0.00    +0.000 A 
ATOM     19  C   UNL     1       5.643   4.853  15.420  0.00  0.00    +0.000 A 
ATOM     20  C   UNL     1       5.699   5.752  16.473  0.00  0.00    +0.000 A 
ATOM     21  N   UNL     1       5.144   5.534  17.671  0.00  0.00    +0.000 NA
ATOM     22  H   UNL     1       2.980   3.537  18.852  0.00  0.00    +0.000 HD
BRANCH  19  23
ATOM     23  C   UNL     1       6.176   5.098  14.040  0.00  0.00    +0.000 C 
ATOM     24  C   UNL     1       7.619   4.773  13.712  0.00  0.00    +0.000 C 
ATOM     25  C   UNL     1       6.520   3.933  13.140  0.00  0.00    +0.000 C 
ENDBRANCH  19  23
BRANCH  20  26
ATOM     26  O   UNL     1       6.312   6.974  16.264  0.00  0.00    +0.000 OA
ATOM     27  C   UNL     1       7.141   7.372  17.364  0.00  0.00    +0.000 C 
ENDBRANCH  20  26
ENDBRANCH   6  15
BRANCH   1  29
ATOM     28  C   UNL     1       1.244   3.220  21.082  0.00  0.00    +0.000 C 
ATOM     29  O   UNL     1       2.172   4.218  21.517  0.00  0.00    +0.000 OA
ENDBRANCH   1  29
TORSDOF 5
ENDMDL
MODEL 9
REMARK VINA RESULT:      -6.4      1.894      8.345
REMARK  Name = 
REMARK  7 active torsions:
REMARK  status: ('A' for Active; 'I' for Inactive)
REMARK    1  A    between atoms: C_1  and  O_2
REMARK    2  A    between atoms: O_2  and  C_3
REMARK    3  A    between atoms: C_5  and  C_6
REMARK    4  A    between atoms: C_16  and  N_17
REMARK    5  A    between atoms: C_21  and  C_22
REMARK    6  A    between atoms: C_25  and  O_26
REMARK    7  A    between atoms: O_26  and  C_27
REMARK                            x       y       z     vdW  Elec       q    Type
REMARK                         _______ _______ _______ _____ _____    ______ ____
ROOT
ATOM      1  C   UNL     1       2.097   6.660  20.052  0.00  0.00    +0.000 A 
ATOM      2  C   UNL     1       1.496   7.916  20.263  0.00  0.00    +0.000 A 
ATOM      3  C   UNL     1       1.485   8.893  19.246  0.00  0.00    +0.000 A 
ATOM      4  C   UNL     1       2.159   8.630  18.061  0.00  0.00    +0.000 A 
ATOM      5  C   UNL     1       2.641   7.355  17.815  0.00  0.00    +0.000 A 
ATOM      6  C   UNL     1       2.631   6.344  18.794  0.00  0.00    +0.000 A 
ENDROOT
BRANCH   3   7
ATOM      7  C   UNL     1       0.824  10.207  19.469  0.00  0.00    +0.000 C 
ATOM      8  O   UNL     1       1.492  11.072  20.040  0.00  0.00    +0.000 OA
ATOM      9  N   UNL     1      -0.483  10.449  19.037  0.00  0.00    +0.000 N 
ATOM     10  C   UNL     1      -1.478   9.506  18.491  0.00  0.00    +0.000 C 
ATOM     11  C   UNL     1      -1.960  10.011  17.123  0.00  0.00    +0.000 C 
ATOM     12  O   UNL     1      -2.502  11.339  17.226  0.00  0.00    +0.000 OA
ATOM     13  C   UNL     1      -1.526  12.258  17.750  0.00  0.00    +0.000 C 
ATOM     14  C   UNL     1      -1.020  11.807  19.129  0.00  0.00    +0.000 C 
ENDBRANCH   3   7
BRANCH   6  15
ATOM     15  N   UNL     1       3.087   5.044  18.474  0.00  0.00    +0.000 N 
ATOM     16  C   UNL     1       4.203   4.769  17.681  0.00  0.00    +0.000 A 
ATOM     17  N   UNL     1       4.139   3.733  16.847  0.00  0.00    +0.000 NA
ATOM     18  C   UNL     1       5.118   3.663  15.919  0.00  0.00    +0.000 A 
ATOM     19  C   UNL     1       6.137   4.592  15.747  0.00  0.00    +0.000 A 
ATOM     20  C   UNL     1       6.138   5.559  16.740  0.00  0.00    +0.000 A 
ATOM     21  N   UNL     1       5.222   5.630  17.713  0.00  0.00    +0.000 NA
ATOM     22  H   UNL     1       2.336   4.415  18.222  0.00  0.00    +0.000 HD
BRANCH  19  23
ATOM     23  C   UNL     1       7.093   4.531  14.594  0.00  0.00    +0.000 C 
ATOM     24  C   UNL     1       6.632   4.006  13.249  0.00  0.00    +0.000 C 
ATOM     25  C   UNL     1       6.923   5.465  13.416  0.00  0.00    +0.000 C 
ENDBRANCH  19  23
BRANCH  20  26
ATOM     26  O   UNL     1       7.105   6.546  16.696  0.00  0.00    +0.000 OA
ATOM     27  C   UNL     1       7.473   7.017  17.999  0.00  0.00    +0.000 C 
ENDBRANCH  20  26
ENDBRANCH   6  15
BRANCH   1  29
ATOM     28  C   UNL     1       1.466   4.515  20.836  0.00  0.00    +0.000 C 
ATOM     29  O   UNL     1       2.053   5.788  21.118  0.00  0.00    +0.000 OA
ENDBRANCH   1  29
TORSDOF 5
ENDMDL
