MODEL 1
REMARK VINA RESULT:      -9.0      0.000      0.000
REMARK  Name = 
REMARK  7 active torsions:
REMARK  status: ('A' for Active; 'I' for Inactive)
REMARK    1  A    between atoms: C_1  and  C_2
REMARK    2  A    between atoms: C_5  and  C_6
REMARK    3  A    between atoms: C_6  and  N_7
REMARK    4  A    between atoms: N_7  and  C_8
REMARK    5  A    between atoms: C_10  and  C_11
REMARK    6  A    between atoms: C_19  and  C_20
REMARK    7  A    between atoms: C_27  and  C_28
REMARK                            x       y       z     vdW  Elec       q    Type
REMARK                         _______ _______ _______ _____ _____    ______ ____
ROOT
ATOM      1  C   UNL     1       4.288   5.302  17.490  0.00  0.00    +0.000 A 
ATOM      2  N   UNL     1       4.978   5.442  16.359  0.00  0.00    +0.000 NA
ATOM      3  C   UNL     1       5.350   4.298  15.725  0.00  0.00    +0.000 A 
ATOM      4  N   UNL     1       5.068   3.056  16.177  0.00  0.00    +0.000 NA
ATOM      5  N   UNL     1       4.348   2.911  17.300  0.00  0.00    +0.000 NA
ATOM      6  C   UNL     1       3.933   4.023  17.970  0.00  0.00    +0.000 A 
ENDROOT
BRANCH   3   7
ATOM      7  C   UNL     1       6.135   4.433  14.492  0.00  0.00    +0.000 A 
ATOM      8  C   UNL     1       5.821   3.696  13.347  0.00  0.00    +0.000 A 
ATOM      9  C   UNL     1       6.573   3.864  12.193  0.00  0.00    +0.000 A 
ATOM     10  C   UNL     1       7.637   4.752  12.198  0.00  0.00    +0.000 A 
ATOM     11  C   UNL     1       7.902   5.446  13.372  0.00  0.00    +0.000 A 
ATOM     12  N   UNL     1       7.181   5.311  14.501  0.00  0.00    +0.000 NA
ENDBRANCH   3   7
BRANCH   6  13
ATOM     13  C   UNL     1       2.994   3.774  19.066  0.00  0.00    +0.000 A 
ATOM     14  C   UNL     1       1.605   3.988  18.951  0.00  0.00    +0.000 A 
ATOM     15  C   UNL     1       0.730   3.656  19.965  0.00  0.00    +0.000 A 
ATOM     16  C   UNL     1       1.210   3.132  21.159  0.00  0.00    +0.000 A 
ATOM     17  C   UNL     1       2.587   2.933  21.320  0.00  0.00    +0.000 A 
ATOM     18  C   UNL     1       3.458   3.250  20.292  0.00  0.00    +0.000 A 
ENDBRANCH   6  13
BRANCH   1  19
ATOM     19  N   UNL     1       4.029   6.454  18.262  0.00  0.00    +0.000 N 
ATOM     20  H   UNL     1       3.725   6.199  19.190  0.00  0.00    +0.000 HD
BRANCH  19  21
ATOM     21  C   UNL     1       3.083   7.428  17.739  0.00  0.00    +0.000 C 
BRANCH  21  26
ATOM     22  C   UNL     1      -0.328   9.519  22.039  0.00  0.00    +0.000 C 
ATOM     23  C   UNL     1       0.548   9.012  20.924  0.00  0.00    +0.000 A 
ATOM     24  C   UNL     1       1.263   7.824  21.109  0.00  0.00    +0.000 A 
ATOM     25  C   UNL     1       2.098   7.321  20.105  0.00  0.00    +0.000 A 
ATOM     26  C   UNL     1       2.226   7.984  18.872  0.00  0.00    +0.000 A 
ATOM     27  C   UNL     1       1.503   9.174  18.692  0.00  0.00    +0.000 A 
ATOM     28  C   UNL     1       0.675   9.703  19.704  0.00  0.00    +0.000 A 
ATOM     29  C   UNL     1      -0.049  11.001  19.471  0.00  0.00    +0.000 C 
ENDBRANCH  21  26
ENDBRANCH  19  21
ENDBRANCH   1  19
TORSDOF 5
ENDMDL
MODEL 2
REMARK VINA RESULT:      -8.8      0.579      1.301
REMARK  Name = 
REMARK  7 active torsions:
REMARK  status: ('A' for Active; 'I' for Inactive)
REMARK    1  A    between atoms: C_1  and  C_2
REMARK    2  A    between atoms: C_5  and  C_6
REMARK    3  A    between atoms: C_6  and  N_7
REMARK    4  A    between atoms: N_7  and  C_8
REMARK    5  A    between atoms: C_10  and  C_11
REMARK    6  A    between atoms: C_19  and  C_20
REMARK    7  A    between atoms: C_27  and  C_28
REMARK                            x       y       z     vdW  Elec       q    Type
REMARK                         _______ _______ _______ _____ _____    ______ ____
ROOT
ATOM      1  C   UNL     1       4.238   5.340  17.482  0.00  0.00    +0.000 A 
ATOM      2  N   UNL     1       4.910   5.459  16.338  0.00  0.00    +0.000 NA
ATOM      3  C   UNL     1       5.343   4.306  15.761  0.00  0.00    +0.000 A 
ATOM      4  N   UNL     1       5.137   3.075  16.281  0.00  0.00    +0.000 NA
ATOM      5  N   UNL     1       4.434   2.950  17.418  0.00  0.00    +0.000 NA
ATOM      6  C   UNL     1       3.960   4.070  18.032  0.00  0.00    +0.000 A 
ENDROOT
BRANCH   3   7
ATOM      7  C   UNL     1       6.110   4.420  14.515  0.00  0.00    +0.000 A 
ATOM      8  C   UNL     1       5.763   3.684  13.379  0.00  0.00    +0.000 A 
ATOM      9  C   UNL     1       6.499   3.831  12.213  0.00  0.00    +0.000 A 
ATOM     10  C   UNL     1       7.580   4.699  12.195  0.00  0.00    +0.000 A 
ATOM     11  C   UNL     1       7.878   5.393  13.362  0.00  0.00    +0.000 A 
ATOM     12  N   UNL     1       7.173   5.277  14.503  0.00  0.00    +0.000 NA
ENDBRANCH   3   7
BRANCH   6  13
ATOM     13  C   UNL     1       3.045   3.827  19.150  0.00  0.00    +0.000 A 
ATOM     14  C   UNL     1       1.705   4.264  19.154  0.00  0.00    +0.000 A 
ATOM     15  C   UNL     1       0.836   3.940  20.175  0.00  0.00    +0.000 A 
ATOM     16  C   UNL     1       1.280   3.197  21.262  0.00  0.00    +0.000 A 
ATOM     17  C   UNL     1       2.612   2.770  21.305  0.00  0.00    +0.000 A 
ATOM     18  C   UNL     1       3.474   3.081  20.268  0.00  0.00    +0.000 A 
ENDBRANCH   6  13
BRANCH   1  19
ATOM     19  N   UNL     1       3.918   6.515  18.194  0.00  0.00    +0.000 N 
ATOM     20  H   UNL     1       3.254   6.316  18.928  0.00  0.00    +0.000 HD
BRANCH  19  21
ATOM     21  C   UNL     1       3.415   7.654  17.443  0.00  0.00    +0.000 C 
BRANCH  21  26
ATOM     22  C   UNL     1      -0.491  10.609  20.684  0.00  0.00    +0.000 C 
ATOM     23  C   UNL     1       0.505   9.826  19.871  0.00  0.00    +0.000 A 
ATOM     24  C   UNL     1       0.824  10.265  18.582  0.00  0.00    +0.000 A 
ATOM     25  C   UNL     1       1.736   9.563  17.786  0.00  0.00    +0.000 A 
ATOM     26  C   UNL     1       2.375   8.406  18.266  0.00  0.00    +0.000 A 
ATOM     27  C   UNL     1       2.051   7.973  19.562  0.00  0.00    +0.000 A 
ATOM     28  C   UNL     1       1.119   8.660  20.367  0.00  0.00    +0.000 A 
ATOM     29  C   UNL     1       0.783   8.131  21.734  0.00  0.00    +0.000 C 
ENDBRANCH  21  26
ENDBRANCH  19  21
ENDBRANCH   1  19
TORSDOF 5
ENDMDL
MODEL 3
REMARK VINA RESULT:      -8.5      0.588      1.301
REMARK  Name = 
REMARK  7 active torsions:
REMARK  status: ('A' for Active; 'I' for Inactive)
REMARK    1  A    between atoms: C_1  and  C_2
REMARK    2  A    between atoms: C_5  and  C_6
REMARK    3  A    between atoms: C_6  and  N_7
REMARK    4  A    between atoms: N_7  and  C_8
REMARK    5  A    between atoms: C_10  and  C_11
REMARK    6  A    between atoms: C_19  and  C_20
REMARK    7  A    between atoms: C_27  and  C_28
REMARK                            x       y       z     vdW  Elec       q    Type
REMARK                         _______ _______ _______ _____ _____    ______ ____
ROOT
ATOM      1  C   UNL     1       4.253   5.152  17.509  0.00  0.00    +0.000 A 
ATOM      2  N   UNL     1       4.913   5.307  16.363  0.00  0.00    +0.000 NA
ATOM      3  C   UNL     1       5.316   4.172  15.732  0.00  0.00    +0.000 A 
ATOM      4  N   UNL     1       5.091   2.924  16.203  0.00  0.00    +0.000 NA
ATOM      5  N   UNL     1       4.401   2.764  17.342  0.00  0.00    +0.000 NA
ATOM      6  C   UNL     1       3.957   3.866  18.010  0.00  0.00    +0.000 A 
ENDROOT
BRANCH   3   7
ATOM      7  C   UNL     1       6.069   4.323  14.482  0.00  0.00    +0.000 A 
ATOM      8  C   UNL     1       7.147   5.207  14.386  0.00  0.00    +0.000 A 
ATOM      9  C   UNL     1       7.848   5.309  13.193  0.00  0.00    +0.000 A 
ATOM     10  C   UNL     1       7.458   4.542  12.107  0.00  0.00    +0.000 A 
ATOM     11  C   UNL     1       6.371   3.691  12.265  0.00  0.00    +0.000 A 
ATOM     12  N   UNL     1       5.682   3.564  13.415  0.00  0.00    +0.000 NA
ENDBRANCH   3   7
BRANCH   6  13
ATOM     13  C   UNL     1       3.051   3.593  19.128  0.00  0.00    +0.000 A 
ATOM     14  C   UNL     1       3.475   2.986  20.328  0.00  0.00    +0.000 A 
ATOM     15  C   UNL     1       2.624   2.826  21.403  0.00  0.00    +0.000 A 
ATOM     16  C   UNL     1       1.298   3.230  21.312  0.00  0.00    +0.000 A 
ATOM     17  C   UNL     1       0.836   3.812  20.125  0.00  0.00    +0.000 A 
ATOM     18  C   UNL     1       1.698   3.987  19.057  0.00  0.00    +0.000 A 
ENDBRANCH   6  13
BRANCH   1  19
ATOM     19  N   UNL     1       3.965   6.302  18.275  0.00  0.00    +0.000 N 
ATOM     20  H   UNL     1       3.534   6.047  19.151  0.00  0.00    +0.000 HD
BRANCH  19  21
ATOM     21  C   UNL     1       3.148   7.341  17.668  0.00  0.00    +0.000 C 
BRANCH  21  26
ATOM     22  C   UNL     1      -0.336   9.833  21.685  0.00  0.00    +0.000 C 
ATOM     23  C   UNL     1       0.558   9.222  20.640  0.00  0.00    +0.000 A 
ATOM     24  C   UNL     1       1.267   8.056  20.950  0.00  0.00    +0.000 A 
ATOM     25  C   UNL     1       2.118   7.460  20.013  0.00  0.00    +0.000 A 
ATOM     26  C   UNL     1       2.272   8.003  18.726  0.00  0.00    +0.000 A 
ATOM     27  C   UNL     1       1.556   9.171  18.421  0.00  0.00    +0.000 A 
ATOM     28  C   UNL     1       0.711   9.795  19.363  0.00  0.00    +0.000 A 
ATOM     29  C   UNL     1      -0.004  11.066  18.995  0.00  0.00    +0.000 C 
ENDBRANCH  21  26
ENDBRANCH  19  21
ENDBRANCH   1  19
TORSDOF 5
ENDMDL
MODEL 4
REMARK VINA RESULT:      -8.2      5.317      9.589
REMARK  Name = 
REMARK  7 active torsions:
REMARK  status: ('A' for Active; 'I' for Inactive)
REMARK    1  A    between atoms: C_1  and  C_2
REMARK    2  A    between atoms: C_5  and  C_6
REMARK    3  A    between atoms: C_6  and  N_7
REMARK    4  A    between atoms: N_7  and  C_8
REMARK    5  A    between atoms: C_10  and  C_11
REMARK    6  A    between atoms: C_19  and  C_20
REMARK    7  A    between atoms: C_27  and  C_28
REMARK                            x       y       z     vdW  Elec       q    Type
REMARK                         _______ _______ _______ _____ _____    ______ ____
ROOT
ATOM      1  C   UNL     1      -1.145  11.750  20.751  0.00  0.00    +0.000 A 
ATOM      2  N   UNL     1      -0.478  10.875  20.001  0.00  0.00    +0.000 NA
ATOM      3  C   UNL     1       0.412  10.073  20.644  0.00  0.00    +0.000 A 
ATOM      4  N   UNL     1       0.653  10.123  21.974  0.00  0.00    +0.000 NA
ATOM      5  N   UNL     1      -0.039  10.983  22.737  0.00  0.00    +0.000 NA
ATOM      6  C   UNL     1      -0.957  11.800  22.149  0.00  0.00    +0.000 A 
ENDROOT
BRANCH   3   7
ATOM      7  C   UNL     1       1.177   9.121  19.830  0.00  0.00    +0.000 A 
ATOM      8  C   UNL     1       1.463   9.381  18.487  0.00  0.00    +0.000 A 
ATOM      9  C   UNL     1       2.206   8.467  17.753  0.00  0.00    +0.000 A 
ATOM     10  C   UNL     1       2.642   7.300  18.360  0.00  0.00    +0.000 A 
ATOM     11  C   UNL     1       2.314   7.098  19.696  0.00  0.00    +0.000 A 
ATOM     12  N   UNL     1       1.606   7.974  20.434  0.00  0.00    +0.000 NA
ENDBRANCH   3   7
BRANCH   6  13
ATOM     13  C   UNL     1      -1.798  12.560  23.077  0.00  0.00    +0.000 A 
ATOM     14  C   UNL     1      -1.507  13.883  23.470  0.00  0.00    +0.000 A 
ATOM     15  C   UNL     1      -2.364  14.611  24.270  0.00  0.00    +0.000 A 
ATOM     16  C   UNL     1      -3.534  14.033  24.748  0.00  0.00    +0.000 A 
ATOM     17  C   UNL     1      -3.841  12.712  24.402  0.00  0.00    +0.000 A 
ATOM     18  C   UNL     1      -2.987  11.994  23.583  0.00  0.00    +0.000 A 
ENDBRANCH   6  13
BRANCH   1  19
ATOM     19  N   UNL     1      -1.951  12.709  20.101  0.00  0.00    +0.000 N 
ATOM     20  H   UNL     1      -2.045  13.538  20.670  0.00  0.00    +0.000 HD
BRANCH  19  21
ATOM     21  C   UNL     1      -3.285  12.309  19.681  0.00  0.00    +0.000 C 
BRANCH  21  26
ATOM     22  C   UNL     1      -7.280  15.139  22.926  0.00  0.00    +0.000 C 
ATOM     23  C   UNL     1      -6.278  14.392  22.087  0.00  0.00    +0.000 A 
ATOM     24  C   UNL     1      -5.142  15.065  21.626  0.00  0.00    +0.000 A 
ATOM     25  C   UNL     1      -4.189  14.414  20.834  0.00  0.00    +0.000 A 
ATOM     26  C   UNL     1      -4.336  13.058  20.494  0.00  0.00    +0.000 A 
ATOM     27  C   UNL     1      -5.477  12.388  20.962  0.00  0.00    +0.000 A 
ATOM     28  C   UNL     1      -6.455  13.038  21.744  0.00  0.00    +0.000 A 
ATOM     29  C   UNL     1      -7.677  12.281  22.188  0.00  0.00    +0.000 C 
ENDBRANCH  21  26
ENDBRANCH  19  21
ENDBRANCH   1  19
TORSDOF 5
ENDMDL
MODEL 5
REMARK VINA RESULT:      -8.0      5.382      9.629
REMARK  Name = 
REMARK  7 active torsions:
REMARK  status: ('A' for Active; 'I' for Inactive)
REMARK    1  A    between atoms: C_1  and  C_2
REMARK    2  A    between atoms: C_5  and  C_6
REMARK    3  A    between atoms: C_6  and  N_7
REMARK    4  A    between atoms: N_7  and  C_8
REMARK    5  A    between atoms: C_10  and  C_11
REMARK    6  A    between atoms: C_19  and  C_20
REMARK    7  A    between atoms: C_27  and  C_28
REMARK                            x       y       z     vdW  Elec       q    Type
REMARK                         _______ _______ _______ _____ _____    ______ ____
ROOT
ATOM      1  C   UNL     1      -1.194  11.836  20.747  0.00  0.00    +0.000 A 
ATOM      2  N   UNL     1      -0.522  10.968  19.992  0.00  0.00    +0.000 NA
ATOM      3  C   UNL     1       0.377  10.172  20.629  0.00  0.00    +0.000 A 
ATOM      4  N   UNL     1       0.623  10.221  21.958  0.00  0.00    +0.000 NA
ATOM      5  N   UNL     1      -0.073  11.074  22.726  0.00  0.00    +0.000 NA
ATOM      6  C   UNL     1      -1.000  11.885  22.144  0.00  0.00    +0.000 A 
ENDROOT
BRANCH   3   7
ATOM      7  C   UNL     1       1.146   9.229  19.810  0.00  0.00    +0.000 A 
ATOM      8  C   UNL     1       1.430   9.497  18.468  0.00  0.00    +0.000 A 
ATOM      9  C   UNL     1       2.177   8.591  17.729  0.00  0.00    +0.000 A 
ATOM     10  C   UNL     1       2.619   7.423  18.330  0.00  0.00    +0.000 A 
ATOM     11  C   UNL     1       2.294   7.213  19.665  0.00  0.00    +0.000 A 
ATOM     12  N   UNL     1       1.581   8.080  20.407  0.00  0.00    +0.000 NA
ENDBRANCH   3   7
BRANCH   6  13
ATOM     13  C   UNL     1      -1.843  12.636  23.078  0.00  0.00    +0.000 A 
ATOM     14  C   UNL     1      -1.553  13.955  23.483  0.00  0.00    +0.000 A 
ATOM     15  C   UNL     1      -2.412  14.675  24.288  0.00  0.00    +0.000 A 
ATOM     16  C   UNL     1      -3.582  14.093  24.759  0.00  0.00    +0.000 A 
ATOM     17  C   UNL     1      -3.888  12.774  24.400  0.00  0.00    +0.000 A 
ATOM     18  C   UNL     1      -3.032  12.064  23.576  0.00  0.00    +0.000 A 
ENDBRANCH   6  13
BRANCH   1  19
ATOM     19  N   UNL     1      -2.010  12.790  20.103  0.00  0.00    +0.000 N 
ATOM     20  H   UNL     1      -2.102  13.620  20.670  0.00  0.00    +0.000 HD
BRANCH  19  21
ATOM     21  C   UNL     1      -3.346  12.383  19.697  0.00  0.00    +0.000 C 
BRANCH  21  26
ATOM     22  C   UNL     1      -7.420  15.154  22.893  0.00  0.00    +0.000 C 
ATOM     23  C   UNL     1      -6.355  14.465  22.083  0.00  0.00    +0.000 A 
ATOM     24  C   UNL     1      -6.530  13.122  21.732  0.00  0.00    +0.000 A 
ATOM     25  C   UNL     1      -5.561  12.439  20.989  0.00  0.00    +0.000 A 
ATOM     26  C   UNL     1      -4.391  13.087  20.556  0.00  0.00    +0.000 A 
ATOM     27  C   UNL     1      -4.223  14.435  20.910  0.00  0.00    +0.000 A 
ATOM     28  C   UNL     1      -5.182  15.130  21.676  0.00  0.00    +0.000 A 
ATOM     29  C   UNL     1      -4.934  16.563  22.058  0.00  0.00    +0.000 C 
ENDBRANCH  21  26
ENDBRANCH  19  21
ENDBRANCH   1  19
TORSDOF 5
ENDMDL
MODEL 6
REMARK VINA RESULT:      -7.9      3.051      7.614
REMARK  Name = 
REMARK  7 active torsions:
REMARK  status: ('A' for Active; 'I' for Inactive)
REMARK    1  A    between atoms: C_1  and  C_2
REMARK    2  A    between atoms: C_5  and  C_6
REMARK    3  A    between atoms: C_6  and  N_7
REMARK    4  A    between atoms: N_7  and  C_8
REMARK    5  A    between atoms: C_10  and  C_11
REMARK    6  A    between atoms: C_19  and  C_20
REMARK    7  A    between atoms: C_27  and  C_28
REMARK                            x       y       z     vdW  Elec       q    Type
REMARK                         _______ _______ _______ _____ _____    ______ ____
ROOT
ATOM      1  C   UNL     1       2.143   7.619  19.462  0.00  0.00    +0.000 A 
ATOM      2  N   UNL     1       1.144   8.498  19.515  0.00  0.00    +0.000 NA
ATOM      3  C   UNL     1       1.072   9.402  18.501  0.00  0.00    +0.000 A 
ATOM      4  N   UNL     1       1.947   9.456  17.472  0.00  0.00    +0.000 NA
ATOM      5  N   UNL     1       2.937   8.553  17.400  0.00  0.00    +0.000 NA
ATOM      6  C   UNL     1       3.048   7.612  18.380  0.00  0.00    +0.000 A 
ENDROOT
BRANCH   3   7
ATOM      7  C   UNL     1      -0.006  10.397  18.557  0.00  0.00    +0.000 A 
ATOM      8  C   UNL     1      -1.180  10.237  17.816  0.00  0.00    +0.000 A 
ATOM      9  C   UNL     1      -2.186  11.188  17.908  0.00  0.00    +0.000 A 
ATOM     10  C   UNL     1      -2.005  12.293  18.725  0.00  0.00    +0.000 A 
ATOM     11  C   UNL     1      -0.810  12.397  19.427  0.00  0.00    +0.000 A 
ATOM     12  N   UNL     1       0.177  11.483  19.365  0.00  0.00    +0.000 NA
ENDBRANCH   3   7
BRANCH   6  13
ATOM     13  C   UNL     1       4.029   6.556  18.119  0.00  0.00    +0.000 A 
ATOM     14  C   UNL     1       5.071   6.237  19.014  0.00  0.00    +0.000 A 
ATOM     15  C   UNL     1       5.924   5.176  18.791  0.00  0.00    +0.000 A 
ATOM     16  C   UNL     1       5.800   4.409  17.639  0.00  0.00    +0.000 A 
ATOM     17  C   UNL     1       4.795   4.715  16.713  0.00  0.00    +0.000 A 
ATOM     18  C   UNL     1       3.930   5.769  16.952  0.00  0.00    +0.000 A 
ENDBRANCH   6  13
BRANCH   1  19
ATOM     19  N   UNL     1       2.350   6.776  20.575  0.00  0.00    +0.000 N 
ATOM     20  H   UNL     1       3.300   6.436  20.591  0.00  0.00    +0.000 HD
BRANCH  19  21
ATOM     21  C   UNL     1       1.468   5.631  20.738  0.00  0.00    +0.000 C 
BRANCH  21  26
ATOM     22  C   UNL     1       3.637   0.875  18.061  0.00  0.00    +0.000 C 
ATOM     23  C   UNL     1       3.109   2.097  18.763  0.00  0.00    +0.000 A 
ATOM     24  C   UNL     1       2.041   2.799  18.194  0.00  0.00    +0.000 A 
ATOM     25  C   UNL     1       1.524   3.946  18.805  0.00  0.00    +0.000 A 
ATOM     26  C   UNL     1       2.050   4.417  20.021  0.00  0.00    +0.000 A 
ATOM     27  C   UNL     1       3.119   3.707  20.587  0.00  0.00    +0.000 A 
ATOM     28  C   UNL     1       3.663   2.560  19.971  0.00  0.00    +0.000 A 
ATOM     29  C   UNL     1       4.834   1.859  20.604  0.00  0.00    +0.000 C 
ENDBRANCH  21  26
ENDBRANCH  19  21
ENDBRANCH   1  19
TORSDOF 5
ENDMDL
MODEL 7
REMARK VINA RESULT:      -7.7      0.592      1.589
REMARK  Name = 
REMARK  7 active torsions:
REMARK  status: ('A' for Active; 'I' for Inactive)
REMARK    1  A    between atoms: C_1  and  C_2
REMARK    2  A    between atoms: C_5  and  C_6
REMARK    3  A    between atoms: C_6  and  N_7
REMARK    4  A    between atoms: N_7  and  C_8
REMARK    5  A    between atoms: C_10  and  C_11
REMARK    6  A    between atoms: C_19  and  C_20
REMARK    7  A    between atoms: C_27  and  C_28
REMARK                            x       y       z     vdW  Elec       q    Type
REMARK                         _______ _______ _______ _____ _____    ______ ____
ROOT
ATOM      1  C   UNL     1       3.725   5.053  17.204  0.00  0.00    +0.000 A 
ATOM      2  N   UNL     1       4.448   5.229  16.099  0.00  0.00    +0.000 NA
ATOM      3  C   UNL     1       5.337   4.248  15.789  0.00  0.00    +0.000 A 
ATOM      4  N   UNL     1       5.524   3.133  16.531  0.00  0.00    +0.000 NA
ATOM      5  N   UNL     1       4.776   2.939  17.628  0.00  0.00    +0.000 NA
ATOM      6  C   UNL     1       3.856   3.881  17.979  0.00  0.00    +0.000 A 
ENDROOT
BRANCH   3   7
ATOM      7  C   UNL     1       6.163   4.438  14.591  0.00  0.00    +0.000 A 
ATOM      8  C   UNL     1       5.913   3.724  13.415  0.00  0.00    +0.000 A 
ATOM      9  C   UNL     1       6.702   3.944  12.296  0.00  0.00    +0.000 A 
ATOM     10  C   UNL     1       7.740   4.860  12.364  0.00  0.00    +0.000 A 
ATOM     11  C   UNL     1       7.941   5.529  13.566  0.00  0.00    +0.000 A 
ATOM     12  N   UNL     1       7.183   5.343  14.662  0.00  0.00    +0.000 NA
ENDBRANCH   3   7
BRANCH   6  13
ATOM     13  C   UNL     1       2.957   3.496  19.069  0.00  0.00    +0.000 A 
ATOM     14  C   UNL     1       3.397   3.293  20.393  0.00  0.00    +0.000 A 
ATOM     15  C   UNL     1       2.517   3.024  21.421  0.00  0.00    +0.000 A 
ATOM     16  C   UNL     1       1.156   2.905  21.163  0.00  0.00    +0.000 A 
ATOM     17  C   UNL     1       0.686   3.073  19.855  0.00  0.00    +0.000 A 
ATOM     18  C   UNL     1       1.572   3.362  18.832  0.00  0.00    +0.000 A 
ENDBRANCH   6  13
BRANCH   1  19
ATOM     19  N   UNL     1       2.915   6.120  17.649  0.00  0.00    +0.000 N 
ATOM     20  H   UNL     1       2.927   6.877  16.981  0.00  0.00    +0.000 HD
BRANCH  19  21
ATOM     21  C   UNL     1       3.188   6.684  18.961  0.00  0.00    +0.000 C 
BRANCH  21  26
ATOM     22  C   UNL     1      -0.545  11.043  20.208  0.00  0.00    +0.000 C 
ATOM     23  C   UNL     1       0.400   9.909  19.913  0.00  0.00    +0.000 A 
ATOM     24  C   UNL     1       0.945   9.795  18.629  0.00  0.00    +0.000 A 
ATOM     25  C   UNL     1       1.820   8.752  18.307  0.00  0.00    +0.000 A 
ATOM     26  C   UNL     1       2.193   7.797  19.269  0.00  0.00    +0.000 A 
ATOM     27  C   UNL     1       1.644   7.919  20.556  0.00  0.00    +0.000 A 
ATOM     28  C   UNL     1       0.746   8.954  20.888  0.00  0.00    +0.000 A 
ATOM     29  C   UNL     1       0.159   9.016  22.272  0.00  0.00    +0.000 C 
ENDBRANCH  21  26
ENDBRANCH  19  21
ENDBRANCH   1  19
TORSDOF 5
ENDMDL
MODEL 8
REMARK VINA RESULT:      -7.6      2.945      6.411
REMARK  Name = 
REMARK  7 active torsions:
REMARK  status: ('A' for Active; 'I' for Inactive)
REMARK    1  A    between atoms: C_1  and  C_2
REMARK    2  A    between atoms: C_5  and  C_6
REMARK    3  A    between atoms: C_6  and  N_7
REMARK    4  A    between atoms: N_7  and  C_8
REMARK    5  A    between atoms: C_10  and  C_11
REMARK    6  A    between atoms: C_19  and  C_20
REMARK    7  A    between atoms: C_27  and  C_28
REMARK                            x       y       z     vdW  Elec       q    Type
REMARK                         _______ _______ _______ _____ _____    ______ ____
ROOT
ATOM      1  C   UNL     1       1.531   9.739  18.489  0.00  0.00    +0.000 A 
ATOM      2  N   UNL     1       2.237   8.786  17.883  0.00  0.00    +0.000 NA
ATOM      3  C   UNL     1       2.453   7.644  18.589  0.00  0.00    +0.000 A 
ATOM      4  N   UNL     1       2.003   7.435  19.847  0.00  0.00    +0.000 NA
ATOM      5  N   UNL     1       1.266   8.381  20.449  0.00  0.00    +0.000 NA
ATOM      6  C   UNL     1       1.004   9.541  19.783  0.00  0.00    +0.000 A 
ENDROOT
BRANCH   3   7
ATOM      7  C   UNL     1       3.252   6.593  17.948  0.00  0.00    +0.000 A 
ATOM      8  C   UNL     1       4.403   6.900  17.218  0.00  0.00    +0.000 A 
ATOM      9  C   UNL     1       5.145   5.879  16.642  0.00  0.00    +0.000 A 
ATOM     10  C   UNL     1       4.725   4.567  16.788  0.00  0.00    +0.000 A 
ATOM     11  C   UNL     1       3.566   4.330  17.518  0.00  0.00    +0.000 A 
ATOM     12  N   UNL     1       2.834   5.301  18.096  0.00  0.00    +0.000 NA
ENDBRANCH   3   7
BRANCH   6  13
ATOM     13  C   UNL     1       0.036  10.427  20.434  0.00  0.00    +0.000 A 
ATOM     14  C   UNL     1       0.076  10.728  21.811  0.00  0.00    +0.000 A 
ATOM     15  C   UNL     1      -0.787  11.639  22.384  0.00  0.00    +0.000 A 
ATOM     16  C   UNL     1      -1.760  12.262  21.611  0.00  0.00    +0.000 A 
ATOM     17  C   UNL     1      -1.848  11.966  20.245  0.00  0.00    +0.000 A 
ATOM     18  C   UNL     1      -0.966  11.066  19.673  0.00  0.00    +0.000 A 
ENDBRANCH   6  13
BRANCH   1  19
ATOM     19  N   UNL     1       1.428  10.997  17.858  0.00  0.00    +0.000 N 
ATOM     20  H   UNL     1       1.344  10.887  16.858  0.00  0.00    +0.000 HD
BRANCH  19  21
ATOM     21  C   UNL     1       2.475  11.975  18.108  0.00  0.00    +0.000 C 
BRANCH  21  26
ATOM     22  C   UNL     1       0.403  16.063  21.780  0.00  0.00    +0.000 C 
ATOM     23  C   UNL     1       0.925  15.033  20.814  0.00  0.00    +0.000 A 
ATOM     24  C   UNL     1       1.894  14.123  21.250  0.00  0.00    +0.000 A 
ATOM     25  C   UNL     1       2.416  13.155  20.384  0.00  0.00    +0.000 A 
ATOM     26  C   UNL     1       1.966  13.056  19.056  0.00  0.00    +0.000 A 
ATOM     27  C   UNL     1       0.992  13.970  18.626  0.00  0.00    +0.000 A 
ATOM     28  C   UNL     1       0.473  14.964  19.482  0.00  0.00    +0.000 A 
ATOM     29  C   UNL     1      -0.543  15.941  18.959  0.00  0.00    +0.000 C 
ENDBRANCH  21  26
ENDBRANCH  19  21
ENDBRANCH   1  19
TORSDOF 5
ENDMDL
MODEL 9
REMARK VINA RESULT:      -7.5      3.055      6.733
REMARK  Name = 
REMARK  7 active torsions:
REMARK  status: ('A' for Active; 'I' for Inactive)
REMARK    1  A    between atoms: C_1  and  C_2
REMARK    2  A    between atoms: C_5  and  C_6
REMARK    3  A    between atoms: C_6  and  N_7
REMARK    4  A    between atoms: N_7  and  C_8
REMARK    5  A    between atoms: C_10  and  C_11
REMARK    6  A    between atoms: C_19  and  C_20
REMARK    7  A    between atoms: C_27  and  C_28
REMARK                            x       y       z     vdW  Elec       q    Type
REMARK                         _______ _______ _______ _____ _____    ______ ____
ROOT
ATOM      1  C   UNL     1       1.156   8.833  19.876  0.00  0.00    +0.000 A 
ATOM      2  N   UNL     1       1.832   7.693  20.001  0.00  0.00    +0.000 NA
ATOM      3  C   UNL     1       2.570   7.299  18.929  0.00  0.00    +0.000 A 
ATOM      4  N   UNL     1       2.645   7.989  17.768  0.00  0.00    +0.000 NA
ATOM      5  N   UNL     1       1.989   9.154  17.650  0.00  0.00    +0.000 NA
ATOM      6  C   UNL     1       1.245   9.606  18.699  0.00  0.00    +0.000 A 
ENDROOT
BRANCH   3   7
ATOM      7  C   UNL     1       3.300   6.031  19.038  0.00  0.00    +0.000 A 
ATOM      8  C   UNL     1       2.808   4.974  19.809  0.00  0.00    +0.000 A 
ATOM      9  C   UNL     1       3.515   3.783  19.873  0.00  0.00    +0.000 A 
ATOM     10  C   UNL     1       4.710   3.662  19.181  0.00  0.00    +0.000 A 
ATOM     11  C   UNL     1       5.148   4.754  18.441  0.00  0.00    +0.000 A 
ATOM     12  N   UNL     1       4.476   5.917  18.352  0.00  0.00    +0.000 NA
ENDBRANCH   3   7
BRANCH   6  13
ATOM     13  C   UNL     1       0.729  10.968  18.553  0.00  0.00    +0.000 A 
ATOM     14  C   UNL     1      -0.643  11.257  18.399  0.00  0.00    +0.000 A 
ATOM     15  C   UNL     1      -1.115  12.553  18.360  0.00  0.00    +0.000 A 
ATOM     16  C   UNL     1      -0.230  13.622  18.431  0.00  0.00    +0.000 A 
ATOM     17  C   UNL     1       1.142  13.373  18.555  0.00  0.00    +0.000 A 
ATOM     18  C   UNL     1       1.607  12.071  18.614  0.00  0.00    +0.000 A 
ENDBRANCH   6  13
BRANCH   1  19
ATOM     19  N   UNL     1       0.250   9.188  20.899  0.00  0.00    +0.000 N 
ATOM     20  H   UNL     1      -0.553   9.663  20.513  0.00  0.00    +0.000 HD
BRANCH  19  21
ATOM     21  C   UNL     1       0.748   9.991  22.005  0.00  0.00    +0.000 C 
BRANCH  21  26
ATOM     22  C   UNL     1      -3.202  14.154  23.253  0.00  0.00    +0.000 C 
ATOM     23  C   UNL     1      -2.167  13.110  22.929  0.00  0.00    +0.000 A 
ATOM     24  C   UNL     1      -2.369  11.796  23.364  0.00  0.00    +0.000 A 
ATOM     25  C   UNL     1      -1.430  10.794  23.095  0.00  0.00    +0.000 A 
ATOM     26  C   UNL     1      -0.264  11.075  22.361  0.00  0.00    +0.000 A 
ATOM     27  C   UNL     1      -0.069  12.395  21.926  0.00  0.00    +0.000 A 
ATOM     28  C   UNL     1      -0.998  13.418  22.207  0.00  0.00    +0.000 A 
ATOM     29  C   UNL     1      -0.721  14.823  21.748  0.00  0.00    +0.000 C 
ENDBRANCH  21  26
ENDBRANCH  19  21
ENDBRANCH   1  19
TORSDOF 5
ENDMDL
