MODEL 1
REMARK VINA RESULT:      -8.4      0.000      0.000
REMARK  Name = 
REMARK  5 active torsions:
REMARK  status: ('A' for Active; 'I' for Inactive)
REMARK    1  A    between atoms: N_8  and  C_9
REMARK    2  A    between atoms: C_9  and  C_10
REMARK    3  A    between atoms: C_13  and  S_14
REMARK    4  A    between atoms: S_14  and  C_15
REMARK    5  A    between atoms: C_15  and  C_16
REMARK                            x       y       z     vdW  Elec       q    Type
REMARK                         _______ _______ _______ _____ _____    ______ ____
ROOT
ATOM      1  C   UNL     1       2.809   6.870  18.282  0.00  0.00    +0.000 A 
ATOM      2  N   UNL     1       3.746   7.571  17.665  0.00  0.00    +0.000 NA
ATOM      3  N   UNL     1       4.942   6.923  17.810  0.00  0.00    +0.000 NA
ATOM      4  C   UNL     1       4.728   5.830  18.506  0.00  0.00    +0.000 A 
ATOM      5  N   UNL     1       3.385   5.725  18.845  0.00  0.00    +0.000 N 
ATOM      6  C   UNL     1       2.700   4.729  19.593  0.00  0.00    +0.000 A 
ATOM      7  C   UNL     1       3.332   3.985  20.583  0.00  0.00    +0.000 A 
ATOM      8  C   UNL     1       2.586   3.073  21.329  0.00  0.00    +0.000 A 
ATOM      9  C   UNL     1       1.229   2.928  21.078  0.00  0.00    +0.000 A 
ATOM     10  C   UNL     1       0.674   3.699  20.079  0.00  0.00    +0.000 A 
ATOM     11  N   UNL     1       1.379   4.579  19.334  0.00  0.00    +0.000 NA
ENDROOT
BRANCH   1  12
ATOM     12  C   UNL     1       1.416   7.374  18.549  0.00  0.00    +0.000 C 
BRANCH  12  20
ATOM     13  O   UNL     1       0.562   9.919  17.870  0.00  0.00    +0.000 OA
ATOM     14  C   UNL     1       0.952   9.729  19.024  0.00  0.00    +0.000 C 
ATOM     15  C   UNL     1       0.957  10.879  20.007  0.00  0.00    +0.000 C 
ATOM     16  C   UNL     1      -0.282  10.861  20.888  0.00  0.00    +0.000 C 
ATOM     17  C   UNL     1      -0.179   9.880  22.052  0.00  0.00    +0.000 C 
ATOM     18  C   UNL     1       0.065   8.426  21.643  0.00  0.00    +0.000 C 
ATOM     19  C   UNL     1       1.404   8.190  20.936  0.00  0.00    +0.000 C 
ATOM     20  N   UNL     1       1.355   8.488  19.504  0.00  0.00    +0.000 N 
ENDBRANCH  12  20
ENDBRANCH   1  12
BRANCH   4  21
ATOM     21  S   UNL     1       5.936   4.600  18.722  0.00  0.00    +0.000 S 
BRANCH  21  22
ATOM     22  C   UNL     1       7.251   5.186  17.614  0.00  0.00    +0.000 C 
BRANCH  22  23
ATOM     23  C   UNL     1       7.039   4.875  16.156  0.00  0.00    +0.000 A 
ATOM     24  N   UNL     1       7.745   5.343  15.144  0.00  0.00    +0.000 NA
ATOM     25  C   UNL     1       7.273   4.821  13.947  0.00  0.00    +0.000 A 
ATOM     26  C   UNL     1       7.769   5.118  12.660  0.00  0.00    +0.000 A 
ATOM     27  C   UNL     1       7.187   4.525  11.534  0.00  0.00    +0.000 A 
ATOM     28  C   UNL     1       6.128   3.633  11.674  0.00  0.00    +0.000 A 
ATOM     29  C   UNL     1       5.625   3.315  12.940  0.00  0.00    +0.000 A 
ATOM     30  C   UNL     1       6.209   3.925  14.063  0.00  0.00    +0.000 A 
ATOM     31  S   UNL     1       5.804   3.752  15.725  0.00  0.00    +0.000 S 
ENDBRANCH  22  23
ENDBRANCH  21  22
ENDBRANCH   4  21
TORSDOF 5
ENDMDL
MODEL 2
REMARK VINA RESULT:      -8.2      2.857      9.059
REMARK  Name = 
REMARK  5 active torsions:
REMARK  status: ('A' for Active; 'I' for Inactive)
REMARK    1  A    between atoms: N_8  and  C_9
REMARK    2  A    between atoms: C_9  and  C_10
REMARK    3  A    between atoms: C_13  and  S_14
REMARK    4  A    between atoms: S_14  and  C_15
REMARK    5  A    between atoms: C_15  and  C_16
REMARK                            x       y       z     vdW  Elec       q    Type
REMARK                         _______ _______ _______ _____ _____    ______ ____
ROOT
ATOM      1  C   UNL     1       4.620   5.316  16.888  0.00  0.00    +0.000 A 
ATOM      2  N   UNL     1       4.954   6.580  16.686  0.00  0.00    +0.000 NA
ATOM      3  N   UNL     1       4.141   7.373  17.450  0.00  0.00    +0.000 NA
ATOM      4  C   UNL     1       3.324   6.590  18.116  0.00  0.00    +0.000 A 
ATOM      5  N   UNL     1       3.570   5.258  17.811  0.00  0.00    +0.000 N 
ATOM      6  C   UNL     1       2.933   4.075  18.276  0.00  0.00    +0.000 A 
ATOM      7  C   UNL     1       1.603   4.064  18.683  0.00  0.00    +0.000 A 
ATOM      8  C   UNL     1       1.018   2.855  19.061  0.00  0.00    +0.000 A 
ATOM      9  C   UNL     1       1.767   1.688  19.020  0.00  0.00    +0.000 A 
ATOM     10  C   UNL     1       3.079   1.779  18.608  0.00  0.00    +0.000 A 
ATOM     11  N   UNL     1       3.671   2.940  18.250  0.00  0.00    +0.000 NA
ENDROOT
BRANCH   1  12
ATOM     12  C   UNL     1       5.120   4.167  16.053  0.00  0.00    +0.000 C 
BRANCH  12  20
ATOM     13  O   UNL     1       7.815   4.675  15.667  0.00  0.00    +0.000 OA
ATOM     14  C   UNL     1       7.053   4.840  14.712  0.00  0.00    +0.000 C 
ATOM     15  C   UNL     1       7.611   5.316  13.389  0.00  0.00    +0.000 C 
ATOM     16  C   UNL     1       7.848   4.153  12.437  0.00  0.00    +0.000 C 
ATOM     17  C   UNL     1       6.580   3.691  11.725  0.00  0.00    +0.000 C 
ATOM     18  C   UNL     1       5.449   3.247  12.655  0.00  0.00    +0.000 C 
ATOM     19  C   UNL     1       4.898   4.364  13.548  0.00  0.00    +0.000 C 
ATOM     20  N   UNL     1       5.690   4.570  14.761  0.00  0.00    +0.000 N 
ENDBRANCH  12  20
ENDBRANCH   1  12
BRANCH   4  21
ATOM     21  S   UNL     1       2.281   7.174  19.378  0.00  0.00    +0.000 S 
BRANCH  21  22
ATOM     22  C   UNL     1       1.747   8.771  18.695  0.00  0.00    +0.000 C 
BRANCH  22  23
ATOM     23  C   UNL     1       0.862   9.586  19.603  0.00  0.00    +0.000 A 
ATOM     24  N   UNL     1       0.636   9.362  20.883  0.00  0.00    +0.000 NA
ATOM     25  C   UNL     1      -0.215  10.332  21.397  0.00  0.00    +0.000 A 
ATOM     26  C   UNL     1      -0.694  10.398  22.722  0.00  0.00    +0.000 A 
ATOM     27  C   UNL     1      -1.560  11.429  23.101  0.00  0.00    +0.000 A 
ATOM     28  C   UNL     1      -1.945  12.401  22.182  0.00  0.00    +0.000 A 
ATOM     29  C   UNL     1      -1.476  12.363  20.864  0.00  0.00    +0.000 A 
ATOM     30  C   UNL     1      -0.616  11.316  20.492  0.00  0.00    +0.000 A 
ATOM     31  S   UNL     1       0.102  10.994  18.963  0.00  0.00    +0.000 S 
ENDBRANCH  22  23
ENDBRANCH  21  22
ENDBRANCH   4  21
TORSDOF 5
ENDMDL
MODEL 3
REMARK VINA RESULT:      -8.2      2.748      9.026
REMARK  Name = 
REMARK  5 active torsions:
REMARK  status: ('A' for Active; 'I' for Inactive)
REMARK    1  A    between atoms: N_8  and  C_9
REMARK    2  A    between atoms: C_9  and  C_10
REMARK    3  A    between atoms: C_13  and  S_14
REMARK    4  A    between atoms: S_14  and  C_15
REMARK    5  A    between atoms: C_15  and  C_16
REMARK                            x       y       z     vdW  Elec       q    Type
REMARK                         _______ _______ _______ _____ _____    ______ ____
ROOT
ATOM      1  C   UNL     1       4.623   5.256  16.892  0.00  0.00    +0.000 A 
ATOM      2  N   UNL     1       4.965   6.521  16.712  0.00  0.00    +0.000 NA
ATOM      3  N   UNL     1       4.170   7.305  17.503  0.00  0.00    +0.000 NA
ATOM      4  C   UNL     1       3.355   6.516  18.164  0.00  0.00    +0.000 A 
ATOM      5  N   UNL     1       3.585   5.188  17.828  0.00  0.00    +0.000 N 
ATOM      6  C   UNL     1       2.944   4.001  18.278  0.00  0.00    +0.000 A 
ATOM      7  C   UNL     1       1.620   3.993  18.702  0.00  0.00    +0.000 A 
ATOM      8  C   UNL     1       1.030   2.782  19.064  0.00  0.00    +0.000 A 
ATOM      9  C   UNL     1       1.767   1.609  18.988  0.00  0.00    +0.000 A 
ATOM     10  C   UNL     1       3.074   1.697  18.560  0.00  0.00    +0.000 A 
ATOM     11  N   UNL     1       3.671   2.860  18.217  0.00  0.00    +0.000 NA
ENDROOT
BRANCH   1  12
ATOM     12  C   UNL     1       5.101   4.121  16.027  0.00  0.00    +0.000 C 
BRANCH  12  20
ATOM     13  O   UNL     1       7.791   4.699  15.712  0.00  0.00    +0.000 OA
ATOM     14  C   UNL     1       7.049   4.852  14.739  0.00  0.00    +0.000 C 
ATOM     15  C   UNL     1       7.627   5.351  13.433  0.00  0.00    +0.000 C 
ATOM     16  C   UNL     1       7.917   4.203  12.479  0.00  0.00    +0.000 C 
ATOM     17  C   UNL     1       6.679   3.715  11.733  0.00  0.00    +0.000 C 
ATOM     18  C   UNL     1       5.538   3.235  12.631  0.00  0.00    +0.000 C 
ATOM     19  C   UNL     1       4.936   4.331  13.518  0.00  0.00    +0.000 C 
ATOM     20  N   UNL     1       5.693   4.547  14.752  0.00  0.00    +0.000 N 
ENDBRANCH  12  20
ENDBRANCH   1  12
BRANCH   4  21
ATOM     21  S   UNL     1       2.335   7.083  19.452  0.00  0.00    +0.000 S 
BRANCH  21  22
ATOM     22  C   UNL     1       1.775   8.681  18.793  0.00  0.00    +0.000 C 
BRANCH  22  23
ATOM     23  C   UNL     1       0.921   9.491  19.733  0.00  0.00    +0.000 A 
ATOM     24  N   UNL     1       0.199  10.549  19.420  0.00  0.00    +0.000 NA
ATOM     25  C   UNL     1      -0.473  11.021  20.539  0.00  0.00    +0.000 A 
ATOM     26  C   UNL     1      -1.318  12.149  20.586  0.00  0.00    +0.000 A 
ATOM     27  C   UNL     1      -1.924  12.519  21.792  0.00  0.00    +0.000 A 
ATOM     28  C   UNL     1      -1.710  11.773  22.947  0.00  0.00    +0.000 A 
ATOM     29  C   UNL     1      -0.885  10.644  22.925  0.00  0.00    +0.000 A 
ATOM     30  C   UNL     1      -0.272  10.289  21.711  0.00  0.00    +0.000 A 
ATOM     31  S   UNL     1       0.796   8.983  21.375  0.00  0.00    +0.000 S 
ENDBRANCH  22  23
ENDBRANCH  21  22
ENDBRANCH   4  21
TORSDOF 5
ENDMDL
MODEL 4
REMARK VINA RESULT:      -8.0      3.147      8.805
REMARK  Name = 
REMARK  5 active torsions:
REMARK  status: ('A' for Active; 'I' for Inactive)
REMARK    1  A    between atoms: N_8  and  C_9
REMARK    2  A    between atoms: C_9  and  C_10
REMARK    3  A    between atoms: C_13  and  S_14
REMARK    4  A    between atoms: S_14  and  C_15
REMARK    5  A    between atoms: C_15  and  C_16
REMARK                            x       y       z     vdW  Elec       q    Type
REMARK                         _______ _______ _______ _____ _____    ______ ____
ROOT
ATOM      1  C   UNL     1       3.059   6.290  18.304  0.00  0.00    +0.000 A 
ATOM      2  N   UNL     1       2.881   7.568  18.010  0.00  0.00    +0.000 NA
ATOM      3  N   UNL     1       2.082   8.128  18.970  0.00  0.00    +0.000 NA
ATOM      4  C   UNL     1       1.785   7.194  19.844  0.00  0.00    +0.000 A 
ATOM      5  N   UNL     1       2.375   5.989  19.487  0.00  0.00    +0.000 N 
ATOM      6  C   UNL     1       2.323   4.716  20.119  0.00  0.00    +0.000 A 
ATOM      7  C   UNL     1       1.234   4.318  20.886  0.00  0.00    +0.000 A 
ATOM      8  C   UNL     1       1.214   3.030  21.420  0.00  0.00    +0.000 A 
ATOM      9  C   UNL     1       2.272   2.167  21.173  0.00  0.00    +0.000 A 
ATOM     10  C   UNL     1       3.318   2.635  20.405  0.00  0.00    +0.000 A 
ATOM     11  N   UNL     1       3.365   3.883  19.889  0.00  0.00    +0.000 NA
ENDROOT
BRANCH   1  12
ATOM     12  C   UNL     1       3.675   5.287  17.366  0.00  0.00    +0.000 C 
BRANCH  12  20
ATOM     13  O   UNL     1       5.157   7.031  15.806  0.00  0.00    +0.000 OA
ATOM     14  C   UNL     1       5.767   6.202  16.485  0.00  0.00    +0.000 C 
ATOM     15  C   UNL     1       7.279   6.164  16.433  0.00  0.00    +0.000 C 
ATOM     16  C   UNL     1       7.893   6.923  17.599  0.00  0.00    +0.000 C 
ATOM     17  C   UNL     1       7.927   6.114  18.891  0.00  0.00    +0.000 C 
ATOM     18  C   UNL     1       6.561   5.630  19.381  0.00  0.00    +0.000 C 
ATOM     19  C   UNL     1       5.869   4.645  18.432  0.00  0.00    +0.000 C 
ATOM     20  N   UNL     1       5.144   5.308  17.348  0.00  0.00    +0.000 N 
ENDBRANCH  12  20
ENDBRANCH   1  12
BRANCH   4  21
ATOM     21  S   UNL     1       0.982   7.534  21.347  0.00  0.00    +0.000 S 
BRANCH  21  22
ATOM     22  C   UNL     1       1.475   9.258  21.640  0.00  0.00    +0.000 C 
BRANCH  22  23
ATOM     23  C   UNL     1       0.338  10.245  21.688  0.00  0.00    +0.000 A 
ATOM     24  N   UNL     1      -0.219  10.746  22.774  0.00  0.00    +0.000 NA
ATOM     25  C   UNL     1      -1.223  11.640  22.430  0.00  0.00    +0.000 A 
ATOM     26  C   UNL     1      -2.048  12.347  23.329  0.00  0.00    +0.000 A 
ATOM     27  C   UNL     1      -3.034  13.212  22.840  0.00  0.00    +0.000 A 
ATOM     28  C   UNL     1      -3.199  13.390  21.469  0.00  0.00    +0.000 A 
ATOM     29  C   UNL     1      -2.387  12.708  20.558  0.00  0.00    +0.000 A 
ATOM     30  C   UNL     1      -1.408  11.834  21.060  0.00  0.00    +0.000 A 
ATOM     31  S   UNL     1      -0.285  10.854  20.202  0.00  0.00    +0.000 S 
ENDBRANCH  22  23
ENDBRANCH  21  22
ENDBRANCH   4  21
TORSDOF 5
ENDMDL
MODEL 5
REMARK VINA RESULT:      -8.0      4.120      7.089
REMARK  Name = 
REMARK  5 active torsions:
REMARK  status: ('A' for Active; 'I' for Inactive)
REMARK    1  A    between atoms: N_8  and  C_9
REMARK    2  A    between atoms: C_9  and  C_10
REMARK    3  A    between atoms: C_13  and  S_14
REMARK    4  A    between atoms: S_14  and  C_15
REMARK    5  A    between atoms: C_15  and  C_16
REMARK                            x       y       z     vdW  Elec       q    Type
REMARK                         _______ _______ _______ _____ _____    ______ ____
ROOT
ATOM      1  C   UNL     1       1.881  12.739  19.685  0.00  0.00    +0.000 A 
ATOM      2  N   UNL     1       2.514  12.853  18.529  0.00  0.00    +0.000 NA
ATOM      3  N   UNL     1       2.409  11.666  17.856  0.00  0.00    +0.000 NA
ATOM      4  C   UNL     1       1.707  10.841  18.599  0.00  0.00    +0.000 A 
ATOM      5  N   UNL     1       1.332  11.456  19.786  0.00  0.00    +0.000 N 
ATOM      6  C   UNL     1       0.584  10.954  20.886  0.00  0.00    +0.000 A 
ATOM      7  C   UNL     1       0.573   9.603  21.215  0.00  0.00    +0.000 A 
ATOM      8  C   UNL     1      -0.124   9.185  22.348  0.00  0.00    +0.000 A 
ATOM      9  C   UNL     1      -0.788  10.120  23.130  0.00  0.00    +0.000 A 
ATOM     10  C   UNL     1      -0.734  11.441  22.738  0.00  0.00    +0.000 A 
ATOM     11  N   UNL     1      -0.076  11.867  21.637  0.00  0.00    +0.000 NA
ENDROOT
BRANCH   1  12
ATOM     12  C   UNL     1       1.975  13.745  20.801  0.00  0.00    +0.000 C 
BRANCH  12  20
ATOM     13  O   UNL     1       3.582  15.841  19.969  0.00  0.00    +0.000 OA
ATOM     14  C   UNL     1       2.374  16.054  20.097  0.00  0.00    +0.000 C 
ATOM     15  C   UNL     1       1.826  17.434  19.807  0.00  0.00    +0.000 C 
ATOM     16  C   UNL     1       1.248  17.518  18.402  0.00  0.00    +0.000 C 
ATOM     17  C   UNL     1      -0.162  16.947  18.298  0.00  0.00    +0.000 C 
ATOM     18  C   UNL     1      -0.293  15.482  18.717  0.00  0.00    +0.000 C 
ATOM     19  C   UNL     1       0.023  15.222  20.195  0.00  0.00    +0.000 C 
ATOM     20  N   UNL     1       1.456  15.074  20.455  0.00  0.00    +0.000 N 
ENDBRANCH  12  20
ENDBRANCH   1  12
BRANCH   4  21
ATOM     21  S   UNL     1       1.141   9.303  18.020  0.00  0.00    +0.000 S 
BRANCH  21  22
ATOM     22  C   UNL     1       2.705   8.410  17.778  0.00  0.00    +0.000 C 
BRANCH  22  23
ATOM     23  C   UNL     1       2.793   7.081  18.483  0.00  0.00    +0.000 A 
ATOM     24  N   UNL     1       2.086   6.702  19.530  0.00  0.00    +0.000 NA
ATOM     25  C   UNL     1       2.423   5.404  19.892  0.00  0.00    +0.000 A 
ATOM     26  C   UNL     1       1.888   4.681  20.978  0.00  0.00    +0.000 A 
ATOM     27  C   UNL     1       2.331   3.379  21.236  0.00  0.00    +0.000 A 
ATOM     28  C   UNL     1       3.288   2.784  20.419  0.00  0.00    +0.000 A 
ATOM     29  C   UNL     1       3.827   3.477  19.329  0.00  0.00    +0.000 A 
ATOM     30  C   UNL     1       3.383   4.789  19.088  0.00  0.00    +0.000 A 
ATOM     31  S   UNL     1       3.864   5.886  17.854  0.00  0.00    +0.000 S 
ENDBRANCH  22  23
ENDBRANCH  21  22
ENDBRANCH   4  21
TORSDOF 5
ENDMDL
MODEL 6
REMARK VINA RESULT:      -7.9      3.133      8.823
REMARK  Name = 
REMARK  5 active torsions:
REMARK  status: ('A' for Active; 'I' for Inactive)
REMARK    1  A    between atoms: N_8  and  C_9
REMARK    2  A    between atoms: C_9  and  C_10
REMARK    3  A    between atoms: C_13  and  S_14
REMARK    4  A    between atoms: S_14  and  C_15
REMARK    5  A    between atoms: C_15  and  C_16
REMARK                            x       y       z     vdW  Elec       q    Type
REMARK                         _______ _______ _______ _____ _____    ______ ____
ROOT
ATOM      1  C   UNL     1       3.072   6.275  18.259  0.00  0.00    +0.000 A 
ATOM      2  N   UNL     1       2.895   7.546  17.936  0.00  0.00    +0.000 NA
ATOM      3  N   UNL     1       2.088   8.126  18.877  0.00  0.00    +0.000 NA
ATOM      4  C   UNL     1       1.784   7.211  19.768  0.00  0.00    +0.000 A 
ATOM      5  N   UNL     1       2.377   5.999  19.442  0.00  0.00    +0.000 N 
ATOM      6  C   UNL     1       2.321   4.740  20.101  0.00  0.00    +0.000 A 
ATOM      7  C   UNL     1       1.225   4.357  20.867  0.00  0.00    +0.000 A 
ATOM      8  C   UNL     1       1.201   3.081  21.428  0.00  0.00    +0.000 A 
ATOM      9  C   UNL     1       2.262   2.214  21.210  0.00  0.00    +0.000 A 
ATOM     10  C   UNL     1       3.314   2.666  20.441  0.00  0.00    +0.000 A 
ATOM     11  N   UNL     1       3.365   3.903  19.898  0.00  0.00    +0.000 NA
ENDROOT
BRANCH   1  12
ATOM     12  C   UNL     1       3.697   5.253  17.348  0.00  0.00    +0.000 C 
BRANCH  12  20
ATOM     13  O   UNL     1       5.170   6.992  15.775  0.00  0.00    +0.000 OA
ATOM     14  C   UNL     1       5.784   6.173  16.462  0.00  0.00    +0.000 C 
ATOM     15  C   UNL     1       7.296   6.146  16.413  0.00  0.00    +0.000 C 
ATOM     16  C   UNL     1       7.903   6.920  17.573  0.00  0.00    +0.000 C 
ATOM     17  C   UNL     1       7.941   6.123  18.873  0.00  0.00    +0.000 C 
ATOM     18  C   UNL     1       6.577   5.635  19.365  0.00  0.00    +0.000 C 
ATOM     19  C   UNL     1       5.894   4.635  18.424  0.00  0.00    +0.000 C 
ATOM     20  N   UNL     1       5.165   5.283  17.333  0.00  0.00    +0.000 N 
ENDBRANCH  12  20
ENDBRANCH   1  12
BRANCH   4  21
ATOM     21  S   UNL     1       0.967   7.582  21.256  0.00  0.00    +0.000 S 
BRANCH  21  22
ATOM     22  C   UNL     1       1.457   9.312  21.516  0.00  0.00    +0.000 C 
BRANCH  22  23
ATOM     23  C   UNL     1       0.314  10.275  21.705  0.00  0.00    +0.000 A 
ATOM     24  N   UNL     1      -0.089  11.191  20.844  0.00  0.00    +0.000 NA
ATOM     25  C   UNL     1      -1.184  11.877  21.351  0.00  0.00    +0.000 A 
ATOM     26  C   UNL     1      -1.863  12.939  20.718  0.00  0.00    +0.000 A 
ATOM     27  C   UNL     1      -2.950  13.550  21.353  0.00  0.00    +0.000 A 
ATOM     28  C   UNL     1      -3.377  13.109  22.602  0.00  0.00    +0.000 A 
ATOM     29  C   UNL     1      -2.726  12.051  23.246  0.00  0.00    +0.000 A 
ATOM     30  C   UNL     1      -1.628  11.453  22.604  0.00  0.00    +0.000 A 
ATOM     31  S   UNL     1      -0.628  10.163  23.144  0.00  0.00    +0.000 S 
ENDBRANCH  22  23
ENDBRANCH  21  22
ENDBRANCH   4  21
TORSDOF 5
ENDMDL
MODEL 7
REMARK VINA RESULT:      -7.8      3.204      8.548
REMARK  Name = 
REMARK  5 active torsions:
REMARK  status: ('A' for Active; 'I' for Inactive)
REMARK    1  A    between atoms: N_8  and  C_9
REMARK    2  A    between atoms: C_9  and  C_10
REMARK    3  A    between atoms: C_13  and  S_14
REMARK    4  A    between atoms: S_14  and  C_15
REMARK    5  A    between atoms: C_15  and  C_16
REMARK                            x       y       z     vdW  Elec       q    Type
REMARK                         _______ _______ _______ _____ _____    ______ ____
ROOT
ATOM      1  C   UNL     1       4.561   5.417  16.917  0.00  0.00    +0.000 A 
ATOM      2  N   UNL     1       4.873   6.677  16.664  0.00  0.00    +0.000 NA
ATOM      3  N   UNL     1       4.024   7.487  17.367  0.00  0.00    +0.000 NA
ATOM      4  C   UNL     1       3.206   6.719  18.049  0.00  0.00    +0.000 A 
ATOM      5  N   UNL     1       3.488   5.380  17.814  0.00  0.00    +0.000 N 
ATOM      6  C   UNL     1       2.864   4.205  18.319  0.00  0.00    +0.000 A 
ATOM      7  C   UNL     1       1.525   4.184  18.692  0.00  0.00    +0.000 A 
ATOM      8  C   UNL     1       0.956   2.982  19.113  0.00  0.00    +0.000 A 
ATOM      9  C   UNL     1       1.730   1.831  19.147  0.00  0.00    +0.000 A 
ATOM     10  C   UNL     1       3.051   1.932  18.765  0.00  0.00    +0.000 A 
ATOM     11  N   UNL     1       3.627   3.087  18.366  0.00  0.00    +0.000 NA
ENDROOT
BRANCH   1  12
ATOM     12  C   UNL     1       5.107   4.242  16.151  0.00  0.00    +0.000 C 
BRANCH  12  20
ATOM     13  O   UNL     1       7.816   4.660  15.753  0.00  0.00    +0.000 OA
ATOM     14  C   UNL     1       7.059   4.823  14.793  0.00  0.00    +0.000 C 
ATOM     15  C   UNL     1       7.630   5.247  13.458  0.00  0.00    +0.000 C 
ATOM     16  C   UNL     1       7.831   4.053  12.537  0.00  0.00    +0.000 C 
ATOM     17  C   UNL     1       6.550   3.610  11.837  0.00  0.00    +0.000 C 
ATOM     18  C   UNL     1       5.408   3.224  12.778  0.00  0.00    +0.000 C 
ATOM     19  C   UNL     1       4.890   4.380  13.642  0.00  0.00    +0.000 C 
ATOM     20  N   UNL     1       5.688   4.594  14.849  0.00  0.00    +0.000 N 
ENDBRANCH  12  20
ENDBRANCH   1  12
BRANCH   4  21
ATOM     21  S   UNL     1       2.118   7.338  19.254  0.00  0.00    +0.000 S 
BRANCH  21  22
ATOM     22  C   UNL     1       2.080   9.106  18.834  0.00  0.00    +0.000 C 
BRANCH  22  23
ATOM     23  C   UNL     1       0.708   9.666  18.566  0.00  0.00    +0.000 A 
ATOM     24  N   UNL     1      -0.085   9.349  17.559  0.00  0.00    +0.000 NA
ATOM     25  C   UNL     1      -1.280  10.050  17.650  0.00  0.00    +0.000 A 
ATOM     26  C   UNL     1      -2.352   9.983  16.737  0.00  0.00    +0.000 A 
ATOM     27  C   UNL     1      -3.498  10.758  16.947  0.00  0.00    +0.000 A 
ATOM     28  C   UNL     1      -3.594  11.588  18.060  0.00  0.00    +0.000 A 
ATOM     29  C   UNL     1      -2.548  11.665  18.986  0.00  0.00    +0.000 A 
ATOM     30  C   UNL     1      -1.397  10.891  18.758  0.00  0.00    +0.000 A 
ATOM     31  S   UNL     1       0.042  10.786  19.693  0.00  0.00    +0.000 S 
ENDBRANCH  22  23
ENDBRANCH  21  22
ENDBRANCH   4  21
TORSDOF 5
ENDMDL
MODEL 8
REMARK VINA RESULT:      -7.6      3.921      6.531
REMARK  Name = 
REMARK  5 active torsions:
REMARK  status: ('A' for Active; 'I' for Inactive)
REMARK    1  A    between atoms: N_8  and  C_9
REMARK    2  A    between atoms: C_9  and  C_10
REMARK    3  A    between atoms: C_13  and  S_14
REMARK    4  A    between atoms: S_14  and  C_15
REMARK    5  A    between atoms: C_15  and  C_16
REMARK                            x       y       z     vdW  Elec       q    Type
REMARK                         _______ _______ _______ _____ _____    ______ ____
ROOT
ATOM      1  C   UNL     1      -0.715  11.984  20.462  0.00  0.00    +0.000 A 
ATOM      2  N   UNL     1       0.397  11.987  21.179  0.00  0.00    +0.000 NA
ATOM      3  N   UNL     1       1.319  11.190  20.556  0.00  0.00    +0.000 NA
ATOM      4  C   UNL     1       0.769  10.713  19.463  0.00  0.00    +0.000 A 
ATOM      5  N   UNL     1      -0.533  11.178  19.333  0.00  0.00    +0.000 N 
ATOM      6  C   UNL     1      -1.505  10.921  18.326  0.00  0.00    +0.000 A 
ATOM      7  C   UNL     1      -1.520   9.735  17.601  0.00  0.00    +0.000 A 
ATOM      8  C   UNL     1      -2.542   9.515  16.678  0.00  0.00    +0.000 A 
ATOM      9  C   UNL     1      -3.527  10.477  16.503  0.00  0.00    +0.000 A 
ATOM     10  C   UNL     1      -3.444  11.629  17.257  0.00  0.00    +0.000 A 
ATOM     11  N   UNL     1      -2.456  11.869  18.147  0.00  0.00    +0.000 NA
ENDROOT
BRANCH   1  12
ATOM     12  C   UNL     1      -2.028  12.546  20.938  0.00  0.00    +0.000 C 
BRANCH  12  20
ATOM     13  O   UNL     1      -1.652  15.144  21.819  0.00  0.00    +0.000 OA
ATOM     14  C   UNL     1      -1.789  14.260  22.668  0.00  0.00    +0.000 C 
ATOM     15  C   UNL     1      -1.737  14.623  24.136  0.00  0.00    +0.000 C 
ATOM     16  C   UNL     1      -3.134  14.788  24.715  0.00  0.00    +0.000 C 
ATOM     17  C   UNL     1      -3.796  13.462  25.076  0.00  0.00    +0.000 C 
ATOM     18  C   UNL     1      -3.940  12.480  23.912  0.00  0.00    +0.000 C 
ATOM     19  C   UNL     1      -2.606  11.998  23.331  0.00  0.00    +0.000 C 
ATOM     20  N   UNL     1      -2.036  12.928  22.356  0.00  0.00    +0.000 N 
ENDBRANCH  12  20
ENDBRANCH   1  12
BRANCH   4  21
ATOM     21  S   UNL     1       1.669   9.842  18.260  0.00  0.00    +0.000 S 
BRANCH  21  22
ATOM     22  C   UNL     1       1.846   8.214  19.047  0.00  0.00    +0.000 C 
BRANCH  22  23
ATOM     23  C   UNL     1       2.730   7.244  18.308  0.00  0.00    +0.000 A 
ATOM     24  N   UNL     1       3.673   7.550  17.438  0.00  0.00    +0.000 NA
ATOM     25  C   UNL     1       4.294   6.396  16.978  0.00  0.00    +0.000 A 
ATOM     26  C   UNL     1       5.330   6.336  16.022  0.00  0.00    +0.000 A 
ATOM     27  C   UNL     1       5.857   5.098  15.640  0.00  0.00    +0.000 A 
ATOM     28  C   UNL     1       5.375   3.921  16.206  0.00  0.00    +0.000 A 
ATOM     29  C   UNL     1       4.355   3.954  17.163  0.00  0.00    +0.000 A 
ATOM     30  C   UNL     1       3.825   5.203  17.530  0.00  0.00    +0.000 A 
ATOM     31  S   UNL     1       2.570   5.562  18.650  0.00  0.00    +0.000 S 
ENDBRANCH  22  23
ENDBRANCH  21  22
ENDBRANCH   4  21
TORSDOF 5
ENDMDL
MODEL 9
REMARK VINA RESULT:      -7.6      4.727      7.494
REMARK  Name = 
REMARK  5 active torsions:
REMARK  status: ('A' for Active; 'I' for Inactive)
REMARK    1  A    between atoms: N_8  and  C_9
REMARK    2  A    between atoms: C_9  and  C_10
REMARK    3  A    between atoms: C_13  and  S_14
REMARK    4  A    between atoms: S_14  and  C_15
REMARK    5  A    between atoms: C_15  and  C_16
REMARK                            x       y       z     vdW  Elec       q    Type
REMARK                         _______ _______ _______ _____ _____    ______ ____
ROOT
ATOM      1  C   UNL     1       5.633   4.520  18.434  0.00  0.00    +0.000 A 
ATOM      2  N   UNL     1       5.867   5.074  19.612  0.00  0.00    +0.000 NA
ATOM      3  N   UNL     1       6.687   6.155  19.430  0.00  0.00    +0.000 NA
ATOM      4  C   UNL     1       6.941   6.257  18.146  0.00  0.00    +0.000 A 
ATOM      5  N   UNL     1       6.301   5.246  17.442  0.00  0.00    +0.000 N 
ATOM      6  C   UNL     1       6.297   4.955  16.050  0.00  0.00    +0.000 A 
ATOM      7  C   UNL     1       7.366   5.284  15.224  0.00  0.00    +0.000 A 
ATOM      8  C   UNL     1       7.329   4.908  13.882  0.00  0.00    +0.000 A 
ATOM      9  C   UNL     1       6.235   4.207  13.395  0.00  0.00    +0.000 A 
ATOM     10  C   UNL     1       5.212   3.919  14.274  0.00  0.00    +0.000 A 
ATOM     11  N   UNL     1       5.220   4.285  15.575  0.00  0.00    +0.000 NA
ENDROOT
BRANCH   1  12
ATOM     12  C   UNL     1       4.976   3.179  18.249  0.00  0.00    +0.000 C 
BRANCH  12  20
ATOM     13  O   UNL     1       4.685   2.055  20.763  0.00  0.00    +0.000 OA
ATOM     14  C   UNL     1       3.666   2.420  20.172  0.00  0.00    +0.000 C 
ATOM     15  C   UNL     1       2.317   2.236  20.830  0.00  0.00    +0.000 C 
ATOM     16  C   UNL     1       1.853   3.513  21.513  0.00  0.00    +0.000 C 
ATOM     17  C   UNL     1       1.233   4.519  20.548  0.00  0.00    +0.000 C 
ATOM     18  C   UNL     1       2.152   4.964  19.409  0.00  0.00    +0.000 C 
ATOM     19  C   UNL     1       2.549   3.837  18.448  0.00  0.00    +0.000 C 
ATOM     20  N   UNL     1       3.682   3.046  18.930  0.00  0.00    +0.000 N 
ENDBRANCH  12  20
ENDBRANCH   1  12
BRANCH   4  21
ATOM     21  S   UNL     1       7.755   7.628  17.455  0.00  0.00    +0.000 S 
BRANCH  21  22
ATOM     22  C   UNL     1       8.678   8.261  18.886  0.00  0.00    +0.000 C 
BRANCH  22  23
ATOM     23  C   UNL     1       8.906   9.750  18.888  0.00  0.00    +0.000 A 
ATOM     24  N   UNL     1       8.719  10.572  17.872  0.00  0.00    +0.000 NA
ATOM     25  C   UNL     1       9.010  11.876  18.250  0.00  0.00    +0.000 A 
ATOM     26  C   UNL     1       8.948  13.014  17.419  0.00  0.00    +0.000 A 
ATOM     27  C   UNL     1       9.283  14.272  17.932  0.00  0.00    +0.000 A 
ATOM     28  C   UNL     1       9.666  14.413  19.263  0.00  0.00    +0.000 A 
ATOM     29  C   UNL     1       9.726  13.301  20.109  0.00  0.00    +0.000 A 
ATOM     30  C   UNL     1       9.400  12.041  19.580  0.00  0.00    +0.000 A 
ATOM     31  S   UNL     1       9.397  10.506  20.356  0.00  0.00    +0.000 S 
ENDBRANCH  22  23
ENDBRANCH  21  22
ENDBRANCH   4  21
TORSDOF 5
ENDMDL
