MODEL 1
REMARK VINA RESULT:      -7.7      0.000      0.000
REMARK  Name = 
REMARK  4 active torsions:
REMARK  status: ('A' for Active; 'I' for Inactive)
REMARK    1  A    between atoms: C_1  and  N_2
REMARK    2  A    between atoms: C_3  and  C_4
REMARK    3  A    between atoms: C_7  and  C_8
REMARK    4  A    between atoms: N_9  and  N_10
REMARK                            x       y       z     vdW  Elec       q    Type
REMARK                         _______ _______ _______ _____ _____    ______ ____
ROOT
ATOM      1  C   UNL     1       2.384   7.846  18.600  0.00  0.00    +0.000 A 
ATOM      2  C   UNL     1       2.067   7.693  19.954  0.00  0.00    +0.000 A 
ATOM      3  C   UNL     1       1.145   8.545  20.565  0.00  0.00    +0.000 A 
ATOM      4  C   UNL     1       0.540   9.565  19.829  0.00  0.00    +0.000 A 
ATOM      5  C   UNL     1       0.880   9.751  18.485  0.00  0.00    +0.000 A 
ATOM      6  C   UNL     1       1.807   8.901  17.875  0.00  0.00    +0.000 A 
ENDROOT
BRANCH   1   9
ATOM      7  C   UNL     1       1.982   4.690  17.894  0.00  0.00    +0.000 C 
ATOM      8  N   UNL     1       3.169   5.511  17.675  0.00  0.00    +0.000 N 
ATOM      9  C   UNL     1       3.324   6.893  17.928  0.00  0.00    +0.000 A 
ATOM     10  C   UNL     1       4.560   7.218  17.393  0.00  0.00    +0.000 A 
ATOM     11  N   UNL     1       5.134   6.064  16.907  0.00  0.00    +0.000 N 
ATOM     12  C   UNL     1       6.381   5.911  16.333  0.00  0.00    +0.000 A 
ATOM     13  C   UNL     1       6.716   4.685  15.894  0.00  0.00    +0.000 A 
ATOM     14  C   UNL     1       5.819   3.538  15.996  0.00  0.00    +0.000 A 
ATOM     15  C   UNL     1       4.613   3.681  16.572  0.00  0.00    +0.000 A 
ATOM     16  C   UNL     1       4.268   5.049  17.063  0.00  0.00    +0.000 A 
ENDBRANCH   1   9
BRANCH   4  17
ATOM     17  C   UNL     1      -0.473  10.444  20.453  0.00  0.00    +0.000 C 
ATOM     18  N   UNL     1      -0.956  11.464  19.815  0.00  0.00    +0.000 NA
BRANCH  18  19
ATOM     19  N   UNL     1      -1.880  12.202  20.503  0.00  0.00    +0.000 N 
ATOM     20  C   UNL     1      -3.112  12.521  19.986  0.00  0.00    +0.000 C 
ATOM     21  N   UNL     1      -3.455  12.183  18.784  0.00  0.00    +0.000 NA
ATOM     22  N   UNL     1      -3.938  13.164  20.866  0.00  0.00    +0.000 N 
ATOM     23  C   UNL     1      -5.397  13.074  20.701  0.00  0.00    +0.000 C 
ATOM     24  C   UNL     1      -6.083  13.942  21.765  0.00  0.00    +0.000 C 
ATOM     25  S   UNL     1      -4.774  14.804  22.668  0.00  0.00    +0.000 S 
ATOM     26  C   UNL     1      -3.567  14.475  21.374  0.00  0.00    +0.000 C 
ATOM     27  H   UNL     1      -1.913  12.116  21.516  0.00  0.00    +0.000 HD
ATOM     28  H   UNL     1      -2.616  11.705  18.431  0.00  0.00    +0.000 HD
ENDBRANCH  18  19
ENDBRANCH   4  17
TORSDOF 3
ENDMDL
MODEL 2
REMARK VINA RESULT:      -7.7      0.495      1.070
REMARK  Name = 
REMARK  4 active torsions:
REMARK  status: ('A' for Active; 'I' for Inactive)
REMARK    1  A    between atoms: C_1  and  N_2
REMARK    2  A    between atoms: C_3  and  C_4
REMARK    3  A    between atoms: C_7  and  C_8
REMARK    4  A    between atoms: N_9  and  N_10
REMARK                            x       y       z     vdW  Elec       q    Type
REMARK                         _______ _______ _______ _____ _____    ______ ____
ROOT
ATOM      1  C   UNL     1       2.389   7.707  18.638  0.00  0.00    +0.000 A 
ATOM      2  C   UNL     1       1.810   8.785  17.962  0.00  0.00    +0.000 A 
ATOM      3  C   UNL     1       0.967   9.672  18.636  0.00  0.00    +0.000 A 
ATOM      4  C   UNL     1       0.686   9.479  19.989  0.00  0.00    +0.000 A 
ATOM      5  C   UNL     1       1.228   8.380  20.664  0.00  0.00    +0.000 A 
ATOM      6  C   UNL     1       2.069   7.491  19.989  0.00  0.00    +0.000 A 
ENDROOT
BRANCH   1   9
ATOM      7  C   UNL     1       2.029   4.576  17.810  0.00  0.00    +0.000 C 
ATOM      8  N   UNL     1       3.207   5.419  17.628  0.00  0.00    +0.000 N 
ATOM      9  C   UNL     1       3.344   6.792  17.934  0.00  0.00    +0.000 A 
ATOM     10  C   UNL     1       4.577   7.152  17.416  0.00  0.00    +0.000 A 
ATOM     11  N   UNL     1       5.167   6.025  16.889  0.00  0.00    +0.000 N 
ATOM     12  C   UNL     1       6.418   5.909  16.315  0.00  0.00    +0.000 A 
ATOM     13  C   UNL     1       6.770   4.705  15.830  0.00  0.00    +0.000 A 
ATOM     14  C   UNL     1       5.887   3.544  15.886  0.00  0.00    +0.000 A 
ATOM     15  C   UNL     1       4.677   3.651  16.461  0.00  0.00    +0.000 A 
ATOM     16  C   UNL     1       4.313   4.995  17.003  0.00  0.00    +0.000 A 
ENDBRANCH   1   9
BRANCH   4  17
ATOM     17  C   UNL     1      -0.168  10.437  20.725  0.00  0.00    +0.000 C 
ATOM     18  N   UNL     1      -1.044  11.163  20.107  0.00  0.00    +0.000 NA
BRANCH  18  19
ATOM     19  N   UNL     1      -1.766  12.014  20.898  0.00  0.00    +0.000 N 
ATOM     20  C   UNL     1      -2.894  12.664  20.458  0.00  0.00    +0.000 C 
ATOM     21  N   UNL     1      -3.314  12.549  19.239  0.00  0.00    +0.000 NA
ATOM     22  N   UNL     1      -3.540  13.379  21.428  0.00  0.00    +0.000 N 
ATOM     23  C   UNL     1      -4.982  13.648  21.301  0.00  0.00    +0.000 C 
ATOM     24  C   UNL     1      -5.438  14.527  22.473  0.00  0.00    +0.000 C 
ATOM     25  S   UNL     1      -3.958  14.959  23.419  0.00  0.00    +0.000 S 
ATOM     26  C   UNL     1      -2.870  14.505  22.058  0.00  0.00    +0.000 C 
ATOM     27  H   UNL     1      -1.811  11.827  21.896  0.00  0.00    +0.000 HD
ATOM     28  H   UNL     1      -2.612  11.932  18.810  0.00  0.00    +0.000 HD
ENDBRANCH  18  19
ENDBRANCH   4  17
TORSDOF 3
ENDMDL
MODEL 3
REMARK VINA RESULT:      -7.5      2.066      2.430
REMARK  Name = 
REMARK  4 active torsions:
REMARK  status: ('A' for Active; 'I' for Inactive)
REMARK    1  A    between atoms: C_1  and  N_2
REMARK    2  A    between atoms: C_3  and  C_4
REMARK    3  A    between atoms: C_7  and  C_8
REMARK    4  A    between atoms: N_9  and  N_10
REMARK                            x       y       z     vdW  Elec       q    Type
REMARK                         _______ _______ _______ _____ _____    ______ ____
ROOT
ATOM      1  C   UNL     1       2.280   7.932  18.640  0.00  0.00    +0.000 A 
ATOM      2  C   UNL     1       1.721   8.985  17.909  0.00  0.00    +0.000 A 
ATOM      3  C   UNL     1       0.903   9.927  18.538  0.00  0.00    +0.000 A 
ATOM      4  C   UNL     1       0.628   9.815  19.901  0.00  0.00    +0.000 A 
ATOM      5  C   UNL     1       1.150   8.743  20.633  0.00  0.00    +0.000 A 
ATOM      6  C   UNL     1       1.966   7.798  20.002  0.00  0.00    +0.000 A 
ENDROOT
BRANCH   1   9
ATOM      7  C   UNL     1       1.902   4.738  18.117  0.00  0.00    +0.000 C 
ATOM      8  N   UNL     1       3.067   5.563  17.807  0.00  0.00    +0.000 N 
ATOM      9  C   UNL     1       3.209   6.959  17.981  0.00  0.00    +0.000 A 
ATOM     10  C   UNL     1       4.417   7.272  17.380  0.00  0.00    +0.000 A 
ATOM     11  N   UNL     1       4.989   6.102  16.932  0.00  0.00    +0.000 N 
ATOM     12  C   UNL     1       6.215   5.937  16.317  0.00  0.00    +0.000 A 
ATOM     13  C   UNL     1       6.552   4.694  15.929  0.00  0.00    +0.000 A 
ATOM     14  C   UNL     1       5.679   3.542  16.128  0.00  0.00    +0.000 A 
ATOM     15  C   UNL     1       4.495   3.698  16.744  0.00  0.00    +0.000 A 
ATOM     16  C   UNL     1       4.147   5.085  17.176  0.00  0.00    +0.000 A 
ENDBRANCH   1   9
BRANCH   4  17
ATOM     17  C   UNL     1      -0.198  10.831  20.589  0.00  0.00    +0.000 C 
ATOM     18  N   UNL     1       0.143  11.296  21.749  0.00  0.00    +0.000 NA
BRANCH  18  19
ATOM     19  N   UNL     1      -0.709  12.225  22.282  0.00  0.00    +0.000 N 
ATOM     20  C   UNL     1      -0.380  13.554  22.401  0.00  0.00    +0.000 C 
ATOM     21  N   UNL     1       0.786  14.001  22.061  0.00  0.00    +0.000 NA
ATOM     22  N   UNL     1      -1.403  14.344  22.849  0.00  0.00    +0.000 N 
ATOM     23  C   UNL     1      -1.425  15.776  22.511  0.00  0.00    +0.000 C 
ATOM     24  C   UNL     1      -2.625  16.441  23.197  0.00  0.00    +0.000 C 
ATOM     25  S   UNL     1      -3.405  15.182  24.236  0.00  0.00    +0.000 S 
ATOM     26  C   UNL     1      -1.944  14.131  24.182  0.00  0.00    +0.000 C 
ATOM     27  H   UNL     1      -1.709  12.101  22.148  0.00  0.00    +0.000 HD
ATOM     28  H   UNL     1       1.278  13.152  21.754  0.00  0.00    +0.000 HD
ENDBRANCH  18  19
ENDBRANCH   4  17
TORSDOF 3
ENDMDL
MODEL 4
REMARK VINA RESULT:      -7.5      1.531      1.841
REMARK  Name = 
REMARK  4 active torsions:
REMARK  status: ('A' for Active; 'I' for Inactive)
REMARK    1  A    between atoms: C_1  and  N_2
REMARK    2  A    between atoms: C_3  and  C_4
REMARK    3  A    between atoms: C_7  and  C_8
REMARK    4  A    between atoms: N_9  and  N_10
REMARK                            x       y       z     vdW  Elec       q    Type
REMARK                         _______ _______ _______ _____ _____    ______ ____
ROOT
ATOM      1  C   UNL     1       2.521   7.628  18.739  0.00  0.00    +0.000 A 
ATOM      2  C   UNL     1       2.198   7.335  20.068  0.00  0.00    +0.000 A 
ATOM      3  C   UNL     1       1.282   8.127  20.765  0.00  0.00    +0.000 A 
ATOM      4  C   UNL     1       0.690   9.226  20.140  0.00  0.00    +0.000 A 
ATOM      5  C   UNL     1       1.037   9.551  18.825  0.00  0.00    +0.000 A 
ATOM      6  C   UNL     1       1.957   8.761  18.129  0.00  0.00    +0.000 A 
ENDROOT
BRANCH   1   9
ATOM      7  C   UNL     1       2.146   4.524  17.822  0.00  0.00    +0.000 C 
ATOM      8  N   UNL     1       3.312   5.380  17.625  0.00  0.00    +0.000 N 
ATOM      9  C   UNL     1       3.454   6.743  17.971  0.00  0.00    +0.000 A 
ATOM     10  C   UNL     1       4.666   7.127  17.422  0.00  0.00    +0.000 A 
ATOM     11  N   UNL     1       5.241   6.021  16.838  0.00  0.00    +0.000 N 
ATOM     12  C   UNL     1       6.472   5.931  16.215  0.00  0.00    +0.000 A 
ATOM     13  C   UNL     1       6.811   4.745  15.679  0.00  0.00    +0.000 A 
ATOM     14  C   UNL     1       5.937   3.579  15.728  0.00  0.00    +0.000 A 
ATOM     15  C   UNL     1       4.748   3.659  16.350  0.00  0.00    +0.000 A 
ATOM     16  C   UNL     1       4.397   4.982  16.948  0.00  0.00    +0.000 A 
ENDBRANCH   1   9
BRANCH   4  17
ATOM     17  C   UNL     1      -0.316  10.045  20.851  0.00  0.00    +0.000 C 
ATOM     18  N   UNL     1      -0.576  11.257  20.477  0.00  0.00    +0.000 NA
BRANCH  18  19
ATOM     19  N   UNL     1      -1.520  11.912  21.221  0.00  0.00    +0.000 N 
ATOM     20  C   UNL     1      -1.200  12.850  22.172  0.00  0.00    +0.000 C 
ATOM     21  N   UNL     1       0.030  13.133  22.462  0.00  0.00    +0.000 NA
ATOM     22  N   UNL     1      -2.282  13.476  22.725  0.00  0.00    +0.000 N 
ATOM     23  C   UNL     1      -2.136  14.824  23.297  0.00  0.00    +0.000 C 
ATOM     24  C   UNL     1      -3.470  15.260  23.916  0.00  0.00    +0.000 C 
ATOM     25  S   UNL     1      -4.599  13.853  23.786  0.00  0.00    +0.000 S 
ATOM     26  C   UNL     1      -3.245  12.703  23.494  0.00  0.00    +0.000 C 
ATOM     27  H   UNL     1      -2.422  12.108  20.794  0.00  0.00    +0.000 HD
ATOM     28  H   UNL     1       0.563  12.502  21.851  0.00  0.00    +0.000 HD
ENDBRANCH  18  19
ENDBRANCH   4  17
TORSDOF 3
ENDMDL
MODEL 5
REMARK VINA RESULT:      -7.3      1.314      1.626
REMARK  Name = 
REMARK  4 active torsions:
REMARK  status: ('A' for Active; 'I' for Inactive)
REMARK    1  A    between atoms: C_1  and  N_2
REMARK    2  A    between atoms: C_3  and  C_4
REMARK    3  A    between atoms: C_7  and  C_8
REMARK    4  A    between atoms: N_9  and  N_10
REMARK                            x       y       z     vdW  Elec       q    Type
REMARK                         _______ _______ _______ _____ _____    ______ ____
ROOT
ATOM      1  C   UNL     1       2.364   7.936  18.391  0.00  0.00    +0.000 A 
ATOM      2  C   UNL     1       2.015   7.924  19.745  0.00  0.00    +0.000 A 
ATOM      3  C   UNL     1       1.068   8.825  20.239  0.00  0.00    +0.000 A 
ATOM      4  C   UNL     1       0.471   9.752  19.384  0.00  0.00    +0.000 A 
ATOM      5  C   UNL     1       0.843   9.799  18.036  0.00  0.00    +0.000 A 
ATOM      6  C   UNL     1       1.794   8.900  17.543  0.00  0.00    +0.000 A 
ENDROOT
BRANCH   1   9
ATOM      7  C   UNL     1       1.975   4.736  17.915  0.00  0.00    +0.000 C 
ATOM      8  N   UNL     1       3.178   5.533  17.696  0.00  0.00    +0.000 N 
ATOM      9  C   UNL     1       3.331   6.930  17.847  0.00  0.00    +0.000 A 
ATOM     10  C   UNL     1       4.596   7.206  17.355  0.00  0.00    +0.000 A 
ATOM     11  N   UNL     1       5.185   6.015  16.993  0.00  0.00    +0.000 N 
ATOM     12  C   UNL     1       6.460   5.812  16.500  0.00  0.00    +0.000 A 
ATOM     13  C   UNL     1       6.807   4.554  16.178  0.00  0.00    +0.000 A 
ATOM     14  C   UNL     1       5.898   3.423  16.322  0.00  0.00    +0.000 A 
ATOM     15  C   UNL     1       4.664   3.616  16.819  0.00  0.00    +0.000 A 
ATOM     16  C   UNL     1       4.304   5.020  17.182  0.00  0.00    +0.000 A 
ENDBRANCH   1   9
BRANCH   4  17
ATOM     17  C   UNL     1      -0.567  10.680  19.885  0.00  0.00    +0.000 C 
ATOM     18  N   UNL     1      -0.359  11.410  20.934  0.00  0.00    +0.000 NA
BRANCH  18  19
ATOM     19  N   UNL     1      -1.399  12.221  21.301  0.00  0.00    +0.000 N 
ATOM     20  C   UNL     1      -2.027  12.121  22.518  0.00  0.00    +0.000 C 
ATOM     21  N   UNL     1      -1.705  11.209  23.379  0.00  0.00    +0.000 NA
ATOM     22  N   UNL     1      -2.964  13.092  22.745  0.00  0.00    +0.000 N 
ATOM     23  C   UNL     1      -3.304  13.474  24.124  0.00  0.00    +0.000 C 
ATOM     24  C   UNL     1      -4.427  14.519  24.099  0.00  0.00    +0.000 C 
ATOM     25  S   UNL     1      -4.930  14.713  22.372  0.00  0.00    +0.000 S 
ATOM     26  C   UNL     1      -4.142  13.167  21.895  0.00  0.00    +0.000 C 
ATOM     27  H   UNL     1      -1.416  13.175  20.951  0.00  0.00    +0.000 HD
ATOM     28  H   UNL     1      -0.967  10.684  22.893  0.00  0.00    +0.000 HD
ENDBRANCH  18  19
ENDBRANCH   4  17
TORSDOF 3
ENDMDL
MODEL 6
REMARK VINA RESULT:      -7.2      3.769     11.363
REMARK  Name = 
REMARK  4 active torsions:
REMARK  status: ('A' for Active; 'I' for Inactive)
REMARK    1  A    between atoms: C_1  and  N_2
REMARK    2  A    between atoms: C_3  and  C_4
REMARK    3  A    between atoms: C_7  and  C_8
REMARK    4  A    between atoms: N_9  and  N_10
REMARK                            x       y       z     vdW  Elec       q    Type
REMARK                         _______ _______ _______ _____ _____    ______ ____
ROOT
ATOM      1  C   UNL     1      -1.661  11.640  22.436  0.00  0.00    +0.000 A 
ATOM      2  C   UNL     1      -1.146  11.565  21.138  0.00  0.00    +0.000 A 
ATOM      3  C   UNL     1      -0.298  10.517  20.773  0.00  0.00    +0.000 A 
ATOM      4  C   UNL     1       0.050   9.541  21.708  0.00  0.00    +0.000 A 
ATOM      5  C   UNL     1      -0.428   9.629  23.019  0.00  0.00    +0.000 A 
ATOM      6  C   UNL     1      -1.273  10.681  23.386  0.00  0.00    +0.000 A 
ENDROOT
BRANCH   1   9
ATOM      7  C   UNL     1      -1.073  14.544  23.792  0.00  0.00    +0.000 C 
ATOM      8  N   UNL     1      -2.368  13.962  23.452  0.00  0.00    +0.000 N 
ATOM      9  C   UNL     1      -2.620  12.728  22.811  0.00  0.00    +0.000 A 
ATOM     10  C   UNL     1      -3.984  12.725  22.566  0.00  0.00    +0.000 A 
ATOM     11  N   UNL     1      -4.518  13.877  23.100  0.00  0.00    +0.000 N 
ATOM     12  C   UNL     1      -5.844  14.264  23.131  0.00  0.00    +0.000 A 
ATOM     13  C   UNL     1      -6.128  15.460  23.676  0.00  0.00    +0.000 A 
ATOM     14  C   UNL     1      -5.102  16.344  24.219  0.00  0.00    +0.000 A 
ATOM     15  C   UNL     1      -3.814  15.959  24.207  0.00  0.00    +0.000 A 
ATOM     16  C   UNL     1      -3.523  14.622  23.607  0.00  0.00    +0.000 A 
ENDBRANCH   1   9
BRANCH   4  17
ATOM     17  C   UNL     1       0.909   8.400  21.321  0.00  0.00    +0.000 C 
ATOM     18  N   UNL     1       1.560   8.404  20.201  0.00  0.00    +0.000 NA
BRANCH  18  19
ATOM     19  N   UNL     1       2.313   7.288  19.956  0.00  0.00    +0.000 N 
ATOM     20  C   UNL     1       2.895   7.035  18.737  0.00  0.00    +0.000 C 
ATOM     21  N   UNL     1       2.719   7.820  17.723  0.00  0.00    +0.000 NA
ATOM     22  N   UNL     1       3.703   5.932  18.722  0.00  0.00    +0.000 N 
ATOM     23  C   UNL     1       4.796   5.837  17.741  0.00  0.00    +0.000 C 
ATOM     24  C   UNL     1       5.492   4.478  17.887  0.00  0.00    +0.000 C 
ATOM     25  S   UNL     1       4.561   3.536  19.119  0.00  0.00    +0.000 S 
ATOM     26  C   UNL     1       3.130   4.618  18.969  0.00  0.00    +0.000 C 
ATOM     27  H   UNL     1       2.861   6.896  20.718  0.00  0.00    +0.000 HD
ATOM     28  H   UNL     1       2.089   8.541  18.095  0.00  0.00    +0.000 HD
ENDBRANCH  18  19
ENDBRANCH   4  17
TORSDOF 3
ENDMDL
MODEL 7
REMARK VINA RESULT:      -7.2      3.854     11.195
REMARK  Name = 
REMARK  4 active torsions:
REMARK  status: ('A' for Active; 'I' for Inactive)
REMARK    1  A    between atoms: C_1  and  N_2
REMARK    2  A    between atoms: C_3  and  C_4
REMARK    3  A    between atoms: C_7  and  C_8
REMARK    4  A    between atoms: N_9  and  N_10
REMARK                            x       y       z     vdW  Elec       q    Type
REMARK                         _______ _______ _______ _____ _____    ______ ____
ROOT
ATOM      1  C   UNL     1      -1.402  11.900  21.968  0.00  0.00    +0.000 A 
ATOM      2  C   UNL     1      -0.829  10.877  22.728  0.00  0.00    +0.000 A 
ATOM      3  C   UNL     1      -0.012   9.919  22.123  0.00  0.00    +0.000 A 
ATOM      4  C   UNL     1       0.229   9.971  20.750  0.00  0.00    +0.000 A 
ATOM      5  C   UNL     1      -0.372  10.968  19.974  0.00  0.00    +0.000 A 
ATOM      6  C   UNL     1      -1.194  11.924  20.579  0.00  0.00    +0.000 A 
ENDROOT
BRANCH   1   9
ATOM      7  C   UNL     1      -4.559  12.609  21.581  0.00  0.00    +0.000 C 
ATOM      8  N   UNL     1      -3.581  13.306  22.412  0.00  0.00    +0.000 N 
ATOM      9  C   UNL     1      -2.226  12.964  22.625  0.00  0.00    +0.000 A 
ATOM     10  C   UNL     1      -1.792  13.828  23.618  0.00  0.00    +0.000 A 
ATOM     11  N   UNL     1      -2.827  14.682  23.926  0.00  0.00    +0.000 N 
ATOM     12  C   UNL     1      -2.824  15.733  24.823  0.00  0.00    +0.000 A 
ATOM     13  C   UNL     1      -3.973  16.412  24.988  0.00  0.00    +0.000 A 
ATOM     14  C   UNL     1      -5.198  16.076  24.269  0.00  0.00    +0.000 A 
ATOM     15  C   UNL     1      -5.197  15.067  23.382  0.00  0.00    +0.000 A 
ATOM     16  C   UNL     1      -3.906  14.335  23.207  0.00  0.00    +0.000 A 
ENDBRANCH   1   9
BRANCH   4  17
ATOM     17  C   UNL     1       1.130   8.991  20.105  0.00  0.00    +0.000 C 
ATOM     18  N   UNL     1       1.550   7.947  20.746  0.00  0.00    +0.000 NA
BRANCH  18  19
ATOM     19  N   UNL     1       2.384   7.121  20.041  0.00  0.00    +0.000 N 
ATOM     20  C   UNL     1       2.237   5.755  20.023  0.00  0.00    +0.000 C 
ATOM     21  N   UNL     1       1.325   5.159  20.722  0.00  0.00    +0.000 NA
ATOM     22  N   UNL     1       3.093   5.114  19.172  0.00  0.00    +0.000 N 
ATOM     23  C   UNL     1       2.726   3.802  18.615  0.00  0.00    +0.000 C 
ATOM     24  C   UNL     1       3.884   3.271  17.760  0.00  0.00    +0.000 C 
ATOM     25  S   UNL     1       5.250   4.444  17.933  0.00  0.00    +0.000 S 
ATOM     26  C   UNL     1       4.527   5.178  19.409  0.00  0.00    +0.000 C 
ATOM     27  H   UNL     1       2.783   7.463  19.172  0.00  0.00    +0.000 HD
ATOM     28  H   UNL     1       0.864   5.936  21.212  0.00  0.00    +0.000 HD
ENDBRANCH  18  19
ENDBRANCH   4  17
TORSDOF 3
ENDMDL
MODEL 8
REMARK VINA RESULT:      -7.2      1.413      2.071
REMARK  Name = 
REMARK  4 active torsions:
REMARK  status: ('A' for Active; 'I' for Inactive)
REMARK    1  A    between atoms: C_1  and  N_2
REMARK    2  A    between atoms: C_3  and  C_4
REMARK    3  A    between atoms: C_7  and  C_8
REMARK    4  A    between atoms: N_9  and  N_10
REMARK                            x       y       z     vdW  Elec       q    Type
REMARK                         _______ _______ _______ _____ _____    ______ ____
ROOT
ATOM      1  C   UNL     1       2.222   7.963  18.458  0.00  0.00    +0.000 A 
ATOM      2  C   UNL     1       1.580   8.883  17.623  0.00  0.00    +0.000 A 
ATOM      3  C   UNL     1       0.696   9.825  18.155  0.00  0.00    +0.000 A 
ATOM      4  C   UNL     1       0.438   9.846  19.527  0.00  0.00    +0.000 A 
ATOM      5  C   UNL     1       1.044   8.904  20.365  0.00  0.00    +0.000 A 
ATOM      6  C   UNL     1       1.925   7.959  19.831  0.00  0.00    +0.000 A 
ENDROOT
BRANCH   1   9
ATOM      7  C   UNL     1       1.924   4.763  17.922  0.00  0.00    +0.000 C 
ATOM      8  N   UNL     1       3.105   5.597  17.721  0.00  0.00    +0.000 N 
ATOM      9  C   UNL     1       3.218   6.995  17.898  0.00  0.00    +0.000 A 
ATOM     10  C   UNL     1       4.475   7.315  17.414  0.00  0.00    +0.000 A 
ATOM     11  N   UNL     1       5.098   6.149  17.032  0.00  0.00    +0.000 N 
ATOM     12  C   UNL     1       6.379   5.991  16.539  0.00  0.00    +0.000 A 
ATOM     13  C   UNL     1       6.763   4.749  16.194  0.00  0.00    +0.000 A 
ATOM     14  C   UNL     1       5.885   3.590  16.315  0.00  0.00    +0.000 A 
ATOM     15  C   UNL     1       4.645   3.739  16.813  0.00  0.00    +0.000 A 
ATOM     16  C   UNL     1       4.246   5.125  17.201  0.00  0.00    +0.000 A 
ENDBRANCH   1   9
BRANCH   4  17
ATOM     17  C   UNL     1      -0.460  10.867  20.109  0.00  0.00    +0.000 C 
ATOM     18  N   UNL     1       0.017  11.898  20.732  0.00  0.00    +0.000 NA
BRANCH  18  19
ATOM     19  N   UNL     1      -0.917  12.766  21.231  0.00  0.00    +0.000 N 
ATOM     20  C   UNL     1      -1.408  12.675  22.511  0.00  0.00    +0.000 C 
ATOM     21  N   UNL     1      -1.053  11.721  23.311  0.00  0.00    +0.000 NA
ATOM     22  N   UNL     1      -2.243  13.699  22.862  0.00  0.00    +0.000 N 
ATOM     23  C   UNL     1      -2.397  14.066  24.279  0.00  0.00    +0.000 C 
ATOM     24  C   UNL     1      -3.441  15.184  24.403  0.00  0.00    +0.000 C 
ATOM     25  S   UNL     1      -4.122  15.457  22.750  0.00  0.00    +0.000 S 
ATOM     26  C   UNL     1      -3.502  13.875  22.155  0.00  0.00    +0.000 C 
ATOM     27  H   UNL     1      -0.907  13.728  20.904  0.00  0.00    +0.000 HD
ATOM     28  H   UNL     1      -0.414  11.161  22.733  0.00  0.00    +0.000 HD
ENDBRANCH  18  19
ENDBRANCH   4  17
TORSDOF 3
ENDMDL
MODEL 9
REMARK VINA RESULT:      -7.1      3.863     11.193
REMARK  Name = 
REMARK  4 active torsions:
REMARK  status: ('A' for Active; 'I' for Inactive)
REMARK    1  A    between atoms: C_1  and  N_2
REMARK    2  A    between atoms: C_3  and  C_4
REMARK    3  A    between atoms: C_7  and  C_8
REMARK    4  A    between atoms: N_9  and  N_10
REMARK                            x       y       z     vdW  Elec       q    Type
REMARK                         _______ _______ _______ _____ _____    ______ ____
ROOT
ATOM      1  C   UNL     1      -1.430  11.866  22.493  0.00  0.00    +0.000 A 
ATOM      2  C   UNL     1      -1.190  10.736  23.281  0.00  0.00    +0.000 A 
ATOM      3  C   UNL     1      -0.470   9.655  22.767  0.00  0.00    +0.000 A 
ATOM      4  C   UNL     1       0.007   9.692  21.456  0.00  0.00    +0.000 A 
ATOM      5  C   UNL     1      -0.263  10.801  20.647  0.00  0.00    +0.000 A 
ATOM      6  C   UNL     1      -0.987  11.881  21.160  0.00  0.00    +0.000 A 
ENDROOT
BRANCH   1   9
ATOM      7  C   UNL     1      -4.552  12.746  22.180  0.00  0.00    +0.000 C 
ATOM      8  N   UNL     1      -3.487  13.461  22.877  0.00  0.00    +0.000 N 
ATOM      9  C   UNL     1      -2.147  13.051  23.063  0.00  0.00    +0.000 A 
ATOM     10  C   UNL     1      -1.604  13.987  23.928  0.00  0.00    +0.000 A 
ATOM     11  N   UNL     1      -2.564  14.941  24.185  0.00  0.00    +0.000 N 
ATOM     12  C   UNL     1      -2.443  16.082  24.955  0.00  0.00    +0.000 A 
ATOM     13  C   UNL     1      -3.536  16.853  25.096  0.00  0.00    +0.000 A 
ATOM     14  C   UNL     1      -4.817  16.526  24.480  0.00  0.00    +0.000 A 
ATOM     15  C   UNL     1      -4.930  15.427  23.715  0.00  0.00    +0.000 A 
ATOM     16  C   UNL     1      -3.701  14.592  23.563  0.00  0.00    +0.000 A 
ENDBRANCH   1   9
BRANCH   4  17
ATOM     17  C   UNL     1       0.811   8.574  20.915  0.00  0.00    +0.000 C 
ATOM     18  N   UNL     1       1.475   8.702  19.811  0.00  0.00    +0.000 NA
BRANCH  18  19
ATOM     19  N   UNL     1       2.173   7.594  19.413  0.00  0.00    +0.000 N 
ATOM     20  C   UNL     1       2.762   7.490  18.176  0.00  0.00    +0.000 C 
ATOM     21  N   UNL     1       2.644   8.422  17.285  0.00  0.00    +0.000 NA
ATOM     22  N   UNL     1       3.511   6.358  18.008  0.00  0.00    +0.000 N 
ATOM     23  C   UNL     1       4.613   6.347  17.034  0.00  0.00    +0.000 C 
ATOM     24  C   UNL     1       5.235   4.946  16.987  0.00  0.00    +0.000 C 
ATOM     25  S   UNL     1       4.235   3.887  18.060  0.00  0.00    +0.000 S 
ATOM     26  C   UNL     1       2.866   5.055  18.056  0.00  0.00    +0.000 C 
ATOM     27  H   UNL     1       2.687   7.067  20.114  0.00  0.00    +0.000 HD
ATOM     28  H   UNL     1       2.046   9.114  17.753  0.00  0.00    +0.000 HD
ENDBRANCH  18  19
ENDBRANCH   4  17
TORSDOF 3
ENDMDL
