MODEL 1
REMARK VINA RESULT:      -7.9      0.000      0.000
REMARK  Name = 
REMARK  9 active torsions:
REMARK  status: ('A' for Active; 'I' for Inactive)
REMARK    1  A    between atoms: C_1  and  C_2
REMARK    2  A    between atoms: C_5  and  C_6
REMARK    3  A    between atoms: C_9  and  C_10
REMARK    4  A    between atoms: C_10  and  C_11
REMARK    5  A    between atoms: C_10  and  N_12
REMARK    6  A    between atoms: C_18  and  N_19
REMARK    7  A    between atoms: C_24  and  C_25
REMARK    8  A    between atoms: C_25  and  C_26
REMARK    9  A    between atoms: C_25  and  O_27
REMARK                            x       y       z     vdW  Elec       q    Type
REMARK                         _______ _______ _______ _____ _____    ______ ____
ROOT
ATOM      1  N   UNL     1       0.993  10.601  21.255  0.00  0.00    +0.000 N 
ATOM      2  C   UNL     1       0.172  11.706  21.078  0.00  0.00    +0.000 A 
ATOM      3  N   UNL     1       0.811  12.864  20.865  0.00  0.00    +0.000 NA
ATOM      4  C   UNL     1       0.045  13.952  20.641  0.00  0.00    +0.000 A 
ATOM      5  C   UNL     1      -1.319  13.907  20.579  0.00  0.00    +0.000 A 
ATOM      6  F   UNL     1      -2.046  15.018  20.398  0.00  0.00    +0.000 F 
ATOM      7  C   UNL     1      -1.890  12.679  20.834  0.00  0.00    +0.000 A 
ATOM      8  N   UNL     1      -1.165  11.576  21.131  0.00  0.00    +0.000 NA
ATOM      9  H   UNL     1       1.923  10.905  20.970  0.00  0.00    +0.000 HD
ENDROOT
BRANCH   7  10
ATOM     10  N   UNL     1      -3.287  12.600  20.858  0.00  0.00    +0.000 N 
ATOM     11  C   UNL     1      -4.012  12.744  22.014  0.00  0.00    +0.000 C 
ATOM     12  O   UNL     1      -3.589  12.856  23.150  0.00  0.00    +0.000 OA
ATOM     13  O   UNL     1      -5.345  12.800  21.704  0.00  0.00    +0.000 OA
ATOM     14  C   UNL     1      -5.490  12.459  20.321  0.00  0.00    +0.000 C 
ATOM     15  C   UNL     1      -4.118  12.673  19.694  0.00  0.00    +0.000 C 
BRANCH  15  16
ATOM     16  C   UNL     1      -3.782  11.587  18.645  0.00  0.00    +0.000 C 
ATOM     17  C   UNL     1      -5.006  10.967  17.987  0.00  0.00    +0.000 C 
BRANCH  16  18
ATOM     18  O   UNL     1      -2.952  12.091  17.596  0.00  0.00    +0.000 OA
ATOM     19  H   UNL     1      -2.085  12.343  17.962  0.00  0.00    +0.000 HD
ENDBRANCH  16  18
ENDBRANCH  15  16
ENDBRANCH   7  10
BRANCH   1  20
ATOM     20  C   UNL     1       0.545   9.383  20.573  0.00  0.00    +0.000 C 
ATOM     21  C   UNL     1       0.450   8.285  21.643  0.00  0.00    +0.000 C 
BRANCH  20  25
ATOM     22  C   UNL     1       2.663   7.897  18.079  0.00  0.00    +0.000 A 
ATOM     23  N   UNL     1       2.353   9.043  17.450  0.00  0.00    +0.000 NA
ATOM     24  O   UNL     1       1.531   9.712  18.357  0.00  0.00    +0.000 OA
ATOM     25  C   UNL     1       1.421   8.903  19.449  0.00  0.00    +0.000 A 
ATOM     26  N   UNL     1       2.105   7.786  19.336  0.00  0.00    +0.000 NA
BRANCH  22  31
ATOM     27  C   UNL     1       5.975   3.750  15.786  0.00  0.00    +0.000 C 
ATOM     28  C   UNL     1       5.129   4.835  16.378  0.00  0.00    +0.000 A 
ATOM     29  C   UNL     1       5.308   6.172  16.020  0.00  0.00    +0.000 A 
ATOM     30  C   UNL     1       4.498   7.165  16.581  0.00  0.00    +0.000 A 
ATOM     31  C   UNL     1       3.496   6.842  17.511  0.00  0.00    +0.000 A 
ATOM     32  C   UNL     1       3.322   5.501  17.871  0.00  0.00    +0.000 A 
ATOM     33  C   UNL     1       4.131   4.518  17.306  0.00  0.00    +0.000 A 
ATOM     34  F   UNL     1       3.943   3.240  17.664  0.00  0.00    +0.000 F 
ENDBRANCH  22  31
ENDBRANCH  20  25
ENDBRANCH   1  20
TORSDOF 6
ENDMDL
MODEL 2
REMARK VINA RESULT:      -7.9      1.326      1.547
REMARK  Name = 
REMARK  9 active torsions:
REMARK  status: ('A' for Active; 'I' for Inactive)
REMARK    1  A    between atoms: C_1  and  C_2
REMARK    2  A    between atoms: C_5  and  C_6
REMARK    3  A    between atoms: C_9  and  C_10
REMARK    4  A    between atoms: C_10  and  C_11
REMARK    5  A    between atoms: C_10  and  N_12
REMARK    6  A    between atoms: C_18  and  N_19
REMARK    7  A    between atoms: C_24  and  C_25
REMARK    8  A    between atoms: C_25  and  C_26
REMARK    9  A    between atoms: C_25  and  O_27
REMARK                            x       y       z     vdW  Elec       q    Type
REMARK                         _______ _______ _______ _____ _____    ______ ____
ROOT
ATOM      1  N   UNL     1       1.096  10.092  21.312  0.00  0.00    +0.000 N 
ATOM      2  C   UNL     1       0.471  11.143  20.655  0.00  0.00    +0.000 A 
ATOM      3  N   UNL     1       1.229  12.233  20.472  0.00  0.00    +0.000 NA
ATOM      4  C   UNL     1       0.672  13.258  19.794  0.00  0.00    +0.000 A 
ATOM      5  C   UNL     1      -0.586  13.208  19.263  0.00  0.00    +0.000 A 
ATOM      6  F   UNL     1      -1.121  14.264  18.635  0.00  0.00    +0.000 F 
ATOM      7  C   UNL     1      -1.301  12.059  19.523  0.00  0.00    +0.000 A 
ATOM      8  N   UNL     1      -0.808  11.033  20.256  0.00  0.00    +0.000 NA
ATOM      9  H   UNL     1       2.086  10.328  21.323  0.00  0.00    +0.000 HD
ENDROOT
BRANCH   7  10
ATOM     10  N   UNL     1      -2.622  11.992  19.066  0.00  0.00    +0.000 N 
ATOM     11  C   UNL     1      -3.671  12.524  19.772  0.00  0.00    +0.000 C 
ATOM     12  O   UNL     1      -3.647  13.019  20.883  0.00  0.00    +0.000 OA
ATOM     13  O   UNL     1      -4.803  12.471  19.001  0.00  0.00    +0.000 OA
ATOM     14  C   UNL     1      -4.512  11.676  17.847  0.00  0.00    +0.000 C 
ATOM     15  C   UNL     1      -2.994  11.662  17.723  0.00  0.00    +0.000 C 
BRANCH  15  16
ATOM     16  C   UNL     1      -2.460  10.281  17.273  0.00  0.00    +0.000 C 
ATOM     17  C   UNL     1      -2.958   9.846  15.903  0.00  0.00    +0.000 C 
BRANCH  16  18
ATOM     18  O   UNL     1      -1.031  10.246  17.231  0.00  0.00    +0.000 OA
ATOM     19  H   UNL     1      -0.677  10.418  18.121  0.00  0.00    +0.000 HD
ENDBRANCH  16  18
ENDBRANCH  15  16
ENDBRANCH   7  10
BRANCH   1  20
ATOM     20  C   UNL     1       0.821   8.765  20.754  0.00  0.00    +0.000 C 
ATOM     21  C   UNL     1       1.071   7.750  21.879  0.00  0.00    +0.000 C 
BRANCH  20  25
ATOM     22  C   UNL     1       2.835   7.503  18.059  0.00  0.00    +0.000 A 
ATOM     23  N   UNL     1       2.393   8.637  17.490  0.00  0.00    +0.000 NA
ATOM     24  O   UNL     1       1.599   9.221  18.478  0.00  0.00    +0.000 OA
ATOM     25  C   UNL     1       1.637   8.379  19.551  0.00  0.00    +0.000 A 
ATOM     26  N   UNL     1       2.389   7.320  19.351  0.00  0.00    +0.000 NA
BRANCH  22  31
ATOM     27  C   UNL     1       6.256   3.678  15.395  0.00  0.00    +0.000 C 
ATOM     28  C   UNL     1       5.381   4.680  16.085  0.00  0.00    +0.000 A 
ATOM     29  C   UNL     1       5.569   6.052  15.906  0.00  0.00    +0.000 A 
ATOM     30  C   UNL     1       4.732   6.966  16.556  0.00  0.00    +0.000 A 
ATOM     31  C   UNL     1       3.695   6.528  17.395  0.00  0.00    +0.000 A 
ATOM     32  C   UNL     1       3.513   5.153  17.576  0.00  0.00    +0.000 A 
ATOM     33  C   UNL     1       4.349   4.249  16.924  0.00  0.00    +0.000 A 
ATOM     34  F   UNL     1       4.152   2.936  17.110  0.00  0.00    +0.000 F 
ENDBRANCH  22  31
ENDBRANCH  20  25
ENDBRANCH   1  20
TORSDOF 6
ENDMDL
MODEL 3
REMARK VINA RESULT:      -7.7      1.412      2.602
REMARK  Name = 
REMARK  9 active torsions:
REMARK  status: ('A' for Active; 'I' for Inactive)
REMARK    1  A    between atoms: C_1  and  C_2
REMARK    2  A    between atoms: C_5  and  C_6
REMARK    3  A    between atoms: C_9  and  C_10
REMARK    4  A    between atoms: C_10  and  C_11
REMARK    5  A    between atoms: C_10  and  N_12
REMARK    6  A    between atoms: C_18  and  N_19
REMARK    7  A    between atoms: C_24  and  C_25
REMARK    8  A    between atoms: C_25  and  C_26
REMARK    9  A    between atoms: C_25  and  O_27
REMARK                            x       y       z     vdW  Elec       q    Type
REMARK                         _______ _______ _______ _____ _____    ______ ____
ROOT
ATOM      1  N   UNL     1       0.670  11.574  21.178  0.00  0.00    +0.000 N 
ATOM      2  C   UNL     1      -0.315  12.551  21.129  0.00  0.00    +0.000 A 
ATOM      3  N   UNL     1       0.064  13.718  20.590  0.00  0.00    +0.000 NA
ATOM      4  C   UNL     1      -0.879  14.677  20.481  0.00  0.00    +0.000 A 
ATOM      5  C   UNL     1      -2.182  14.489  20.848  0.00  0.00    +0.000 A 
ATOM      6  F   UNL     1      -3.080  15.480  20.765  0.00  0.00    +0.000 F 
ATOM      7  C   UNL     1      -2.475  13.267  21.415  0.00  0.00    +0.000 A 
ATOM      8  N   UNL     1      -1.546  12.301  21.607  0.00  0.00    +0.000 NA
ATOM      9  H   UNL     1       1.424  11.918  20.586  0.00  0.00    +0.000 HD
ENDROOT
BRANCH   7  10
ATOM     10  N   UNL     1      -3.779  13.057  21.876  0.00  0.00    +0.000 N 
ATOM     11  C   UNL     1      -4.771  12.555  21.073  0.00  0.00    +0.000 C 
ATOM     12  O   UNL     1      -4.716  12.320  19.880  0.00  0.00    +0.000 OA
ATOM     13  O   UNL     1      -5.876  12.289  21.837  0.00  0.00    +0.000 OA
ATOM     14  C   UNL     1      -5.657  12.847  23.137  0.00  0.00    +0.000 C 
ATOM     15  C   UNL     1      -4.151  13.036  23.259  0.00  0.00    +0.000 C 
BRANCH  15  16
ATOM     16  C   UNL     1      -3.787  14.346  23.999  0.00  0.00    +0.000 C 
ATOM     17  C   UNL     1      -4.800  15.465  23.802  0.00  0.00    +0.000 C 
BRANCH  16  18
ATOM     18  O   UNL     1      -3.651  14.147  25.408  0.00  0.00    +0.000 OA
ATOM     19  H   UNL     1      -2.836  14.580  25.718  0.00  0.00    +0.000 HD
ENDBRANCH  16  18
ENDBRANCH  15  16
ENDBRANCH   7  10
BRANCH   1  20
ATOM     20  C   UNL     1       0.220  10.226  20.821  0.00  0.00    +0.000 C 
ATOM     21  C   UNL     1       0.312   9.376  22.097  0.00  0.00    +0.000 C 
BRANCH  20  25
ATOM     22  C   UNL     1       2.088   8.302  18.430  0.00  0.00    +0.000 A 
ATOM     23  N   UNL     1       1.765   9.355  17.660  0.00  0.00    +0.000 NA
ATOM     24  O   UNL     1       1.037  10.184  18.515  0.00  0.00    +0.000 OA
ATOM     25  C   UNL     1       0.989   9.549  19.721  0.00  0.00    +0.000 A 
ATOM     26  N   UNL     1       1.627   8.400  19.726  0.00  0.00    +0.000 NA
BRANCH  22  31
ATOM     27  C   UNL     1       5.098   3.734  16.559  0.00  0.00    +0.000 C 
ATOM     28  C   UNL     1       4.331   4.925  17.045  0.00  0.00    +0.000 A 
ATOM     29  C   UNL     1       4.816   6.222  16.866  0.00  0.00    +0.000 A 
ATOM     30  C   UNL     1       4.076   7.319  17.322  0.00  0.00    +0.000 A 
ATOM     31  C   UNL     1       2.840   7.141  17.965  0.00  0.00    +0.000 A 
ATOM     32  C   UNL     1       2.360   5.839  18.147  0.00  0.00    +0.000 A 
ATOM     33  C   UNL     1       3.101   4.753  17.688  0.00  0.00    +0.000 A 
ATOM     34  F   UNL     1       2.618   3.516  17.871  0.00  0.00    +0.000 F 
ENDBRANCH  22  31
ENDBRANCH  20  25
ENDBRANCH   1  20
TORSDOF 6
ENDMDL
MODEL 4
REMARK VINA RESULT:      -7.7      5.401      8.842
REMARK  Name = 
REMARK  9 active torsions:
REMARK  status: ('A' for Active; 'I' for Inactive)
REMARK    1  A    between atoms: C_1  and  C_2
REMARK    2  A    between atoms: C_5  and  C_6
REMARK    3  A    between atoms: C_9  and  C_10
REMARK    4  A    between atoms: C_10  and  C_11
REMARK    5  A    between atoms: C_10  and  N_12
REMARK    6  A    between atoms: C_18  and  N_19
REMARK    7  A    between atoms: C_24  and  C_25
REMARK    8  A    between atoms: C_25  and  C_26
REMARK    9  A    between atoms: C_25  and  O_27
REMARK                            x       y       z     vdW  Elec       q    Type
REMARK                         _______ _______ _______ _____ _____    ______ ____
ROOT
ATOM      1  N   UNL     1       6.585   5.239  16.925  0.00  0.00    +0.000 N 
ATOM      2  C   UNL     1       5.276   4.965  17.294  0.00  0.00    +0.000 A 
ATOM      3  N   UNL     1       4.769   3.829  16.796  0.00  0.00    +0.000 NA
ATOM      4  C   UNL     1       3.514   3.504  17.171  0.00  0.00    +0.000 A 
ATOM      5  C   UNL     1       2.781   4.247  18.053  0.00  0.00    +0.000 A 
ATOM      6  F   UNL     1       1.521   3.915  18.366  0.00  0.00    +0.000 F 
ATOM      7  C   UNL     1       3.373   5.411  18.493  0.00  0.00    +0.000 A 
ATOM      8  N   UNL     1       4.601   5.811  18.090  0.00  0.00    +0.000 NA
ATOM      9  H   UNL     1       6.937   4.379  16.509  0.00  0.00    +0.000 HD
ENDROOT
BRANCH   7  10
ATOM     10  N   UNL     1       2.630   6.244  19.337  0.00  0.00    +0.000 N 
ATOM     11  C   UNL     1       2.167   5.827  20.559  0.00  0.00    +0.000 C 
ATOM     12  O   UNL     1       2.231   4.711  21.039  0.00  0.00    +0.000 OA
ATOM     13  O   UNL     1       1.639   6.900  21.228  0.00  0.00    +0.000 OA
ATOM     14  C   UNL     1       1.563   7.997  20.312  0.00  0.00    +0.000 C 
ATOM     15  C   UNL     1       2.533   7.665  19.185  0.00  0.00    +0.000 C 
BRANCH  15  16
ATOM     16  C   UNL     1       1.984   8.086  17.802  0.00  0.00    +0.000 C 
ATOM     17  C   UNL     1       1.161   9.366  17.831  0.00  0.00    +0.000 C 
BRANCH  16  18
ATOM     18  O   UNL     1       3.029   8.282  16.845  0.00  0.00    +0.000 OA
ATOM     19  H   UNL     1       3.861   8.477  17.312  0.00  0.00    +0.000 HD
ENDBRANCH  16  18
ENDBRANCH  15  16
ENDBRANCH   7  10
BRANCH   1  20
ATOM     20  C   UNL     1       7.435   5.754  18.002  0.00  0.00    +0.000 C 
ATOM     21  C   UNL     1       6.744   5.392  19.325  0.00  0.00    +0.000 C 
BRANCH  20  25
ATOM     22  C   UNL     1       8.356   9.222  18.200  0.00  0.00    +0.000 A 
ATOM     23  N   UNL     1       7.490   9.282  17.174  0.00  0.00    +0.000 NA
ATOM     24  O   UNL     1       7.056   7.965  17.023  0.00  0.00    +0.000 OA
ATOM     25  C   UNL     1       7.704   7.233  17.974  0.00  0.00    +0.000 A 
ATOM     26  N   UNL     1       8.501   7.956  18.729  0.00  0.00    +0.000 NA
BRANCH  22  31
ATOM     27  C   UNL     1      11.285  13.737  20.312  0.00  0.00    +0.000 C 
ATOM     28  C   UNL     1      10.531  12.558  19.776  0.00  0.00    +0.000 A 
ATOM     29  C   UNL     1      10.105  11.527  20.616  0.00  0.00    +0.000 A 
ATOM     30  C   UNL     1       9.396  10.441  20.092  0.00  0.00    +0.000 A 
ATOM     31  C   UNL     1       9.099  10.364  18.721  0.00  0.00    +0.000 A 
ATOM     32  C   UNL     1       9.532  11.397  17.881  0.00  0.00    +0.000 A 
ATOM     33  C   UNL     1      10.237  12.476  18.412  0.00  0.00    +0.000 A 
ATOM     34  F   UNL     1      10.637  13.454  17.588  0.00  0.00    +0.000 F 
ENDBRANCH  22  31
ENDBRANCH  20  25
ENDBRANCH   1  20
TORSDOF 6
ENDMDL
MODEL 5
REMARK VINA RESULT:      -7.6      2.186      3.392
REMARK  Name = 
REMARK  9 active torsions:
REMARK  status: ('A' for Active; 'I' for Inactive)
REMARK    1  A    between atoms: C_1  and  C_2
REMARK    2  A    between atoms: C_5  and  C_6
REMARK    3  A    between atoms: C_9  and  C_10
REMARK    4  A    between atoms: C_10  and  C_11
REMARK    5  A    between atoms: C_10  and  N_12
REMARK    6  A    between atoms: C_18  and  N_19
REMARK    7  A    between atoms: C_24  and  C_25
REMARK    8  A    between atoms: C_25  and  C_26
REMARK    9  A    between atoms: C_25  and  O_27
REMARK                            x       y       z     vdW  Elec       q    Type
REMARK                         _______ _______ _______ _____ _____    ______ ____
ROOT
ATOM      1  N   UNL     1      -0.160  12.133  17.920  0.00  0.00    +0.000 N 
ATOM      2  C   UNL     1      -1.356  12.293  18.605  0.00  0.00    +0.000 A 
ATOM      3  N   UNL     1      -2.423  11.717  18.034  0.00  0.00    +0.000 NA
ATOM      4  C   UNL     1      -3.595  11.810  18.696  0.00  0.00    +0.000 A 
ATOM      5  C   UNL     1      -3.720  12.413  19.916  0.00  0.00    +0.000 A 
ATOM      6  F   UNL     1      -4.910  12.523  20.521  0.00  0.00    +0.000 F 
ATOM      7  C   UNL     1      -2.576  12.998  20.415  0.00  0.00    +0.000 A 
ATOM      8  N   UNL     1      -1.395  12.989  19.754  0.00  0.00    +0.000 NA
ATOM      9  H   UNL     1      -0.341  11.417  17.219  0.00  0.00    +0.000 HD
ENDROOT
BRANCH   7  10
ATOM     10  N   UNL     1      -2.672  13.694  21.625  0.00  0.00    +0.000 N 
ATOM     11  C   UNL     1      -3.213  14.952  21.709  0.00  0.00    +0.000 C 
ATOM     12  O   UNL     1      -3.583  15.666  20.795  0.00  0.00    +0.000 OA
ATOM     13  O   UNL     1      -3.339  15.299  23.028  0.00  0.00    +0.000 OA
ATOM     14  C   UNL     1      -2.650  14.318  23.809  0.00  0.00    +0.000 C 
ATOM     15  C   UNL     1      -2.519  13.091  22.915  0.00  0.00    +0.000 C 
BRANCH  15  16
ATOM     16  C   UNL     1      -1.154  12.385  23.092  0.00  0.00    +0.000 C 
ATOM     17  C   UNL     1      -1.174  10.908  22.725  0.00  0.00    +0.000 C 
BRANCH  16  18
ATOM     18  O   UNL     1      -0.127  12.998  22.308  0.00  0.00    +0.000 OA
ATOM     19  H   UNL     1      -0.323  12.871  21.362  0.00  0.00    +0.000 HD
ENDBRANCH  16  18
ENDBRANCH  15  16
ENDBRANCH   7  10
BRANCH   1  20
ATOM     20  C   UNL     1       1.001  11.839  18.765  0.00  0.00    +0.000 C 
ATOM     21  C   UNL     1       2.184  12.627  18.184  0.00  0.00    +0.000 C 
BRANCH  20  25
ATOM     22  C   UNL     1       2.118   8.424  18.699  0.00  0.00    +0.000 A 
ATOM     23  N   UNL     1       1.499   8.430  19.891  0.00  0.00    +0.000 NA
ATOM     24  O   UNL     1       1.008   9.730  20.008  0.00  0.00    +0.000 OA
ATOM     25  C   UNL     1       1.381  10.388  18.873  0.00  0.00    +0.000 A 
ATOM     26  N   UNL     1       2.051   9.630  18.034  0.00  0.00    +0.000 NA
BRANCH  22  31
ATOM     27  C   UNL     1       4.865   3.831  16.511  0.00  0.00    +0.000 C 
ATOM     28  C   UNL     1       4.140   5.013  17.078  0.00  0.00    +0.000 A 
ATOM     29  C   UNL     1       2.966   4.857  17.819  0.00  0.00    +0.000 A 
ATOM     30  C   UNL     1       2.313   5.978  18.344  0.00  0.00    +0.000 A 
ATOM     31  C   UNL     1       2.818   7.272  18.138  0.00  0.00    +0.000 A 
ATOM     32  C   UNL     1       3.991   7.425  17.390  0.00  0.00    +0.000 A 
ATOM     33  C   UNL     1       4.637   6.304  16.873  0.00  0.00    +0.000 A 
ATOM     34  F   UNL     1       5.760   6.475  16.163  0.00  0.00    +0.000 F 
ENDBRANCH  22  31
ENDBRANCH  20  25
ENDBRANCH   1  20
TORSDOF 6
ENDMDL
MODEL 6
REMARK VINA RESULT:      -7.6      2.159      3.402
REMARK  Name = 
REMARK  9 active torsions:
REMARK  status: ('A' for Active; 'I' for Inactive)
REMARK    1  A    between atoms: C_1  and  C_2
REMARK    2  A    between atoms: C_5  and  C_6
REMARK    3  A    between atoms: C_9  and  C_10
REMARK    4  A    between atoms: C_10  and  C_11
REMARK    5  A    between atoms: C_10  and  N_12
REMARK    6  A    between atoms: C_18  and  N_19
REMARK    7  A    between atoms: C_24  and  C_25
REMARK    8  A    between atoms: C_25  and  C_26
REMARK    9  A    between atoms: C_25  and  O_27
REMARK                            x       y       z     vdW  Elec       q    Type
REMARK                         _______ _______ _______ _____ _____    ______ ____
ROOT
ATOM      1  N   UNL     1       0.317  11.439  21.623  0.00  0.00    +0.000 N 
ATOM      2  C   UNL     1      -0.684  12.377  21.417  0.00  0.00    +0.000 A 
ATOM      3  N   UNL     1      -0.367  13.378  20.585  0.00  0.00    +0.000 NA
ATOM      4  C   UNL     1      -1.332  14.285  20.323  0.00  0.00    +0.000 A 
ATOM      5  C   UNL     1      -2.599  14.194  20.825  0.00  0.00    +0.000 A 
ATOM      6  F   UNL     1      -3.517  15.138  20.577  0.00  0.00    +0.000 F 
ATOM      7  C   UNL     1      -2.828  13.146  21.691  0.00  0.00    +0.000 A 
ATOM      8  N   UNL     1      -1.871  12.253  22.036  0.00  0.00    +0.000 NA
ATOM      9  H   UNL     1       1.018  11.628  20.908  0.00  0.00    +0.000 HD
ENDROOT
BRANCH   7  10
ATOM     10  N   UNL     1      -4.088  13.056  22.291  0.00  0.00    +0.000 N 
ATOM     11  C   UNL     1      -5.180  12.548  21.633  0.00  0.00    +0.000 C 
ATOM     12  O   UNL     1      -5.256  12.207  20.467  0.00  0.00    +0.000 OA
ATOM     13  O   UNL     1      -6.217  12.417  22.520  0.00  0.00    +0.000 OA
ATOM     14  C   UNL     1      -5.841  13.072  23.736  0.00  0.00    +0.000 C 
ATOM     15  C   UNL     1      -4.322  13.179  23.699  0.00  0.00    +0.000 C 
BRANCH  15  16
ATOM     16  C   UNL     1      -3.819  14.523  24.277  0.00  0.00    +0.000 C 
ATOM     17  C   UNL     1      -4.811  15.667  24.126  0.00  0.00    +0.000 C 
BRANCH  16  18
ATOM     18  O   UNL     1      -3.501  14.424  25.667  0.00  0.00    +0.000 OA
ATOM     19  H   UNL     1      -3.347  13.491  25.898  0.00  0.00    +0.000 HD
ENDBRANCH  16  18
ENDBRANCH  15  16
ENDBRANCH   7  10
BRANCH   1  20
ATOM     20  C   UNL     1      -0.136  10.046  21.638  0.00  0.00    +0.000 C 
ATOM     21  C   UNL     1      -0.183   9.610  23.110  0.00  0.00    +0.000 C 
BRANCH  20  25
ATOM     22  C   UNL     1       1.806   7.463  20.065  0.00  0.00    +0.000 A 
ATOM     23  N   UNL     1       1.857   8.396  19.099  0.00  0.00    +0.000 NA
ATOM     24  O   UNL     1       1.132   9.465  19.626  0.00  0.00    +0.000 OA
ATOM     25  C   UNL     1       0.710   9.074  20.862  0.00  0.00    +0.000 A 
ATOM     26  N   UNL     1       1.107   7.862  21.184  0.00  0.00    +0.000 NA
BRANCH  22  31
ATOM     27  C   UNL     1       4.170   2.199  19.711  0.00  0.00    +0.000 C 
ATOM     28  C   UNL     1       3.543   3.557  19.805  0.00  0.00    +0.000 A 
ATOM     29  C   UNL     1       2.364   3.763  20.524  0.00  0.00    +0.000 A 
ATOM     30  C   UNL     1       1.805   5.043  20.603  0.00  0.00    +0.000 A 
ATOM     31  C   UNL     1       2.410   6.139  19.965  0.00  0.00    +0.000 A 
ATOM     32  C   UNL     1       3.588   5.926  19.240  0.00  0.00    +0.000 A 
ATOM     33  C   UNL     1       4.141   4.649  19.169  0.00  0.00    +0.000 A 
ATOM     34  F   UNL     1       5.272   4.472  18.472  0.00  0.00    +0.000 F 
ENDBRANCH  22  31
ENDBRANCH  20  25
ENDBRANCH   1  20
TORSDOF 6
ENDMDL
MODEL 7
REMARK VINA RESULT:      -7.6      2.471      3.633
REMARK  Name = 
REMARK  9 active torsions:
REMARK  status: ('A' for Active; 'I' for Inactive)
REMARK    1  A    between atoms: C_1  and  C_2
REMARK    2  A    between atoms: C_5  and  C_6
REMARK    3  A    between atoms: C_9  and  C_10
REMARK    4  A    between atoms: C_10  and  C_11
REMARK    5  A    between atoms: C_10  and  N_12
REMARK    6  A    between atoms: C_18  and  N_19
REMARK    7  A    between atoms: C_24  and  C_25
REMARK    8  A    between atoms: C_25  and  C_26
REMARK    9  A    between atoms: C_25  and  O_27
REMARK                            x       y       z     vdW  Elec       q    Type
REMARK                         _______ _______ _______ _____ _____    ______ ____
ROOT
ATOM      1  N   UNL     1      -0.395  11.670  18.006  0.00  0.00    +0.000 N 
ATOM      2  C   UNL     1      -1.527  12.068  18.703  0.00  0.00    +0.000 A 
ATOM      3  N   UNL     1      -2.683  11.561  18.253  0.00  0.00    +0.000 NA
ATOM      4  C   UNL     1      -3.801  11.887  18.935  0.00  0.00    +0.000 A 
ATOM      5  C   UNL     1      -3.790  12.655  20.065  0.00  0.00    +0.000 A 
ATOM      6  F   UNL     1      -4.927  12.993  20.689  0.00  0.00    +0.000 F 
ATOM      7  C   UNL     1      -2.561  13.152  20.440  0.00  0.00    +0.000 A 
ATOM      8  N   UNL     1      -1.424  12.909  19.747  0.00  0.00    +0.000 NA
ATOM      9  H   UNL     1      -0.697  10.897  17.416  0.00  0.00    +0.000 HD
ENDROOT
BRANCH   7  10
ATOM     10  N   UNL     1      -2.512  14.007  21.546  0.00  0.00    +0.000 N 
ATOM     11  C   UNL     1      -2.836  15.338  21.462  0.00  0.00    +0.000 C 
ATOM     12  O   UNL     1      -3.105  15.977  20.462  0.00  0.00    +0.000 OA
ATOM     13  O   UNL     1      -2.871  15.872  22.723  0.00  0.00    +0.000 OA
ATOM     14  C   UNL     1      -2.334  14.901  23.627  0.00  0.00    +0.000 C 
ATOM     15  C   UNL     1      -2.429  13.563  22.905  0.00  0.00    +0.000 C 
BRANCH  15  16
ATOM     16  C   UNL     1      -1.195  12.669  23.172  0.00  0.00    +0.000 C 
ATOM     17  C   UNL     1      -1.465  11.181  22.997  0.00  0.00    +0.000 C 
BRANCH  16  18
ATOM     18  O   UNL     1      -0.097  12.999  22.317  0.00  0.00    +0.000 OA
ATOM     19  H   UNL     1      -0.266  12.646  21.425  0.00  0.00    +0.000 HD
ENDBRANCH  16  18
ENDBRANCH  15  16
ENDBRANCH   7  10
BRANCH   1  20
ATOM     20  C   UNL     1       0.763  11.346  18.843  0.00  0.00    +0.000 C 
ATOM     21  C   UNL     1       1.783  12.477  18.647  0.00  0.00    +0.000 C 
BRANCH  20  25
ATOM     22  C   UNL     1       2.155   8.054  18.469  0.00  0.00    +0.000 A 
ATOM     23  N   UNL     1       2.631   8.623  17.348  0.00  0.00    +0.000 NA
ATOM     24  O   UNL     1       2.151   9.932  17.406  0.00  0.00    +0.000 OA
ATOM     25  C   UNL     1       1.428  10.027  18.558  0.00  0.00    +0.000 A 
ATOM     26  N   UNL     1       1.410   8.910  19.251  0.00  0.00    +0.000 NA
BRANCH  22  31
ATOM     27  C   UNL     1       3.022   2.522  19.906  0.00  0.00    +0.000 C 
ATOM     28  C   UNL     1       2.807   3.954  19.522  0.00  0.00    +0.000 A 
ATOM     29  C   UNL     1       2.967   4.382  18.202  0.00  0.00    +0.000 A 
ATOM     30  C   UNL     1       2.752   5.724  17.869  0.00  0.00    +0.000 A 
ATOM     31  C   UNL     1       2.375   6.661  18.844  0.00  0.00    +0.000 A 
ATOM     32  C   UNL     1       2.222   6.229  20.167  0.00  0.00    +0.000 A 
ATOM     33  C   UNL     1       2.435   4.891  20.491  0.00  0.00    +0.000 A 
ATOM     34  F   UNL     1       2.278   4.501  21.763  0.00  0.00    +0.000 F 
ENDBRANCH  22  31
ENDBRANCH  20  25
ENDBRANCH   1  20
TORSDOF 6
ENDMDL
MODEL 8
REMARK VINA RESULT:      -7.6      2.173      3.329
REMARK  Name = 
REMARK  9 active torsions:
REMARK  status: ('A' for Active; 'I' for Inactive)
REMARK    1  A    between atoms: C_1  and  C_2
REMARK    2  A    between atoms: C_5  and  C_6
REMARK    3  A    between atoms: C_9  and  C_10
REMARK    4  A    between atoms: C_10  and  C_11
REMARK    5  A    between atoms: C_10  and  N_12
REMARK    6  A    between atoms: C_18  and  N_19
REMARK    7  A    between atoms: C_24  and  C_25
REMARK    8  A    between atoms: C_25  and  C_26
REMARK    9  A    between atoms: C_25  and  O_27
REMARK                            x       y       z     vdW  Elec       q    Type
REMARK                         _______ _______ _______ _____ _____    ______ ____
ROOT
ATOM      1  N   UNL     1       0.354  11.455  21.626  0.00  0.00    +0.000 N 
ATOM      2  C   UNL     1      -0.649  12.391  21.421  0.00  0.00    +0.000 A 
ATOM      3  N   UNL     1      -0.335  13.391  20.585  0.00  0.00    +0.000 NA
ATOM      4  C   UNL     1      -1.302  14.295  20.323  0.00  0.00    +0.000 A 
ATOM      5  C   UNL     1      -2.568  14.204  20.829  0.00  0.00    +0.000 A 
ATOM      6  F   UNL     1      -3.488  15.147  20.581  0.00  0.00    +0.000 F 
ATOM      7  C   UNL     1      -2.793  13.159  21.698  0.00  0.00    +0.000 A 
ATOM      8  N   UNL     1      -1.834  12.268  22.043  0.00  0.00    +0.000 NA
ATOM      9  H   UNL     1       1.053  11.643  20.909  0.00  0.00    +0.000 HD
ENDROOT
BRANCH   7  10
ATOM     10  N   UNL     1      -4.052  13.069  22.301  0.00  0.00    +0.000 N 
ATOM     11  C   UNL     1      -5.146  12.561  21.647  0.00  0.00    +0.000 C 
ATOM     12  O   UNL     1      -5.225  12.221  20.481  0.00  0.00    +0.000 OA
ATOM     13  O   UNL     1      -6.180  12.430  22.536  0.00  0.00    +0.000 OA
ATOM     14  C   UNL     1      -5.800  13.084  23.752  0.00  0.00    +0.000 C 
ATOM     15  C   UNL     1      -4.282  13.191  23.710  0.00  0.00    +0.000 C 
BRANCH  15  16
ATOM     16  C   UNL     1      -3.777  14.535  24.287  0.00  0.00    +0.000 C 
ATOM     17  C   UNL     1      -4.754  15.687  24.107  0.00  0.00    +0.000 C 
BRANCH  16  18
ATOM     18  O   UNL     1      -3.487  14.445  25.684  0.00  0.00    +0.000 OA
ATOM     19  H   UNL     1      -3.947  13.673  26.060  0.00  0.00    +0.000 HD
ENDBRANCH  16  18
ENDBRANCH  15  16
ENDBRANCH   7  10
BRANCH   1  20
ATOM     20  C   UNL     1      -0.098  10.061  21.646  0.00  0.00    +0.000 C 
ATOM     21  C   UNL     1      -0.105   9.618  23.117  0.00  0.00    +0.000 C 
BRANCH  20  25
ATOM     22  C   UNL     1       1.776   7.480  19.991  0.00  0.00    +0.000 A 
ATOM     23  N   UNL     1       1.897   8.459  19.079  0.00  0.00    +0.000 NA
ATOM     24  O   UNL     1       1.205   9.531  19.643  0.00  0.00    +0.000 OA
ATOM     25  C   UNL     1       0.728   9.094  20.843  0.00  0.00    +0.000 A 
ATOM     26  N   UNL     1       1.061   7.850  21.110  0.00  0.00    +0.000 NA
BRANCH  22  31
ATOM     27  C   UNL     1       3.953   2.165  19.327  0.00  0.00    +0.000 C 
ATOM     28  C   UNL     1       3.400   3.548  19.491  0.00  0.00    +0.000 A 
ATOM     29  C   UNL     1       3.630   4.538  18.533  0.00  0.00    +0.000 A 
ATOM     30  C   UNL     1       3.095   5.820  18.706  0.00  0.00    +0.000 A 
ATOM     31  C   UNL     1       2.324   6.136  19.836  0.00  0.00    +0.000 A 
ATOM     32  C   UNL     1       2.100   5.142  20.796  0.00  0.00    +0.000 A 
ATOM     33  C   UNL     1       2.634   3.868  20.616  0.00  0.00    +0.000 A 
ATOM     34  F   UNL     1       2.404   2.932  21.547  0.00  0.00    +0.000 F 
ENDBRANCH  22  31
ENDBRANCH  20  25
ENDBRANCH   1  20
TORSDOF 6
ENDMDL
MODEL 9
REMARK VINA RESULT:      -7.6      1.367      2.691
REMARK  Name = 
REMARK  9 active torsions:
REMARK  status: ('A' for Active; 'I' for Inactive)
REMARK    1  A    between atoms: C_1  and  C_2
REMARK    2  A    between atoms: C_5  and  C_6
REMARK    3  A    between atoms: C_9  and  C_10
REMARK    4  A    between atoms: C_10  and  C_11
REMARK    5  A    between atoms: C_10  and  N_12
REMARK    6  A    between atoms: C_18  and  N_19
REMARK    7  A    between atoms: C_24  and  C_25
REMARK    8  A    between atoms: C_25  and  C_26
REMARK    9  A    between atoms: C_25  and  O_27
REMARK                            x       y       z     vdW  Elec       q    Type
REMARK                         _______ _______ _______ _____ _____    ______ ____
ROOT
ATOM      1  N   UNL     1       0.722  10.661  21.609  0.00  0.00    +0.000 N 
ATOM      2  C   UNL     1      -0.045  11.817  21.641  0.00  0.00    +0.000 A 
ATOM      3  N   UNL     1       0.646  12.963  21.560  0.00  0.00    +0.000 NA
ATOM      4  C   UNL     1      -0.069  14.107  21.541  0.00  0.00    +0.000 A 
ATOM      5  C   UNL     1      -1.435  14.136  21.553  0.00  0.00    +0.000 A 
ATOM      6  F   UNL     1      -2.108  15.295  21.577  0.00  0.00    +0.000 F 
ATOM      7  C   UNL     1      -2.060  12.913  21.662  0.00  0.00    +0.000 A 
ATOM      8  N   UNL     1      -1.382  11.744  21.754  0.00  0.00    +0.000 NA
ATOM      9  H   UNL     1       1.651  10.958  21.316  0.00  0.00    +0.000 HD
ENDROOT
BRANCH   7  10
ATOM     10  N   UNL     1      -3.455  12.897  21.756  0.00  0.00    +0.000 N 
ATOM     11  C   UNL     1      -4.262  12.645  20.675  0.00  0.00    +0.000 C 
ATOM     12  O   UNL     1      -3.928  12.503  19.514  0.00  0.00    +0.000 OA
ATOM     13  O   UNL     1      -5.557  12.516  21.102  0.00  0.00    +0.000 OA
ATOM     14  C   UNL     1      -5.610  12.918  22.475  0.00  0.00    +0.000 C 
ATOM     15  C   UNL     1      -4.180  12.829  22.990  0.00  0.00    +0.000 C 
BRANCH  15  16
ATOM     16  C   UNL     1      -3.835  13.989  23.954  0.00  0.00    +0.000 C 
ATOM     17  C   UNL     1      -4.813  15.153  23.889  0.00  0.00    +0.000 C 
BRANCH  16  18
ATOM     18  O   UNL     1      -3.786  13.558  25.317  0.00  0.00    +0.000 OA
ATOM     19  H   UNL     1      -4.576  13.881  25.786  0.00  0.00    +0.000 HD
ENDBRANCH  16  18
ENDBRANCH  15  16
ENDBRANCH   7  10
BRANCH   1  20
ATOM     20  C   UNL     1       0.173   9.579  20.786  0.00  0.00    +0.000 C 
ATOM     21  C   UNL     1      -0.163   8.423  21.740  0.00  0.00    +0.000 C 
BRANCH  20  25
ATOM     22  C   UNL     1       2.329   8.028  18.365  0.00  0.00    +0.000 A 
ATOM     23  N   UNL     1       2.053   9.171  17.714  0.00  0.00    +0.000 NA
ATOM     24  O   UNL     1       1.219   9.864  18.592  0.00  0.00    +0.000 OA
ATOM     25  C   UNL     1       1.069   9.071  19.691  0.00  0.00    +0.000 A 
ATOM     26  N   UNL     1       1.737   7.942  19.608  0.00  0.00    +0.000 NA
BRANCH  22  31
ATOM     27  C   UNL     1       5.589   3.735  16.277  0.00  0.00    +0.000 C 
ATOM     28  C   UNL     1       4.732   4.839  16.816  0.00  0.00    +0.000 A 
ATOM     29  C   UNL     1       3.516   4.570  17.448  0.00  0.00    +0.000 A 
ATOM     30  C   UNL     1       2.738   5.618  17.950  0.00  0.00    +0.000 A 
ATOM     31  C   UNL     1       3.158   6.953  17.830  0.00  0.00    +0.000 A 
ATOM     32  C   UNL     1       4.375   7.219  17.192  0.00  0.00    +0.000 A 
ATOM     33  C   UNL     1       5.145   6.169  16.696  0.00  0.00    +0.000 A 
ATOM     34  F   UNL     1       6.308   6.449  16.092  0.00  0.00    +0.000 F 
ENDBRANCH  22  31
ENDBRANCH  20  25
ENDBRANCH   1  20
TORSDOF 6
ENDMDL
