MODEL 1
REMARK VINA RESULT:      -6.4      0.000      0.000
REMARK  Name = 
REMARK  7 active torsions:
REMARK  status: ('A' for Active; 'I' for Inactive)
REMARK    1  A    between atoms: C_1  and  O_2
REMARK    2  A    between atoms: O_2  and  C_3
REMARK    3  A    between atoms: C_7  and  O_8
REMARK    4  A    between atoms: C_9  and  O_10
REMARK    5  A    between atoms: O_10  and  C_11
REMARK    6  A    between atoms: C_22  and  O_23
REMARK    7  A    between atoms: C_24  and  O_25
REMARK                            x       y       z     vdW  Elec       q    Type
REMARK                         _______ _______ _______ _____ _____    ______ ____
ROOT
ATOM      1  C   UNL     1      -4.355  13.970  22.843  0.00  0.00    +0.000 A 
ATOM      2  C   UNL     1      -4.475  13.452  21.504  0.00  0.00    +0.000 A 
ATOM      3  C   UNL     1      -3.220  13.710  20.956  0.00  0.00    +0.000 A 
ATOM      4  C   UNL     1      -1.930  13.707  21.681  0.00  0.00    +0.000 A 
ATOM      5  C   UNL     1      -1.985  13.443  23.033  0.00  0.00    +0.000 A 
ATOM      6  C   UNL     1      -3.151  13.787  23.688  0.00  0.00    +0.000 A 
ATOM      7  C   UNL     1      -0.550  13.823  20.914  0.00  0.00    +0.000 C 
ATOM      8  C   UNL     1      -0.946  13.146  19.652  0.00  0.00    +0.000 C 
ATOM      9  C   UNL     1      -0.931  12.519  18.298  0.00  0.00    +0.000 C 
ATOM     10  C   UNL     1      -2.387  11.978  18.295  0.00  0.00    +0.000 C 
ATOM     11  C   UNL     1      -2.799  10.877  17.405  0.00  0.00    +0.000 C 
ATOM     12  O   UNL     1      -2.114  10.383  16.527  0.00  0.00    +0.000 OA
ATOM     13  C   UNL     1      -4.183  10.441  17.659  0.00  0.00    +0.000 C 
ATOM     14  C   UNL     1      -4.998  11.367  17.120  0.00  0.00    +0.000 C 
ATOM     15  C   UNL     1      -6.015  11.949  18.039  0.00  0.00    +0.000 A 
ATOM     16  C   UNL     1      -6.877  10.913  18.297  0.00  0.00    +0.000 A 
ATOM     17  C   UNL     1      -6.943  10.595  19.626  0.00  0.00    +0.000 A 
ATOM     18  C   UNL     1      -6.446  11.500  20.698  0.00  0.00    +0.000 A 
ATOM     19  C   UNL     1      -5.596  12.649  20.517  0.00  0.00    +0.000 A 
ATOM     20  C   UNL     1      -5.552  12.867  19.106  0.00  0.00    +0.000 A 
ENDROOT
BRANCH   1  22
ATOM     21  C   UNL     1      -5.812  15.970  23.462  0.00  0.00    +0.000 C 
ATOM     22  O   UNL     1      -4.592  15.478  22.801  0.00  0.00    +0.000 OA
ENDBRANCH   1  22
BRANCH   5  23
ATOM     23  O   UNL     1      -1.121  12.529  23.556  0.00  0.00    +0.000 OA
ATOM     24  H   UNL     1      -1.731  11.926  24.037  0.00  0.00    +0.000 HD
ENDBRANCH   5  23
BRANCH   6  25
ATOM     25  O   UNL     1      -3.187  14.178  25.016  0.00  0.00    +0.000 OA
ATOM     26  C   UNL     1      -2.348  15.255  25.498  0.00  0.00    +0.000 C 
ENDBRANCH   6  25
BRANCH  17  27
ATOM     27  O   UNL     1      -7.522   9.378  19.915  0.00  0.00    +0.000 OA
ATOM     28  H   UNL     1      -8.415   9.353  19.503  0.00  0.00    +0.000 HD
ENDBRANCH  17  27
BRANCH  18  29
ATOM     29  O   UNL     1      -7.462  11.603  21.661  0.00  0.00    +0.000 OA
ATOM     30  H   UNL     1      -7.816  10.683  21.705  0.00  0.00    +0.000 HD
ENDBRANCH  18  29
TORSDOF 5
ENDMDL
MODEL 2
REMARK VINA RESULT:      -6.2      4.065      7.643
REMARK  Name = 
REMARK  7 active torsions:
REMARK  status: ('A' for Active; 'I' for Inactive)
REMARK    1  A    between atoms: C_1  and  O_2
REMARK    2  A    between atoms: O_2  and  C_3
REMARK    3  A    between atoms: C_7  and  O_8
REMARK    4  A    between atoms: C_9  and  O_10
REMARK    5  A    between atoms: O_10  and  C_11
REMARK    6  A    between atoms: C_22  and  O_23
REMARK    7  A    between atoms: C_24  and  O_25
REMARK                            x       y       z     vdW  Elec       q    Type
REMARK                         _______ _______ _______ _____ _____    ______ ____
ROOT
ATOM      1  C   UNL     1       0.035  10.343  19.882  0.00  0.00    +0.000 A 
ATOM      2  C   UNL     1       0.141  11.779  19.870  0.00  0.00    +0.000 A 
ATOM      3  C   UNL     1      -0.666  12.161  20.940  0.00  0.00    +0.000 A 
ATOM      4  C   UNL     1      -0.871  11.405  22.196  0.00  0.00    +0.000 A 
ATOM      5  C   UNL     1      -0.214  10.197  22.301  0.00  0.00    +0.000 A 
ATOM      6  C   UNL     1       0.055   9.530  21.122  0.00  0.00    +0.000 A 
ATOM      7  C   UNL     1      -1.656  12.032  23.420  0.00  0.00    +0.000 C 
ATOM      8  C   UNL     1      -1.295  13.456  23.203  0.00  0.00    +0.000 C 
ATOM      9  C   UNL     1      -1.140  14.933  23.351  0.00  0.00    +0.000 C 
ATOM     10  C   UNL     1      -0.179  15.171  22.156  0.00  0.00    +0.000 C 
ATOM     11  C   UNL     1       0.679  16.368  22.082  0.00  0.00    +0.000 C 
ATOM     12  O   UNL     1       0.636  17.318  22.844  0.00  0.00    +0.000 OA
ATOM     13  C   UNL     1       1.600  16.326  20.933  0.00  0.00    +0.000 C 
ATOM     14  C   UNL     1       0.877  16.606  19.832  0.00  0.00    +0.000 C 
ATOM     15  C   UNL     1       0.962  15.608  18.729  0.00  0.00    +0.000 A 
ATOM     16  C   UNL     1       2.251  15.714  18.271  0.00  0.00    +0.000 A 
ATOM     17  C   UNL     1       2.954  14.546  18.381  0.00  0.00    +0.000 A 
ATOM     18  C   UNL     1       2.298  13.229  18.609  0.00  0.00    +0.000 A 
ATOM     19  C   UNL     1       0.935  13.016  19.025  0.00  0.00    +0.000 A 
ATOM     20  C   UNL     1       0.305  14.294  18.921  0.00  0.00    +0.000 A 
ENDROOT
BRANCH   1  22
ATOM     21  C   UNL     1      -1.323  10.256  17.725  0.00  0.00    +0.000 C 
ATOM     22  O   UNL     1      -1.251   9.945  19.162  0.00  0.00    +0.000 OA
ENDBRANCH   1  22
BRANCH   5  23
ATOM     23  O   UNL     1       0.477   9.927  23.443  0.00  0.00    +0.000 OA
ATOM     24  H   UNL     1      -0.236   9.945  24.119  0.00  0.00    +0.000 HD
ENDBRANCH   5  23
BRANCH   6  25
ATOM     25  O   UNL     1       0.112   8.149  21.029  0.00  0.00    +0.000 OA
ATOM     26  C   UNL     1       1.377   7.466  20.867  0.00  0.00    +0.000 C 
ENDBRANCH   6  25
BRANCH  17  27
ATOM     27  O   UNL     1       4.321  14.662  18.250  0.00  0.00    +0.000 OA
ATOM     28  H   UNL     1       4.602  15.508  18.666  0.00  0.00    +0.000 HD
ENDBRANCH  17  27
BRANCH  18  29
ATOM     29  O   UNL     1       2.825  12.332  17.668  0.00  0.00    +0.000 OA
ATOM     30  H   UNL     1       2.068  12.192  17.051  0.00  0.00    +0.000 HD
ENDBRANCH  18  29
TORSDOF 5
ENDMDL
MODEL 3
REMARK VINA RESULT:      -6.0      4.112      7.682
REMARK  Name = 
REMARK  7 active torsions:
REMARK  status: ('A' for Active; 'I' for Inactive)
REMARK    1  A    between atoms: C_1  and  O_2
REMARK    2  A    between atoms: O_2  and  C_3
REMARK    3  A    between atoms: C_7  and  O_8
REMARK    4  A    between atoms: C_9  and  O_10
REMARK    5  A    between atoms: O_10  and  C_11
REMARK    6  A    between atoms: C_22  and  O_23
REMARK    7  A    between atoms: C_24  and  O_25
REMARK                            x       y       z     vdW  Elec       q    Type
REMARK                         _______ _______ _______ _____ _____    ______ ____
ROOT
ATOM      1  C   UNL     1       0.605  10.268  19.316  0.00  0.00    +0.000 A 
ATOM      2  C   UNL     1       0.334  11.668  19.524  0.00  0.00    +0.000 A 
ATOM      3  C   UNL     1      -0.465  11.665  20.665  0.00  0.00    +0.000 A 
ATOM      4  C   UNL     1      -0.377  10.711  21.794  0.00  0.00    +0.000 A 
ATOM      5  C   UNL     1       0.577   9.721  21.689  0.00  0.00    +0.000 A 
ATOM      6  C   UNL     1       0.925   9.324  20.413  0.00  0.00    +0.000 A 
ATOM      7  C   UNL     1      -1.208  10.926  23.125  0.00  0.00    +0.000 C 
ATOM      8  C   UNL     1      -1.245  12.411  23.120  0.00  0.00    +0.000 C 
ATOM      9  C   UNL     1      -1.469  13.839  23.492  0.00  0.00    +0.000 C 
ATOM     10  C   UNL     1      -0.690  14.492  22.318  0.00  0.00    +0.000 C 
ATOM     11  C   UNL     1      -0.180  15.873  22.404  0.00  0.00    +0.000 C 
ATOM     12  O   UNL     1      -0.413  16.658  23.305  0.00  0.00    +0.000 OA
ATOM     13  C   UNL     1       0.636  16.241  21.234  0.00  0.00    +0.000 C 
ATOM     14  C   UNL     1      -0.212  16.470  20.213  0.00  0.00    +0.000 C 
ATOM     15  C   UNL     1       0.050  15.698  18.967  0.00  0.00    +0.000 A 
ATOM     16  C   UNL     1       1.231  16.209  18.490  0.00  0.00    +0.000 A 
ATOM     17  C   UNL     1       2.219  15.267  18.395  0.00  0.00    +0.000 A 
ATOM     18  C   UNL     1       1.946  13.804  18.436  0.00  0.00    +0.000 A 
ATOM     19  C   UNL     1       0.717  13.178  18.857  0.00  0.00    +0.000 A 
ATOM     20  C   UNL     1      -0.228  14.243  18.972  0.00  0.00    +0.000 A 
ENDROOT
BRANCH   1  22
ATOM     21  C   UNL     1      -1.231  10.482  17.560  0.00  0.00    +0.000 C 
ATOM     22  O   UNL     1      -0.582   9.647  18.584  0.00  0.00    +0.000 OA
ENDBRANCH   1  22
BRANCH   5  23
ATOM     23  O   UNL     1       1.394   9.487  22.753  0.00  0.00    +0.000 OA
ATOM     24  H   UNL     1       1.299   8.516  22.871  0.00  0.00    +0.000 HD
ENDBRANCH   5  23
BRANCH   6  25
ATOM     25  O   UNL     1       1.331   8.036  20.106  0.00  0.00    +0.000 OA
ATOM     26  C   UNL     1       2.268   7.788  19.031  0.00  0.00    +0.000 C 
ENDBRANCH   6  25
BRANCH  17  27
ATOM     27  O   UNL     1       3.496  15.762  18.241  0.00  0.00    +0.000 OA
ATOM     28  H   UNL     1       3.506  16.696  18.548  0.00  0.00    +0.000 HD
ENDBRANCH  17  27
BRANCH  18  29
ATOM     29  O   UNL     1       2.619  13.223  17.351  0.00  0.00    +0.000 OA
ATOM     30  H   UNL     1       2.259  13.721  16.579  0.00  0.00    +0.000 HD
ENDBRANCH  18  29
TORSDOF 5
ENDMDL
MODEL 4
REMARK VINA RESULT:      -6.0      4.192      7.866
REMARK  Name = 
REMARK  7 active torsions:
REMARK  status: ('A' for Active; 'I' for Inactive)
REMARK    1  A    between atoms: C_1  and  O_2
REMARK    2  A    between atoms: O_2  and  C_3
REMARK    3  A    between atoms: C_7  and  O_8
REMARK    4  A    between atoms: C_9  and  O_10
REMARK    5  A    between atoms: O_10  and  C_11
REMARK    6  A    between atoms: C_22  and  O_23
REMARK    7  A    between atoms: C_24  and  O_25
REMARK                            x       y       z     vdW  Elec       q    Type
REMARK                         _______ _______ _______ _____ _____    ______ ____
ROOT
ATOM      1  C   UNL     1       1.029   9.795  18.672  0.00  0.00    +0.000 A 
ATOM      2  C   UNL     1       0.575  11.077  19.145  0.00  0.00    +0.000 A 
ATOM      3  C   UNL     1      -0.190  10.746  20.261  0.00  0.00    +0.000 A 
ATOM      4  C   UNL     1       0.053   9.615  21.185  0.00  0.00    +0.000 A 
ATOM      5  C   UNL     1       1.129   8.804  20.894  0.00  0.00    +0.000 A 
ATOM      6  C   UNL     1       1.498   8.710  19.567  0.00  0.00    +0.000 A 
ATOM      7  C   UNL     1      -0.769   9.454  22.529  0.00  0.00    +0.000 C 
ATOM      8  C   UNL     1      -1.007  10.893  22.812  0.00  0.00    +0.000 C 
ATOM      9  C   UNL     1      -1.413  12.178  23.451  0.00  0.00    +0.000 C 
ATOM     10  C   UNL     1      -0.757  13.145  22.428  0.00  0.00    +0.000 C 
ATOM     11  C   UNL     1      -0.437  14.540  22.782  0.00  0.00    +0.000 C 
ATOM     12  O   UNL     1      -0.754  15.099  23.817  0.00  0.00    +0.000 OA
ATOM     13  C   UNL     1       0.293  15.235  21.708  0.00  0.00    +0.000 C 
ATOM     14  C   UNL     1      -0.600  15.537  20.747  0.00  0.00    +0.000 C 
ATOM     15  C   UNL     1      -0.265  15.062  19.376  0.00  0.00    +0.000 A 
ATOM     16  C   UNL     1       0.825  15.812  19.011  0.00  0.00    +0.000 A 
ATOM     17  C   UNL     1       1.928  15.051  18.740  0.00  0.00    +0.000 A 
ATOM     18  C   UNL     1       1.856  13.584  18.497  0.00  0.00    +0.000 A 
ATOM     19  C   UNL     1       0.734  12.726  18.784  0.00  0.00    +0.000 A 
ATOM     20  C   UNL     1      -0.343  13.609  19.100  0.00  0.00    +0.000 A 
ENDROOT
BRANCH   1  22
ATOM     21  C   UNL     1      -1.204  10.048  17.465  0.00  0.00    +0.000 C 
ATOM     22  O   UNL     1      -0.080   9.169  17.829  0.00  0.00    +0.000 OA
ENDBRANCH   1  22
BRANCH   5  23
ATOM     23  O   UNL     1       1.995   8.484  21.896  0.00  0.00    +0.000 OA
ATOM     24  H   UNL     1       1.797   7.532  22.037  0.00  0.00    +0.000 HD
ENDBRANCH   5  23
BRANCH   6  25
ATOM     25  O   UNL     1       2.067   7.574  19.017  0.00  0.00    +0.000 OA
ATOM     26  C   UNL     1       3.024   7.670  17.936  0.00  0.00    +0.000 C 
ENDBRANCH   6  25
BRANCH  17  27
ATOM     27  O   UNL     1       3.122  15.737  18.689  0.00  0.00    +0.000 OA
ATOM     28  H   UNL     1       3.712  15.288  18.042  0.00  0.00    +0.000 HD
ENDBRANCH  17  27
BRANCH  18  29
ATOM     29  O   UNL     1       2.577  13.320  17.321  0.00  0.00    +0.000 OA
ATOM     30  H   UNL     1       3.308  13.982  17.360  0.00  0.00    +0.000 HD
ENDBRANCH  18  29
TORSDOF 5
ENDMDL
MODEL 5
REMARK VINA RESULT:      -6.0      2.237      4.458
REMARK  Name = 
REMARK  7 active torsions:
REMARK  status: ('A' for Active; 'I' for Inactive)
REMARK    1  A    between atoms: C_1  and  O_2
REMARK    2  A    between atoms: O_2  and  C_3
REMARK    3  A    between atoms: C_7  and  O_8
REMARK    4  A    between atoms: C_9  and  O_10
REMARK    5  A    between atoms: O_10  and  C_11
REMARK    6  A    between atoms: C_22  and  O_23
REMARK    7  A    between atoms: C_24  and  O_25
REMARK                            x       y       z     vdW  Elec       q    Type
REMARK                         _______ _______ _______ _____ _____    ______ ____
ROOT
ATOM      1  C   UNL     1      -0.717  12.076  21.847  0.00  0.00    +0.000 A 
ATOM      2  C   UNL     1      -2.036  12.452  21.404  0.00  0.00    +0.000 A 
ATOM      3  C   UNL     1      -1.989  12.198  20.035  0.00  0.00    +0.000 A 
ATOM      4  C   UNL     1      -1.219  11.124  19.368  0.00  0.00    +0.000 A 
ATOM      5  C   UNL     1      -0.461  10.313  20.186  0.00  0.00    +0.000 A 
ATOM      6  C   UNL     1      -0.004  10.870  21.364  0.00  0.00    +0.000 A 
ATOM      7  C   UNL     1      -1.399  10.813  17.826  0.00  0.00    +0.000 C 
ATOM      8  C   UNL     1      -2.827  11.198  17.692  0.00  0.00    +0.000 C 
ATOM      9  C   UNL     1      -4.203  11.435  17.164  0.00  0.00    +0.000 C 
ATOM     10  C   UNL     1      -4.870  11.881  18.494  0.00  0.00    +0.000 C 
ATOM     11  C   UNL     1      -6.330  11.808  18.687  0.00  0.00    +0.000 C 
ATOM     12  O   UNL     1      -7.145  11.528  17.825  0.00  0.00    +0.000 OA
ATOM     13  C   UNL     1      -6.731  12.158  20.060  0.00  0.00    +0.000 C 
ATOM     14  C   UNL     1      -6.643  13.497  20.172  0.00  0.00    +0.000 C 
ATOM     15  C   UNL     1      -5.808  14.000  21.297  0.00  0.00    +0.000 A 
ATOM     16  C   UNL     1      -6.508  13.655  22.426  0.00  0.00    +0.000 A 
ATOM     17  C   UNL     1      -5.806  12.826  23.256  0.00  0.00    +0.000 A 
ATOM     18  C   UNL     1      -4.334  12.631  23.145  0.00  0.00    +0.000 A 
ATOM     19  C   UNL     1      -3.505  13.019  22.032  0.00  0.00    +0.000 A 
ATOM     20  C   UNL     1      -4.338  13.835  21.208  0.00  0.00    +0.000 A 
ENDROOT
BRANCH   1  22
ATOM     21  C   UNL     1      -0.031  14.487  22.316  0.00  0.00    +0.000 C 
ATOM     22  O   UNL     1       0.234  13.240  21.580  0.00  0.00    +0.000 OA
ENDBRANCH   1  22
BRANCH   5  23
ATOM     23  O   UNL     1      -0.542   8.963  20.023  0.00  0.00    +0.000 OA
ATOM     24  H   UNL     1      -0.026   8.829  19.197  0.00  0.00    +0.000 HD
ENDBRANCH   5  23
BRANCH   6  25
ATOM     25  O   UNL     1       1.188  10.499  21.964  0.00  0.00    +0.000 OA
ATOM     26  C   UNL     1       1.298   9.256  22.697  0.00  0.00    +0.000 C 
ENDBRANCH   6  25
BRANCH  17  27
ATOM     27  O   UNL     1      -6.551  12.188  24.224  0.00  0.00    +0.000 OA
ATOM     28  H   UNL     1      -6.824  12.853  24.895  0.00  0.00    +0.000 HD
ENDBRANCH  17  27
BRANCH  18  29
ATOM     29  O   UNL     1      -3.794  12.791  24.430  0.00  0.00    +0.000 OA
ATOM     30  H   UNL     1      -4.423  12.283  24.996  0.00  0.00    +0.000 HD
ENDBRANCH  18  29
TORSDOF 5
ENDMDL
MODEL 6
REMARK VINA RESULT:      -5.9      1.792      6.024
REMARK  Name = 
REMARK  7 active torsions:
REMARK  status: ('A' for Active; 'I' for Inactive)
REMARK    1  A    between atoms: C_1  and  O_2
REMARK    2  A    between atoms: O_2  and  C_3
REMARK    3  A    between atoms: C_7  and  O_8
REMARK    4  A    between atoms: C_9  and  O_10
REMARK    5  A    between atoms: O_10  and  C_11
REMARK    6  A    between atoms: C_22  and  O_23
REMARK    7  A    between atoms: C_24  and  O_25
REMARK                            x       y       z     vdW  Elec       q    Type
REMARK                         _______ _______ _______ _____ _____    ______ ____
ROOT
ATOM      1  C   UNL     1      -4.778  11.789  18.183  0.00  0.00    +0.000 A 
ATOM      2  C   UNL     1      -4.577  12.310  19.511  0.00  0.00    +0.000 A 
ATOM      3  C   UNL     1      -3.374  11.723  19.898  0.00  0.00    +0.000 A 
ATOM      4  C   UNL     1      -2.237  11.388  19.010  0.00  0.00    +0.000 A 
ATOM      5  C   UNL     1      -2.400  11.669  17.671  0.00  0.00    +0.000 A 
ATOM      6  C   UNL     1      -3.692  11.653  17.183  0.00  0.00    +0.000 A 
ATOM      7  C   UNL     1      -0.847  10.903  19.594  0.00  0.00    +0.000 C 
ATOM      8  C   UNL     1      -0.879  11.650  20.878  0.00  0.00    +0.000 C 
ATOM      9  C   UNL     1      -0.519  12.239  22.201  0.00  0.00    +0.000 C 
ATOM     10  C   UNL     1      -1.766  13.148  22.379  0.00  0.00    +0.000 C 
ATOM     11  C   UNL     1      -1.749  14.311  23.285  0.00  0.00    +0.000 C 
ATOM     12  O   UNL     1      -0.848  14.598  24.053  0.00  0.00    +0.000 OA
ATOM     13  C   UNL     1      -2.990  15.101  23.202  0.00  0.00    +0.000 C 
ATOM     14  C   UNL     1      -3.942  14.421  23.867  0.00  0.00    +0.000 C 
ATOM     15  C   UNL     1      -5.190  14.138  23.105  0.00  0.00    +0.000 A 
ATOM     16  C   UNL     1      -5.772  15.369  22.933  0.00  0.00    +0.000 A 
ATOM     17  C   UNL     1      -5.929  15.704  21.616  0.00  0.00    +0.000 A 
ATOM     18  C   UNL     1      -5.836  14.709  20.514  0.00  0.00    +0.000 A 
ATOM     19  C   UNL     1      -5.303  13.373  20.614  0.00  0.00    +0.000 A 
ATOM     20  C   UNL     1      -5.132  13.140  22.012  0.00  0.00    +0.000 A 
ENDROOT
BRANCH   1  22
ATOM     21  C   UNL     1      -6.730  10.321  18.918  0.00  0.00    +0.000 C 
ATOM     22  O   UNL     1      -5.397  10.399  18.296  0.00  0.00    +0.000 OA
ENDBRANCH   1  22
BRANCH   5  23
ATOM     23  O   UNL     1      -1.402  12.325  17.015  0.00  0.00    +0.000 OA
ATOM     24  H   UNL     1      -0.835  12.625  17.759  0.00  0.00    +0.000 HD
ENDBRANCH   5  23
BRANCH   6  25
ATOM     25  O   UNL     1      -4.006  11.297  15.882  0.00  0.00    +0.000 OA
ATOM     26  C   UNL     1      -3.270  10.255  15.197  0.00  0.00    +0.000 C 
ENDBRANCH   6  25
BRANCH  17  27
ATOM     27  O   UNL     1      -6.197  17.034  21.372  0.00  0.00    +0.000 OA
ATOM     28  H   UNL     1      -5.422  17.566  21.662  0.00  0.00    +0.000 HD
ENDBRANCH  17  27
BRANCH  18  29
ATOM     29  O   UNL     1      -6.961  14.887  19.694  0.00  0.00    +0.000 OA
ATOM     30  H   UNL     1      -7.700  14.939  20.346  0.00  0.00    +0.000 HD
ENDBRANCH  18  29
TORSDOF 5
ENDMDL
MODEL 7
REMARK VINA RESULT:      -5.9      1.784      6.664
REMARK  Name = 
REMARK  7 active torsions:
REMARK  status: ('A' for Active; 'I' for Inactive)
REMARK    1  A    between atoms: C_1  and  O_2
REMARK    2  A    between atoms: O_2  and  C_3
REMARK    3  A    between atoms: C_7  and  O_8
REMARK    4  A    between atoms: C_9  and  O_10
REMARK    5  A    between atoms: O_10  and  C_11
REMARK    6  A    between atoms: C_22  and  O_23
REMARK    7  A    between atoms: C_24  and  O_25
REMARK                            x       y       z     vdW  Elec       q    Type
REMARK                         _______ _______ _______ _____ _____    ______ ____
ROOT
ATOM      1  C   UNL     1      -5.241  11.880  19.562  0.00  0.00    +0.000 A 
ATOM      2  C   UNL     1      -4.280  12.684  20.273  0.00  0.00    +0.000 A 
ATOM      3  C   UNL     1      -5.082  13.551  21.011  0.00  0.00    +0.000 A 
ATOM      4  C   UNL     1      -6.413  13.244  21.580  0.00  0.00    +0.000 A 
ATOM      5  C   UNL     1      -6.909  11.981  21.335  0.00  0.00    +0.000 A 
ATOM      6  C   UNL     1      -6.487  11.360  20.176  0.00  0.00    +0.000 A 
ATOM      7  C   UNL     1      -7.143  14.246  22.565  0.00  0.00    +0.000 C 
ATOM      8  C   UNL     1      -5.939  14.841  23.200  0.00  0.00    +0.000 C 
ATOM      9  C   UNL     1      -5.025  15.631  24.076  0.00  0.00    +0.000 C 
ATOM     10  C   UNL     1      -3.681  15.024  23.589  0.00  0.00    +0.000 C 
ATOM     11  C   UNL     1      -2.461  15.089  24.414  0.00  0.00    +0.000 C 
ATOM     12  O   UNL     1      -2.345  15.707  25.457  0.00  0.00    +0.000 OA
ATOM     13  C   UNL     1      -1.342  14.341  23.816  0.00  0.00    +0.000 C 
ATOM     14  C   UNL     1      -0.862  15.084  22.801  0.00  0.00    +0.000 C 
ATOM     15  C   UNL     1      -0.783  14.404  21.479  0.00  0.00    +0.000 A 
ATOM     16  C   UNL     1       0.196  13.456  21.640  0.00  0.00    +0.000 A 
ATOM     17  C   UNL     1      -0.257  12.182  21.434  0.00  0.00    +0.000 A 
ATOM     18  C   UNL     1      -1.545  11.884  20.750  0.00  0.00    +0.000 A 
ATOM     19  C   UNL     1      -2.602  12.825  20.477  0.00  0.00    +0.000 A 
ATOM     20  C   UNL     1      -2.049  14.109  20.767  0.00  0.00    +0.000 A 
ENDROOT
BRANCH   1  22
ATOM     21  C   UNL     1      -5.294  12.089  17.021  0.00  0.00    +0.000 C 
ATOM     22  O   UNL     1      -5.694  12.648  18.323  0.00  0.00    +0.000 OA
ENDBRANCH   1  22
BRANCH   5  23
ATOM     23  O   UNL     1      -7.423  11.268  22.375  0.00  0.00    +0.000 OA
ATOM     24  H   UNL     1      -8.087  10.701  21.922  0.00  0.00    +0.000 HD
ENDBRANCH   5  23
BRANCH   6  25
ATOM     25  O   UNL     1      -7.270  10.463  19.468  0.00  0.00    +0.000 OA
ATOM     26  C   UNL     1      -7.165   9.038  19.701  0.00  0.00    +0.000 C 
ENDBRANCH   6  25
BRANCH  17  27
ATOM     27  O   UNL     1       0.571  11.179  21.890  0.00  0.00    +0.000 OA
ATOM     28  H   UNL     1       1.032  10.781  21.118  0.00  0.00    +0.000 HD
ENDBRANCH  17  27
BRANCH  18  29
ATOM     29  O   UNL     1      -1.281  10.918  19.767  0.00  0.00    +0.000 OA
ATOM     30  H   UNL     1      -0.595  10.353  20.194  0.00  0.00    +0.000 HD
ENDBRANCH  18  29
TORSDOF 5
ENDMDL
MODEL 8
REMARK VINA RESULT:      -5.8      3.552      6.601
REMARK  Name = 
REMARK  7 active torsions:
REMARK  status: ('A' for Active; 'I' for Inactive)
REMARK    1  A    between atoms: C_1  and  O_2
REMARK    2  A    between atoms: O_2  and  C_3
REMARK    3  A    between atoms: C_7  and  O_8
REMARK    4  A    between atoms: C_9  and  O_10
REMARK    5  A    between atoms: O_10  and  C_11
REMARK    6  A    between atoms: C_22  and  O_23
REMARK    7  A    between atoms: C_24  and  O_25
REMARK                            x       y       z     vdW  Elec       q    Type
REMARK                         _______ _______ _______ _____ _____    ______ ____
ROOT
ATOM      1  C   UNL     1      -0.432  11.330  20.877  0.00  0.00    +0.000 A 
ATOM      2  C   UNL     1      -0.742  12.526  21.618  0.00  0.00    +0.000 A 
ATOM      3  C   UNL     1      -0.101  13.522  20.886  0.00  0.00    +0.000 A 
ATOM      4  C   UNL     1       0.096  13.543  19.419  0.00  0.00    +0.000 A 
ATOM      5  C   UNL     1      -0.387  12.458  18.719  0.00  0.00    +0.000 A 
ATOM      6  C   UNL     1      -0.448  11.256  19.396  0.00  0.00    +0.000 A 
ATOM      7  C   UNL     1       0.668  14.821  18.679  0.00  0.00    +0.000 C 
ATOM      8  C   UNL     1       0.126  15.860  19.592  0.00  0.00    +0.000 C 
ATOM      9  C   UNL     1      -0.253  17.162  20.214  0.00  0.00    +0.000 C 
ATOM     10  C   UNL     1      -1.126  16.603  21.370  0.00  0.00    +0.000 C 
ATOM     11  C   UNL     1      -2.137  17.436  22.047  0.00  0.00    +0.000 C 
ATOM     12  O   UNL     1      -2.301  18.631  21.872  0.00  0.00    +0.000 OA
ATOM     13  C   UNL     1      -2.933  16.669  23.020  0.00  0.00    +0.000 C 
ATOM     14  C   UNL     1      -2.161  16.479  24.106  0.00  0.00    +0.000 C 
ATOM     15  C   UNL     1      -2.001  15.067  24.550  0.00  0.00    +0.000 A 
ATOM     16  C   UNL     1      -3.244  14.708  25.005  0.00  0.00    +0.000 A 
ATOM     17  C   UNL     1      -3.778  13.651  24.320  0.00  0.00    +0.000 A 
ATOM     18  C   UNL     1      -2.963  12.759  23.452  0.00  0.00    +0.000 A 
ATOM     19  C   UNL     1      -1.627  13.018  22.978  0.00  0.00    +0.000 A 
ATOM     20  C   UNL     1      -1.181  14.159  23.714  0.00  0.00    +0.000 A 
ENDROOT
BRANCH   1  22
ATOM     21  C   UNL     1       1.032   9.540  21.952  0.00  0.00    +0.000 C 
ATOM     22  O   UNL     1       0.958  10.852  21.288  0.00  0.00    +0.000 OA
ENDBRANCH   1  22
BRANCH   5  23
ATOM     23  O   UNL     1      -1.132  12.681  17.601  0.00  0.00    +0.000 OA
ATOM     24  H   UNL     1      -0.742  12.041  16.966  0.00  0.00    +0.000 HD
ENDBRANCH   5  23
BRANCH   6  25
ATOM     25  O   UNL     1      -0.296  10.028  18.775  0.00  0.00    +0.000 OA
ATOM     26  C   UNL     1       0.949   9.670  18.129  0.00  0.00    +0.000 C 
ENDBRANCH   6  25
BRANCH  17  27
ATOM     27  O   UNL     1      -5.130  13.451  24.500  0.00  0.00    +0.000 OA
ATOM     28  H   UNL     1      -5.300  13.317  25.459  0.00  0.00    +0.000 HD
ENDBRANCH  17  27
BRANCH  18  29
ATOM     29  O   UNL     1      -3.267  11.436  23.810  0.00  0.00    +0.000 OA
ATOM     30  H   UNL     1      -4.202  11.338  23.510  0.00  0.00    +0.000 HD
ENDBRANCH  18  29
TORSDOF 5
ENDMDL
MODEL 9
REMARK VINA RESULT:      -5.8      1.941      4.224
REMARK  Name = 
REMARK  7 active torsions:
REMARK  status: ('A' for Active; 'I' for Inactive)
REMARK    1  A    between atoms: C_1  and  O_2
REMARK    2  A    between atoms: O_2  and  C_3
REMARK    3  A    between atoms: C_7  and  O_8
REMARK    4  A    between atoms: C_9  and  O_10
REMARK    5  A    between atoms: O_10  and  C_11
REMARK    6  A    between atoms: C_22  and  O_23
REMARK    7  A    between atoms: C_24  and  O_25
REMARK                            x       y       z     vdW  Elec       q    Type
REMARK                         _______ _______ _______ _____ _____    ______ ____
ROOT
ATOM      1  C   UNL     1      -0.992  13.611  21.579  0.00  0.00    +0.000 A 
ATOM      2  C   UNL     1      -2.397  13.438  21.308  0.00  0.00    +0.000 A 
ATOM      3  C   UNL     1      -2.414  13.094  19.958  0.00  0.00    +0.000 A 
ATOM      4  C   UNL     1      -1.380  12.318  19.238  0.00  0.00    +0.000 A 
ATOM      5  C   UNL     1      -0.286  11.918  19.976  0.00  0.00    +0.000 A 
ATOM      6  C   UNL     1       0.061  12.709  21.054  0.00  0.00    +0.000 A 
ATOM      7  C   UNL     1      -1.603  11.823  17.751  0.00  0.00    +0.000 C 
ATOM      8  C   UNL     1      -3.077  11.647  17.800  0.00  0.00    +0.000 C 
ATOM      9  C   UNL     1      -4.492  11.316  17.460  0.00  0.00    +0.000 C 
ATOM     10  C   UNL     1      -5.123  11.608  18.849  0.00  0.00    +0.000 C 
ATOM     11  C   UNL     1      -6.418  11.026  19.246  0.00  0.00    +0.000 C 
ATOM     12  O   UNL     1      -7.161  10.390  18.519  0.00  0.00    +0.000 OA
ATOM     13  C   UNL     1      -6.762  11.331  20.645  0.00  0.00    +0.000 C 
ATOM     14  C   UNL     1      -7.169  12.614  20.686  0.00  0.00    +0.000 C 
ATOM     15  C   UNL     1      -6.460  13.489  21.661  0.00  0.00    +0.000 A 
ATOM     16  C   UNL     1      -6.848  13.017  22.889  0.00  0.00    +0.000 A 
ATOM     17  C   UNL     1      -5.798  12.581  23.649  0.00  0.00    +0.000 A 
ATOM     18  C   UNL     1      -4.383  12.926  23.343  0.00  0.00    +0.000 A 
ATOM     19  C   UNL     1      -3.890  13.487  22.110  0.00  0.00    +0.000 A 
ATOM     20  C   UNL     1      -5.055  13.863  21.374  0.00  0.00    +0.000 A 
ENDROOT
BRANCH   1  22
ATOM     21  C   UNL     1      -1.117  16.136  21.917  0.00  0.00    +0.000 C 
ATOM     22  O   UNL     1      -0.581  15.012  21.132  0.00  0.00    +0.000 OA
ENDBRANCH   1  22
BRANCH   5  23
ATOM     23  O   UNL     1       0.125  10.623  19.885  0.00  0.00    +0.000 OA
ATOM     24  H   UNL     1       0.856  10.689  19.231  0.00  0.00    +0.000 HD
ENDBRANCH   5  23
BRANCH   6  25
ATOM     25  O   UNL     1       1.364  12.856  21.498  0.00  0.00    +0.000 OA
ATOM     26  C   UNL     1       2.405  13.323  20.606  0.00  0.00    +0.000 C 
ENDBRANCH   6  25
BRANCH  17  27
ATOM     27  O   UNL     1      -6.136  11.807  24.738  0.00  0.00    +0.000 OA
ATOM     28  H   UNL     1      -5.344  11.294  25.013  0.00  0.00    +0.000 HD
ENDBRANCH  17  27
BRANCH  18  29
ATOM     29  O   UNL     1      -3.799  13.390  24.532  0.00  0.00    +0.000 OA
ATOM     30  H   UNL     1      -2.983  13.842  24.213  0.00  0.00    +0.000 HD
ENDBRANCH  18  29
TORSDOF 5
ENDMDL
