MODEL 1
REMARK VINA RESULT:      -8.3      0.000      0.000
REMARK  Name = 
REMARK  8 active torsions:
REMARK  status: ('A' for Active; 'I' for Inactive)
REMARK    1  A    between atoms: C_1  and  O_2
REMARK    2  A    between atoms: O_2  and  C_3
REMARK    3  A    between atoms: C_6  and  C_7
REMARK    4  A    between atoms: C_11  and  N_12
REMARK    5  A    between atoms: C_13  and  C_14
REMARK    6  A    between atoms: N_16  and  C_17
REMARK    7  A    between atoms: C_20  and  S_21
REMARK    8  A    between atoms: S_21  and  C_22
REMARK                            x       y       z     vdW  Elec       q    Type
REMARK                         _______ _______ _______ _____ _____    ______ ____
ROOT
ATOM      1  C   UNL     1      -1.082  11.344  22.576  0.00  0.00    +0.000 A 
ATOM      2  C   UNL     1      -0.797  10.226  23.359  0.00  0.00    +0.000 A 
ATOM      3  C   UNL     1      -0.054   9.174  22.827  0.00  0.00    +0.000 A 
ATOM      4  C   UNL     1       0.410   9.288  21.503  0.00  0.00    +0.000 A 
ATOM      5  C   UNL     1       1.195   8.427  20.669  0.00  0.00    +0.000 A 
ATOM      6  C   UNL     1       1.445   8.959  19.414  0.00  0.00    +0.000 A 
ATOM      7  S   UNL     1       0.692  10.494  19.245  0.00  0.00    +0.000 S 
ATOM      8  C   UNL     1       0.078  10.452  20.828  0.00  0.00    +0.000 A 
ATOM      9  N   UNL     1      -0.646  11.485  21.303  0.00  0.00    +0.000 NA
ENDROOT
BRANCH   1  13
ATOM     10  C   UNL     1      -3.469  14.617  24.064  0.00  0.00    +0.000 A 
ATOM     11  C   UNL     1      -2.118  14.802  23.783  0.00  0.00    +0.000 A 
ATOM     12  C   UNL     1      -1.345  13.742  23.291  0.00  0.00    +0.000 A 
ATOM     13  C   UNL     1      -1.899  12.465  23.092  0.00  0.00    +0.000 A 
ATOM     14  C   UNL     1      -3.261  12.302  23.397  0.00  0.00    +0.000 A 
ATOM     15  C   UNL     1      -4.036  13.359  23.884  0.00  0.00    +0.000 A 
BRANCH  10  17
ATOM     16  C   UNL     1      -5.470  15.866  24.068  0.00  0.00    +0.000 C 
ATOM     17  O   UNL     1      -4.135  15.713  24.542  0.00  0.00    +0.000 OA
ENDBRANCH  10  17
ENDBRANCH   1  13
BRANCH   6  18
ATOM     18  C   UNL     1       2.224   8.366  18.324  0.00  0.00    +0.000 C 
ATOM     19  O   UNL     1       2.247   8.879  17.206  0.00  0.00    +0.000 OA
ATOM     20  N   UNL     1       2.879   7.180  18.641  0.00  0.00    +0.000 N 
ATOM     21  H   UNL     1       2.670   6.796  19.556  0.00  0.00    +0.000 HD
BRANCH  20  22
ATOM     22  C   UNL     1       3.724   6.416  17.810  0.00  0.00    +0.000 A 
ATOM     23  C   UNL     1       4.851   6.935  17.180  0.00  0.00    +0.000 A 
ATOM     24  C   UNL     1       5.642   6.127  16.351  0.00  0.00    +0.000 A 
ATOM     25  C   UNL     1       5.326   4.784  16.138  0.00  0.00    +0.000 A 
ATOM     26  C   UNL     1       4.201   4.256  16.779  0.00  0.00    +0.000 A 
ATOM     27  C   UNL     1       3.414   5.063  17.619  0.00  0.00    +0.000 A 
BRANCH  25  28
ATOM     28  S   UNL     1       6.359   3.877  14.998  0.00  0.00    +0.000 S 
ATOM     29  C   UNL     1       5.430   3.987  13.449  0.00  0.00    +0.000 C 
ENDBRANCH  25  28
ENDBRANCH  20  22
ENDBRANCH   6  18
BRANCH   5  30
ATOM     30  N   UNL     1       1.651   7.226  21.086  0.00  0.00    +0.000 N 
ATOM     31  H   UNL     1       2.553   6.840  20.828  0.00  0.00    +0.000 HD
ATOM     32  H   UNL     1       1.085   6.620  21.685  0.00  0.00    +0.000 HD
ENDBRANCH   5  30
TORSDOF 6
ENDMDL
MODEL 2
REMARK VINA RESULT:      -8.2      0.481      1.012
REMARK  Name = 
REMARK  8 active torsions:
REMARK  status: ('A' for Active; 'I' for Inactive)
REMARK    1  A    between atoms: C_1  and  O_2
REMARK    2  A    between atoms: O_2  and  C_3
REMARK    3  A    between atoms: C_6  and  C_7
REMARK    4  A    between atoms: C_11  and  N_12
REMARK    5  A    between atoms: C_13  and  C_14
REMARK    6  A    between atoms: N_16  and  C_17
REMARK    7  A    between atoms: C_20  and  S_21
REMARK    8  A    between atoms: S_21  and  C_22
REMARK                            x       y       z     vdW  Elec       q    Type
REMARK                         _______ _______ _______ _____ _____    ______ ____
ROOT
ATOM      1  C   UNL     1      -1.199  11.345  22.474  0.00  0.00    +0.000 A 
ATOM      2  C   UNL     1      -0.834  10.284  23.303  0.00  0.00    +0.000 A 
ATOM      3  C   UNL     1      -0.043   9.251  22.806  0.00  0.00    +0.000 A 
ATOM      4  C   UNL     1       0.388   9.326  21.468  0.00  0.00    +0.000 A 
ATOM      5  C   UNL     1       1.205   8.471  20.660  0.00  0.00    +0.000 A 
ATOM      6  C   UNL     1       1.400   8.954  19.375  0.00  0.00    +0.000 A 
ATOM      7  S   UNL     1       0.557  10.434  19.149  0.00  0.00    +0.000 S 
ATOM      8  C   UNL     1      -0.024  10.435  20.746  0.00  0.00    +0.000 A 
ATOM      9  N   UNL     1      -0.796  11.447  21.186  0.00  0.00    +0.000 NA
ENDROOT
BRANCH   1  13
ATOM     10  C   UNL     1      -3.746  14.542  23.857  0.00  0.00    +0.000 A 
ATOM     11  C   UNL     1      -2.592  14.825  23.131  0.00  0.00    +0.000 A 
ATOM     12  C   UNL     1      -1.769  13.787  22.675  0.00  0.00    +0.000 A 
ATOM     13  C   UNL     1      -2.069  12.442  22.953  0.00  0.00    +0.000 A 
ATOM     14  C   UNL     1      -3.232  12.185  23.699  0.00  0.00    +0.000 A 
ATOM     15  C   UNL     1      -4.057  13.219  24.153  0.00  0.00    +0.000 A 
BRANCH  10  17
ATOM     16  C   UNL     1      -3.754  16.613  24.987  0.00  0.00    +0.000 C 
ATOM     17  O   UNL     1      -4.479  15.626  24.259  0.00  0.00    +0.000 OA
ENDBRANCH  10  17
ENDBRANCH   1  13
BRANCH   6  18
ATOM     18  C   UNL     1       2.191   8.353  18.298  0.00  0.00    +0.000 C 
ATOM     19  O   UNL     1       2.242   8.869  17.182  0.00  0.00    +0.000 OA
ATOM     20  N   UNL     1       2.822   7.157  18.624  0.00  0.00    +0.000 N 
ATOM     21  H   UNL     1       2.591   6.773  19.533  0.00  0.00    +0.000 HD
BRANCH  20  22
ATOM     22  C   UNL     1       3.671   6.383  17.806  0.00  0.00    +0.000 A 
ATOM     23  C   UNL     1       3.445   5.039  17.521  0.00  0.00    +0.000 A 
ATOM     24  C   UNL     1       4.336   4.320  16.713  0.00  0.00    +0.000 A 
ATOM     25  C   UNL     1       5.469   4.929  16.169  0.00  0.00    +0.000 A 
ATOM     26  C   UNL     1       5.694   6.281  16.442  0.00  0.00    +0.000 A 
ATOM     27  C   UNL     1       4.794   7.006  17.243  0.00  0.00    +0.000 A 
BRANCH  25  28
ATOM     28  S   UNL     1       6.575   3.891  15.225  0.00  0.00    +0.000 S 
ATOM     29  C   UNL     1       5.852   3.949  13.567  0.00  0.00    +0.000 C 
ENDBRANCH  25  28
ENDBRANCH  20  22
ENDBRANCH   6  18
BRANCH   5  30
ATOM     30  N   UNL     1       1.738   7.320  21.124  0.00  0.00    +0.000 N 
ATOM     31  H   UNL     1       1.368   6.398  20.919  0.00  0.00    +0.000 HD
ATOM     32  H   UNL     1       2.554   7.323  21.741  0.00  0.00    +0.000 HD
ENDBRANCH   5  30
TORSDOF 6
ENDMDL
MODEL 3
REMARK VINA RESULT:      -8.1      3.192     11.182
REMARK  Name = 
REMARK  8 active torsions:
REMARK  status: ('A' for Active; 'I' for Inactive)
REMARK    1  A    between atoms: C_1  and  O_2
REMARK    2  A    between atoms: O_2  and  C_3
REMARK    3  A    between atoms: C_6  and  C_7
REMARK    4  A    between atoms: C_11  and  N_12
REMARK    5  A    between atoms: C_13  and  C_14
REMARK    6  A    between atoms: N_16  and  C_17
REMARK    7  A    between atoms: C_20  and  S_21
REMARK    8  A    between atoms: S_21  and  C_22
REMARK                            x       y       z     vdW  Elec       q    Type
REMARK                         _______ _______ _______ _____ _____    ______ ____
ROOT
ATOM      1  C   UNL     1       2.292   7.572  19.020  0.00  0.00    +0.000 A 
ATOM      2  C   UNL     1       2.518   8.387  17.910  0.00  0.00    +0.000 A 
ATOM      3  C   UNL     1       1.940   9.652  17.845  0.00  0.00    +0.000 A 
ATOM      4  C   UNL     1       1.153  10.083  18.930  0.00  0.00    +0.000 A 
ATOM      5  C   UNL     1       0.444  11.298  19.196  0.00  0.00    +0.000 A 
ATOM      6  C   UNL     1      -0.190  11.305  20.429  0.00  0.00    +0.000 A 
ATOM      7  S   UNL     1       0.053   9.811  21.243  0.00  0.00    +0.000 S 
ATOM      8  C   UNL     1       1.012   9.193  19.984  0.00  0.00    +0.000 A 
ATOM      9  N   UNL     1       1.544   7.959  20.079  0.00  0.00    +0.000 NA
ENDROOT
BRANCH   1  13
ATOM     10  C   UNL     1       3.927   3.587  19.271  0.00  0.00    +0.000 A 
ATOM     11  C   UNL     1       2.931   3.996  20.153  0.00  0.00    +0.000 A 
ATOM     12  C   UNL     1       2.394   5.287  20.066  0.00  0.00    +0.000 A 
ATOM     13  C   UNL     1       2.856   6.207  19.110  0.00  0.00    +0.000 A 
ATOM     14  C   UNL     1       3.872   5.773  18.240  0.00  0.00    +0.000 A 
ATOM     15  C   UNL     1       4.408   4.484  18.322  0.00  0.00    +0.000 A 
BRANCH  10  17
ATOM     16  C   UNL     1       3.736   1.320  18.647  0.00  0.00    +0.000 C 
ATOM     17  O   UNL     1       4.386   2.309  19.440  0.00  0.00    +0.000 OA
ENDBRANCH  10  17
ENDBRANCH   1  13
BRANCH   6  18
ATOM     18  C   UNL     1      -0.981  12.382  21.029  0.00  0.00    +0.000 C 
ATOM     19  O   UNL     1      -0.507  13.506  21.189  0.00  0.00    +0.000 OA
ATOM     20  N   UNL     1      -2.263  12.021  21.433  0.00  0.00    +0.000 N 
ATOM     21  H   UNL     1      -2.481  11.033  21.365  0.00  0.00    +0.000 HD
BRANCH  20  22
ATOM     22  C   UNL     1      -3.250  12.852  22.000  0.00  0.00    +0.000 A 
ATOM     23  C   UNL     1      -3.534  12.884  23.363  0.00  0.00    +0.000 A 
ATOM     24  C   UNL     1      -4.540  13.722  23.864  0.00  0.00    +0.000 A 
ATOM     25  C   UNL     1      -5.281  14.547  23.015  0.00  0.00    +0.000 A 
ATOM     26  C   UNL     1      -4.991  14.527  21.648  0.00  0.00    +0.000 A 
ATOM     27  C   UNL     1      -3.974  13.696  21.146  0.00  0.00    +0.000 A 
BRANCH  25  28
ATOM     28  S   UNL     1      -6.592  15.507  23.756  0.00  0.00    +0.000 S 
ATOM     29  C   UNL     1      -7.824  14.246  24.166  0.00  0.00    +0.000 C 
ENDBRANCH  25  28
ENDBRANCH  20  22
ENDBRANCH   6  18
BRANCH   5  30
ATOM     30  N   UNL     1       0.420  12.333  18.328  0.00  0.00    +0.000 N 
ATOM     31  H   UNL     1       1.241  12.702  17.861  0.00  0.00    +0.000 HD
ATOM     32  H   UNL     1      -0.450  12.823  18.109  0.00  0.00    +0.000 HD
ENDBRANCH   5  30
TORSDOF 6
ENDMDL
MODEL 4
REMARK VINA RESULT:      -8.1      1.027      1.061
REMARK  Name = 
REMARK  8 active torsions:
REMARK  status: ('A' for Active; 'I' for Inactive)
REMARK    1  A    between atoms: C_1  and  O_2
REMARK    2  A    between atoms: O_2  and  C_3
REMARK    3  A    between atoms: C_6  and  C_7
REMARK    4  A    between atoms: C_11  and  N_12
REMARK    5  A    between atoms: C_13  and  C_14
REMARK    6  A    between atoms: N_16  and  C_17
REMARK    7  A    between atoms: C_20  and  S_21
REMARK    8  A    between atoms: S_21  and  C_22
REMARK                            x       y       z     vdW  Elec       q    Type
REMARK                         _______ _______ _______ _____ _____    ______ ____
ROOT
ATOM      1  C   UNL     1      -1.742  11.699  22.262  0.00  0.00    +0.000 A 
ATOM      2  C   UNL     1      -1.214  10.833  23.220  0.00  0.00    +0.000 A 
ATOM      3  C   UNL     1      -0.288   9.862  22.846  0.00  0.00    +0.000 A 
ATOM      4  C   UNL     1       0.108   9.801  21.496  0.00  0.00    +0.000 A 
ATOM      5  C   UNL     1       1.028   8.963  20.788  0.00  0.00    +0.000 A 
ATOM      6  C   UNL     1       1.131   9.277  19.442  0.00  0.00    +0.000 A 
ATOM      7  S   UNL     1       0.077  10.572  19.039  0.00  0.00    +0.000 S 
ATOM      8  C   UNL     1      -0.473  10.724  20.639  0.00  0.00    +0.000 A 
ATOM      9  N   UNL     1      -1.378  11.669  20.959  0.00  0.00    +0.000 NA
ENDROOT
BRANCH   1  13
ATOM     10  C   UNL     1      -4.710  14.663  23.274  0.00  0.00    +0.000 A 
ATOM     11  C   UNL     1      -3.956  14.791  22.111  0.00  0.00    +0.000 A 
ATOM     12  C   UNL     1      -2.998  13.824  21.778  0.00  0.00    +0.000 A 
ATOM     13  C   UNL     1      -2.756  12.719  22.612  0.00  0.00    +0.000 A 
ATOM     14  C   UNL     1      -3.521  12.621  23.787  0.00  0.00    +0.000 A 
ATOM     15  C   UNL     1      -4.480  13.583  24.120  0.00  0.00    +0.000 A 
BRANCH  10  17
ATOM     16  C   UNL     1      -5.253  16.582  24.535  0.00  0.00    +0.000 C 
ATOM     17  O   UNL     1      -5.616  15.661  23.510  0.00  0.00    +0.000 OA
ENDBRANCH  10  17
ENDBRANCH   1  13
BRANCH   6  18
ATOM     18  C   UNL     1       1.985   8.644  18.433  0.00  0.00    +0.000 C 
ATOM     19  O   UNL     1       2.283   9.230  17.394  0.00  0.00    +0.000 OA
ATOM     20  N   UNL     1       2.379   7.342  18.723  0.00  0.00    +0.000 N 
ATOM     21  H   UNL     1       1.956   6.930  19.548  0.00  0.00    +0.000 HD
BRANCH  20  22
ATOM     22  C   UNL     1       3.224   6.510  17.961  0.00  0.00    +0.000 A 
ATOM     23  C   UNL     1       4.274   6.991  17.183  0.00  0.00    +0.000 A 
ATOM     24  C   UNL     1       5.069   6.113  16.433  0.00  0.00    +0.000 A 
ATOM     25  C   UNL     1       4.835   4.736  16.449  0.00  0.00    +0.000 A 
ATOM     26  C   UNL     1       3.790   4.248  17.238  0.00  0.00    +0.000 A 
ATOM     27  C   UNL     1       3.000   5.127  18.000  0.00  0.00    +0.000 A 
BRANCH  25  28
ATOM     28  S   UNL     1       5.860   3.726  15.390  0.00  0.00    +0.000 S 
ATOM     29  C   UNL     1       7.142   4.887  14.857  0.00  0.00    +0.000 C 
ENDBRANCH  25  28
ENDBRANCH  20  22
ENDBRANCH   6  18
BRANCH   5  30
ATOM     30  N   UNL     1       1.731   7.980  21.392  0.00  0.00    +0.000 N 
ATOM     31  H   UNL     1       1.383   7.425  22.166  0.00  0.00    +0.000 HD
ATOM     32  H   UNL     1       2.685   7.753  21.102  0.00  0.00    +0.000 HD
ENDBRANCH   5  30
TORSDOF 6
ENDMDL
MODEL 5
REMARK VINA RESULT:      -7.9      3.279     11.144
REMARK  Name = 
REMARK  8 active torsions:
REMARK  status: ('A' for Active; 'I' for Inactive)
REMARK    1  A    between atoms: C_1  and  O_2
REMARK    2  A    between atoms: O_2  and  C_3
REMARK    3  A    between atoms: C_6  and  C_7
REMARK    4  A    between atoms: C_11  and  N_12
REMARK    5  A    between atoms: C_13  and  C_14
REMARK    6  A    between atoms: N_16  and  C_17
REMARK    7  A    between atoms: C_20  and  S_21
REMARK    8  A    between atoms: S_21  and  C_22
REMARK                            x       y       z     vdW  Elec       q    Type
REMARK                         _______ _______ _______ _____ _____    ______ ____
ROOT
ATOM      1  C   UNL     1       2.166   7.602  19.162  0.00  0.00    +0.000 A 
ATOM      2  C   UNL     1       2.393   8.298  17.975  0.00  0.00    +0.000 A 
ATOM      3  C   UNL     1       1.904   9.593  17.821  0.00  0.00    +0.000 A 
ATOM      4  C   UNL     1       1.205  10.174  18.896  0.00  0.00    +0.000 A 
ATOM      5  C   UNL     1       0.599  11.458  19.082  0.00  0.00    +0.000 A 
ATOM      6  C   UNL     1       0.030  11.620  20.336  0.00  0.00    +0.000 A 
ATOM      7  S   UNL     1       0.207  10.189  21.271  0.00  0.00    +0.000 S 
ATOM      8  C   UNL     1       1.055   9.393  20.032  0.00  0.00    +0.000 A 
ATOM      9  N   UNL     1       1.502   8.135  20.214  0.00  0.00    +0.000 NA
ENDROOT
BRANCH   1  13
ATOM     10  C   UNL     1       3.545   3.552  19.723  0.00  0.00    +0.000 A 
ATOM     11  C   UNL     1       4.154   4.380  18.784  0.00  0.00    +0.000 A 
ATOM     12  C   UNL     1       3.712   5.697  18.608  0.00  0.00    +0.000 A 
ATOM     13  C   UNL     1       2.635   6.212  19.351  0.00  0.00    +0.000 A 
ATOM     14  C   UNL     1       2.029   5.351  20.283  0.00  0.00    +0.000 A 
ATOM     15  C   UNL     1       2.471   4.037  20.463  0.00  0.00    +0.000 A 
BRANCH  10  17
ATOM     16  C   UNL     1       3.748   1.428  18.717  0.00  0.00    +0.000 C 
ATOM     17  O   UNL     1       4.049   2.283  19.817  0.00  0.00    +0.000 OA
ENDBRANCH  10  17
ENDBRANCH   1  13
BRANCH   6  18
ATOM     18  C   UNL     1      -0.651  12.802  20.870  0.00  0.00    +0.000 C 
ATOM     19  O   UNL     1      -0.274  13.937  20.584  0.00  0.00    +0.000 OA
ATOM     20  N   UNL     1      -1.703  12.536  21.741  0.00  0.00    +0.000 N 
ATOM     21  H   UNL     1      -1.825  11.562  21.996  0.00  0.00    +0.000 HD
BRANCH  20  22
ATOM     22  C   UNL     1      -2.553  13.468  22.370  0.00  0.00    +0.000 A 
ATOM     23  C   UNL     1      -3.545  14.176  21.697  0.00  0.00    +0.000 A 
ATOM     24  C   UNL     1      -4.349  15.102  22.377  0.00  0.00    +0.000 A 
ATOM     25  C   UNL     1      -4.181  15.337  23.743  0.00  0.00    +0.000 A 
ATOM     26  C   UNL     1      -3.195  14.619  24.425  0.00  0.00    +0.000 A 
ATOM     27  C   UNL     1      -2.397  13.681  23.747  0.00  0.00    +0.000 A 
BRANCH  25  28
ATOM     28  S   UNL     1      -5.207  16.598  24.482  0.00  0.00    +0.000 S 
ATOM     29  C   UNL     1      -3.989  17.725  25.205  0.00  0.00    +0.000 C 
ENDBRANCH  25  28
ENDBRANCH  20  22
ENDBRANCH   6  18
BRANCH   5  30
ATOM     30  N   UNL     1       0.605  12.412  18.126  0.00  0.00    +0.000 N 
ATOM     31  H   UNL     1       0.979  12.280  17.193  0.00  0.00    +0.000 HD
ATOM     32  H   UNL     1       0.240  13.350  18.308  0.00  0.00    +0.000 HD
ENDBRANCH   5  30
TORSDOF 6
ENDMDL
MODEL 6
REMARK VINA RESULT:      -7.9      1.117      1.463
REMARK  Name = 
REMARK  8 active torsions:
REMARK  status: ('A' for Active; 'I' for Inactive)
REMARK    1  A    between atoms: C_1  and  O_2
REMARK    2  A    between atoms: O_2  and  C_3
REMARK    3  A    between atoms: C_6  and  C_7
REMARK    4  A    between atoms: C_11  and  N_12
REMARK    5  A    between atoms: C_13  and  C_14
REMARK    6  A    between atoms: N_16  and  C_17
REMARK    7  A    between atoms: C_20  and  S_21
REMARK    8  A    between atoms: S_21  and  C_22
REMARK                            x       y       z     vdW  Elec       q    Type
REMARK                         _______ _______ _______ _____ _____    ______ ____
ROOT
ATOM      1  C   UNL     1      -1.812  11.820  22.216  0.00  0.00    +0.000 A 
ATOM      2  C   UNL     1      -1.224  11.024  23.199  0.00  0.00    +0.000 A 
ATOM      3  C   UNL     1      -0.283  10.061  22.846  0.00  0.00    +0.000 A 
ATOM      4  C   UNL     1       0.067   9.936  21.488  0.00  0.00    +0.000 A 
ATOM      5  C   UNL     1       0.987   9.086  20.793  0.00  0.00    +0.000 A 
ATOM      6  C   UNL     1       1.033   9.326  19.429  0.00  0.00    +0.000 A 
ATOM      7  S   UNL     1      -0.074  10.566  18.994  0.00  0.00    +0.000 S 
ATOM      8  C   UNL     1      -0.571  10.792  20.603  0.00  0.00    +0.000 A 
ATOM      9  N   UNL     1      -1.494  11.727  20.904  0.00  0.00    +0.000 NA
ENDROOT
BRANCH   1  13
ATOM     10  C   UNL     1      -4.831  14.753  23.168  0.00  0.00    +0.000 A 
ATOM     11  C   UNL     1      -3.906  14.997  22.156  0.00  0.00    +0.000 A 
ATOM     12  C   UNL     1      -2.931  14.041  21.841  0.00  0.00    +0.000 A 
ATOM     13  C   UNL     1      -2.843  12.828  22.546  0.00  0.00    +0.000 A 
ATOM     14  C   UNL     1      -3.780  12.612  23.571  0.00  0.00    +0.000 A 
ATOM     15  C   UNL     1      -4.757  13.563  23.885  0.00  0.00    +0.000 A 
BRANCH  10  17
ATOM     16  C   UNL     1      -7.041  15.519  22.868  0.00  0.00    +0.000 C 
ATOM     17  O   UNL     1      -5.739  15.749  23.399  0.00  0.00    +0.000 OA
ENDBRANCH  10  17
ENDBRANCH   1  13
BRANCH   6  18
ATOM     18  C   UNL     1       1.869   8.662  18.426  0.00  0.00    +0.000 C 
ATOM     19  O   UNL     1       2.140   9.212  17.359  0.00  0.00    +0.000 OA
ATOM     20  N   UNL     1       2.281   7.375  18.756  0.00  0.00    +0.000 N 
ATOM     21  H   UNL     1       1.879   6.991  19.604  0.00  0.00    +0.000 HD
BRANCH  20  22
ATOM     22  C   UNL     1       3.116   6.521  18.006  0.00  0.00    +0.000 A 
ATOM     23  C   UNL     1       2.897   5.152  17.881  0.00  0.00    +0.000 A 
ATOM     24  C   UNL     1       3.774   4.354  17.134  0.00  0.00    +0.000 A 
ATOM     25  C   UNL     1       4.886   4.907  16.494  0.00  0.00    +0.000 A 
ATOM     26  C   UNL     1       5.102   6.283  16.607  0.00  0.00    +0.000 A 
ATOM     27  C   UNL     1       4.215   7.086  17.346  0.00  0.00    +0.000 A 
BRANCH  25  28
ATOM     28  S   UNL     1       5.976   3.778  15.641  0.00  0.00    +0.000 S 
ATOM     29  C   UNL     1       7.034   4.895  14.687  0.00  0.00    +0.000 C 
ENDBRANCH  25  28
ENDBRANCH  20  22
ENDBRANCH   6  18
BRANCH   5  30
ATOM     30  N   UNL     1       1.740   8.159  21.424  0.00  0.00    +0.000 N 
ATOM     31  H   UNL     1       2.545   8.377  22.002  0.00  0.00    +0.000 HD
ATOM     32  H   UNL     1       1.543   7.159  21.330  0.00  0.00    +0.000 HD
ENDBRANCH   5  30
TORSDOF 6
ENDMDL
MODEL 7
REMARK VINA RESULT:      -7.9      2.494     11.221
REMARK  Name = 
REMARK  8 active torsions:
REMARK  status: ('A' for Active; 'I' for Inactive)
REMARK    1  A    between atoms: C_1  and  O_2
REMARK    2  A    between atoms: O_2  and  C_3
REMARK    3  A    between atoms: C_6  and  C_7
REMARK    4  A    between atoms: C_11  and  N_12
REMARK    5  A    between atoms: C_13  and  C_14
REMARK    6  A    between atoms: N_16  and  C_17
REMARK    7  A    between atoms: C_20  and  S_21
REMARK    8  A    between atoms: S_21  and  C_22
REMARK                            x       y       z     vdW  Elec       q    Type
REMARK                         _______ _______ _______ _____ _____    ______ ____
ROOT
ATOM      1  C   UNL     1       2.928   6.536  18.700  0.00  0.00    +0.000 A 
ATOM      2  C   UNL     1       2.545   5.923  19.892  0.00  0.00    +0.000 A 
ATOM      3  C   UNL     1       1.715   6.595  20.786  0.00  0.00    +0.000 A 
ATOM      4  C   UNL     1       1.265   7.883  20.440  0.00  0.00    +0.000 A 
ATOM      5  C   UNL     1       0.410   8.825  21.098  0.00  0.00    +0.000 A 
ATOM      6  C   UNL     1       0.210   9.986  20.368  0.00  0.00    +0.000 A 
ATOM      7  S   UNL     1       1.094   9.937  18.896  0.00  0.00    +0.000 S 
ATOM      8  C   UNL     1       1.699   8.384  19.222  0.00  0.00    +0.000 A 
ATOM      9  N   UNL     1       2.509   7.771  18.337  0.00  0.00    +0.000 NA
ENDROOT
BRANCH   1  13
ATOM     10  C   UNL     1       5.594   4.596  15.916  0.00  0.00    +0.000 A 
ATOM     11  C   UNL     1       5.539   5.985  15.987  0.00  0.00    +0.000 A 
ATOM     12  C   UNL     1       4.680   6.615  16.896  0.00  0.00    +0.000 A 
ATOM     13  C   UNL     1       3.838   5.871  17.741  0.00  0.00    +0.000 A 
ATOM     14  C   UNL     1       3.904   4.471  17.641  0.00  0.00    +0.000 A 
ATOM     15  C   UNL     1       4.763   3.839  16.736  0.00  0.00    +0.000 A 
BRANCH  10  17
ATOM     16  C   UNL     1       5.949   3.967  13.670  0.00  0.00    +0.000 C 
ATOM     17  O   UNL     1       6.463   4.079  14.995  0.00  0.00    +0.000 OA
ENDBRANCH  10  17
ENDBRANCH   1  13
BRANCH   6  18
ATOM     18  C   UNL     1      -0.615  11.143  20.726  0.00  0.00    +0.000 C 
ATOM     19  O   UNL     1      -1.239  11.768  19.870  0.00  0.00    +0.000 OA
ATOM     20  N   UNL     1      -0.595  11.491  22.073  0.00  0.00    +0.000 N 
ATOM     21  H   UNL     1       0.062  10.976  22.648  0.00  0.00    +0.000 HD
BRANCH  20  22
ATOM     22  C   UNL     1      -1.316  12.525  22.704  0.00  0.00    +0.000 A 
ATOM     23  C   UNL     1      -2.608  12.368  23.198  0.00  0.00    +0.000 A 
ATOM     24  C   UNL     1      -3.279  13.441  23.800  0.00  0.00    +0.000 A 
ATOM     25  C   UNL     1      -2.671  14.692  23.926  0.00  0.00    +0.000 A 
ATOM     26  C   UNL     1      -1.370  14.851  23.443  0.00  0.00    +0.000 A 
ATOM     27  C   UNL     1      -0.692  13.772  22.849  0.00  0.00    +0.000 A 
BRANCH  25  28
ATOM     28  S   UNL     1      -3.654  16.004  24.637  0.00  0.00    +0.000 S 
ATOM     29  C   UNL     1      -5.305  15.664  23.978  0.00  0.00    +0.000 C 
ENDBRANCH  25  28
ENDBRANCH  20  22
ENDBRANCH   6  18
BRANCH   5  30
ATOM     30  N   UNL     1      -0.150   8.583  22.303  0.00  0.00    +0.000 N 
ATOM     31  H   UNL     1      -0.992   8.033  22.439  0.00  0.00    +0.000 HD
ATOM     32  H   UNL     1       0.247   8.971  23.162  0.00  0.00    +0.000 HD
ENDBRANCH   5  30
TORSDOF 6
ENDMDL
MODEL 8
REMARK VINA RESULT:      -7.9      2.495     11.244
REMARK  Name = 
REMARK  8 active torsions:
REMARK  status: ('A' for Active; 'I' for Inactive)
REMARK    1  A    between atoms: C_1  and  O_2
REMARK    2  A    between atoms: O_2  and  C_3
REMARK    3  A    between atoms: C_6  and  C_7
REMARK    4  A    between atoms: C_11  and  N_12
REMARK    5  A    between atoms: C_13  and  C_14
REMARK    6  A    between atoms: N_16  and  C_17
REMARK    7  A    between atoms: C_20  and  S_21
REMARK    8  A    between atoms: S_21  and  C_22
REMARK                            x       y       z     vdW  Elec       q    Type
REMARK                         _______ _______ _______ _____ _____    ______ ____
ROOT
ATOM      1  C   UNL     1       2.985   6.543  18.616  0.00  0.00    +0.000 A 
ATOM      2  C   UNL     1       2.637   5.979  19.844  0.00  0.00    +0.000 A 
ATOM      3  C   UNL     1       1.845   6.693  20.740  0.00  0.00    +0.000 A 
ATOM      4  C   UNL     1       1.397   7.973  20.361  0.00  0.00    +0.000 A 
ATOM      5  C   UNL     1       0.574   8.948  21.011  0.00  0.00    +0.000 A 
ATOM      6  C   UNL     1       0.360  10.084  20.245  0.00  0.00    +0.000 A 
ATOM      7  S   UNL     1       1.193   9.970  18.746  0.00  0.00    +0.000 S 
ATOM      8  C   UNL     1       1.794   8.423  19.110  0.00  0.00    +0.000 A 
ATOM      9  N   UNL     1       2.566   7.768  18.222  0.00  0.00    +0.000 NA
ENDROOT
BRANCH   1  13
ATOM     10  C   UNL     1       5.511   4.472  15.797  0.00  0.00    +0.000 A 
ATOM     11  C   UNL     1       4.724   3.756  16.695  0.00  0.00    +0.000 A 
ATOM     12  C   UNL     1       3.897   4.428  17.605  0.00  0.00    +0.000 A 
ATOM     13  C   UNL     1       3.855   5.833  17.653  0.00  0.00    +0.000 A 
ATOM     14  C   UNL     1       4.670   6.531  16.745  0.00  0.00    +0.000 A 
ATOM     15  C   UNL     1       5.493   5.863  15.834  0.00  0.00    +0.000 A 
BRANCH  10  17
ATOM     16  C   UNL     1       6.143   4.028  13.568  0.00  0.00    +0.000 C 
ATOM     17  O   UNL     1       6.284   3.723  14.952  0.00  0.00    +0.000 OA
ENDBRANCH  10  17
ENDBRANCH   1  13
BRANCH   6  18
ATOM     18  C   UNL     1      -0.440  11.262  20.587  0.00  0.00    +0.000 C 
ATOM     19  O   UNL     1      -0.980  11.939  19.713  0.00  0.00    +0.000 OA
ATOM     20  N   UNL     1      -0.497  11.567  21.943  0.00  0.00    +0.000 N 
ATOM     21  H   UNL     1       0.100  11.008  22.543  0.00  0.00    +0.000 HD
BRANCH  20  22
ATOM     22  C   UNL     1      -1.216  12.611  22.560  0.00  0.00    +0.000 A 
ATOM     23  C   UNL     1      -0.677  13.870  22.810  0.00  0.00    +0.000 A 
ATOM     24  C   UNL     1      -1.440  14.861  23.442  0.00  0.00    +0.000 A 
ATOM     25  C   UNL     1      -2.758  14.618  23.833  0.00  0.00    +0.000 A 
ATOM     26  C   UNL     1      -3.308  13.360  23.572  0.00  0.00    +0.000 A 
ATOM     27  C   UNL     1      -2.547  12.368  22.927  0.00  0.00    +0.000 A 
BRANCH  25  28
ATOM     28  S   UNL     1      -3.603  15.929  24.704  0.00  0.00    +0.000 S 
ATOM     29  C   UNL     1      -5.289  15.812  24.056  0.00  0.00    +0.000 C 
ENDBRANCH  25  28
ENDBRANCH  20  22
ENDBRANCH   6  18
BRANCH   5  30
ATOM     30  N   UNL     1       0.053   8.758  22.243  0.00  0.00    +0.000 N 
ATOM     31  H   UNL     1       0.508   9.044  23.103  0.00  0.00    +0.000 HD
ATOM     32  H   UNL     1      -0.843   8.282  22.374  0.00  0.00    +0.000 HD
ENDBRANCH   5  30
TORSDOF 6
ENDMDL
MODEL 9
REMARK VINA RESULT:      -7.9      3.234     11.115
REMARK  Name = 
REMARK  8 active torsions:
REMARK  status: ('A' for Active; 'I' for Inactive)
REMARK    1  A    between atoms: C_1  and  O_2
REMARK    2  A    between atoms: O_2  and  C_3
REMARK    3  A    between atoms: C_6  and  C_7
REMARK    4  A    between atoms: C_11  and  N_12
REMARK    5  A    between atoms: C_13  and  C_14
REMARK    6  A    between atoms: N_16  and  C_17
REMARK    7  A    between atoms: C_20  and  S_21
REMARK    8  A    between atoms: S_21  and  C_22
REMARK                            x       y       z     vdW  Elec       q    Type
REMARK                         _______ _______ _______ _____ _____    ______ ____
ROOT
ATOM      1  C   UNL     1       2.208   7.505  19.108  0.00  0.00    +0.000 A 
ATOM      2  C   UNL     1       2.513   8.238  17.961  0.00  0.00    +0.000 A 
ATOM      3  C   UNL     1       2.050   9.545  17.825  0.00  0.00    +0.000 A 
ATOM      4  C   UNL     1       1.297  10.099  18.878  0.00  0.00    +0.000 A 
ATOM      5  C   UNL     1       0.697  11.384  19.074  0.00  0.00    +0.000 A 
ATOM      6  C   UNL     1       0.058  11.510  20.298  0.00  0.00    +0.000 A 
ATOM      7  S   UNL     1       0.163  10.045  21.190  0.00  0.00    +0.000 S 
ATOM      8  C   UNL     1       1.071   9.281  19.975  0.00  0.00    +0.000 A 
ATOM      9  N   UNL     1       1.491   8.011  20.138  0.00  0.00    +0.000 NA
ENDROOT
BRANCH   1  13
ATOM     10  C   UNL     1       3.504   3.419  19.600  0.00  0.00    +0.000 A 
ATOM     11  C   UNL     1       3.958   4.177  18.524  0.00  0.00    +0.000 A 
ATOM     12  C   UNL     1       3.544   5.506  18.368  0.00  0.00    +0.000 A 
ATOM     13  C   UNL     1       2.648   6.102  19.273  0.00  0.00    +0.000 A 
ATOM     14  C   UNL     1       2.195   5.311  20.344  0.00  0.00    +0.000 A 
ATOM     15  C   UNL     1       2.609   3.985  20.503  0.00  0.00    +0.000 A 
BRANCH  10  17
ATOM     16  C   UNL     1       3.709   1.340  18.503  0.00  0.00    +0.000 C 
ATOM     17  O   UNL     1       3.965   2.132  19.660  0.00  0.00    +0.000 OA
ENDBRANCH  10  17
ENDBRANCH   1  13
BRANCH   6  18
ATOM     18  C   UNL     1      -0.638  12.683  20.834  0.00  0.00    +0.000 C 
ATOM     19  O   UNL     1      -0.219  13.821  20.627  0.00  0.00    +0.000 OA
ATOM     20  N   UNL     1      -1.756  12.403  21.613  0.00  0.00    +0.000 N 
ATOM     21  H   UNL     1      -1.915  11.422  21.814  0.00  0.00    +0.000 HD
BRANCH  20  22
ATOM     22  C   UNL     1      -2.633  13.325  22.219  0.00  0.00    +0.000 A 
ATOM     23  C   UNL     1      -2.351  13.976  23.417  0.00  0.00    +0.000 A 
ATOM     24  C   UNL     1      -3.273  14.871  23.978  0.00  0.00    +0.000 A 
ATOM     25  C   UNL     1      -4.493  15.138  23.352  0.00  0.00    +0.000 A 
ATOM     26  C   UNL     1      -4.774  14.495  22.143  0.00  0.00    +0.000 A 
ATOM     27  C   UNL     1      -3.845  13.607  21.574  0.00  0.00    +0.000 A 
BRANCH  25  28
ATOM     28  S   UNL     1      -5.620  16.231  24.203  0.00  0.00    +0.000 S 
ATOM     29  C   UNL     1      -7.209  15.842  23.428  0.00  0.00    +0.000 C 
ENDBRANCH  25  28
ENDBRANCH  20  22
ENDBRANCH   6  18
BRANCH   5  30
ATOM     30  N   UNL     1       0.771  12.371  18.155  0.00  0.00    +0.000 N 
ATOM     31  H   UNL     1       1.405  13.161  18.217  0.00  0.00    +0.000 HD
ATOM     32  H   UNL     1       0.159  12.382  17.336  0.00  0.00    +0.000 HD
ENDBRANCH   5  30
TORSDOF 6
ENDMDL
