MODEL 1
REMARK VINA RESULT:      -6.5      0.000      0.000
REMARK  Name = 
REMARK  4 active torsions:
REMARK  status: ('A' for Active; 'I' for Inactive)
REMARK    1  A    between atoms: C_1  and  O_2
REMARK    2  A    between atoms: O_2  and  C_3
REMARK    3  A    between atoms: C_6  and  N_7
REMARK    4  A    between atoms: N_13  and  C_14
REMARK                            x       y       z     vdW  Elec       q    Type
REMARK                         _______ _______ _______ _____ _____    ______ ____
ROOT
ATOM      1  N   UNL     1      -2.447  14.722  21.813  0.00  0.00    +0.000 N 
ATOM      2  C   UNL     1      -2.098  14.893  23.182  0.00  0.00    +0.000 C 
ATOM      3  S   UNL     1      -2.699  16.112  24.171  0.00  0.00    +0.000 S 
ATOM      4  N   UNL     1      -1.345  13.880  23.753  0.00  0.00    +0.000 N 
ATOM      5  N   UNL     1      -1.258  12.612  23.201  0.00  0.00    +0.000 NA
ATOM      6  C   UNL     1      -1.407  12.588  21.902  0.00  0.00    +0.000 C 
ATOM      7  N   UNL     1      -0.988  11.520  21.153  0.00  0.00    +0.000 N 
ATOM      8  C   UNL     1       0.364  11.649  21.278  0.00  0.00    +0.000 C 
ATOM      9  O   UNL     1       1.148  10.811  21.675  0.00  0.00    +0.000 OA
ATOM     10  C   UNL     1       0.839  13.055  20.843  0.00  0.00    +0.000 A 
ATOM     11  C   UNL     1       2.112  13.016  20.260  0.00  0.00    +0.000 A 
ATOM     12  C   UNL     1       2.264  13.704  19.075  0.00  0.00    +0.000 A 
ATOM     13  C   UNL     1       1.203  14.495  18.607  0.00  0.00    +0.000 A 
ATOM     14  C   UNL     1      -0.003  14.722  19.356  0.00  0.00    +0.000 A 
ATOM     15  C   UNL     1      -0.217  14.022  20.537  0.00  0.00    +0.000 A 
ATOM     16  N   UNL     1      -1.548  13.740  21.141  0.00  0.00    +0.000 N 
ATOM     17  H   UNL     1      -1.157  13.940  24.752  0.00  0.00    +0.000 HD
ENDROOT
BRANCH   1  21
ATOM     18  C   UNL     1      -6.418  12.941  21.460  0.00  0.00    +0.000 A 
ATOM     19  C   UNL     1      -5.914  13.801  20.457  0.00  0.00    +0.000 A 
ATOM     20  C   UNL     1      -4.639  14.412  20.570  0.00  0.00    +0.000 A 
ATOM     21  C   UNL     1      -3.855  14.204  21.704  0.00  0.00    +0.000 A 
ATOM     22  C   UNL     1      -4.450  13.443  22.754  0.00  0.00    +0.000 A 
ATOM     23  C   UNL     1      -5.691  12.797  22.629  0.00  0.00    +0.000 A 
BRANCH  18  25
ATOM     24  C   UNL     1      -7.588  11.022  20.667  0.00  0.00    +0.000 C 
ATOM     25  O   UNL     1      -7.620  12.354  21.206  0.00  0.00    +0.000 OA
ENDBRANCH  18  25
ENDBRANCH   1  21
BRANCH   7  26
ATOM     26  C   UNL     1      -1.504  11.429  19.761  0.00  0.00    +0.000 A 
ATOM     27  C   UNL     1      -2.814  11.808  19.418  0.00  0.00    +0.000 A 
ATOM     28  C   UNL     1      -3.398  11.403  18.206  0.00  0.00    +0.000 A 
ATOM     29  C   UNL     1      -2.681  10.629  17.299  0.00  0.00    +0.000 A 
ATOM     30  C   UNL     1      -1.363  10.297  17.580  0.00  0.00    +0.000 A 
ATOM     31  C   UNL     1      -0.773  10.731  18.775  0.00  0.00    +0.000 A 
ENDBRANCH   7  26
TORSDOF 3
ENDMDL
MODEL 2
REMARK VINA RESULT:      -6.5     10.638     12.471
REMARK  Name = 
REMARK  4 active torsions:
REMARK  status: ('A' for Active; 'I' for Inactive)
REMARK    1  A    between atoms: C_1  and  O_2
REMARK    2  A    between atoms: O_2  and  C_3
REMARK    3  A    between atoms: C_6  and  N_7
REMARK    4  A    between atoms: N_13  and  C_14
REMARK                            x       y       z     vdW  Elec       q    Type
REMARK                         _______ _______ _______ _____ _____    ______ ____
ROOT
ATOM      1  N   UNL     1      10.361  14.645  19.697  0.00  0.00    +0.000 N 
ATOM      2  C   UNL     1      10.025  15.441  18.567  0.00  0.00    +0.000 C 
ATOM      3  S   UNL     1      10.913  15.489  17.141  0.00  0.00    +0.000 S 
ATOM      4  N   UNL     1       8.795  16.077  18.609  0.00  0.00    +0.000 N 
ATOM      5  N   UNL     1       7.780  15.683  19.468  0.00  0.00    +0.000 NA
ATOM      6  C   UNL     1       8.206  15.128  20.573  0.00  0.00    +0.000 C 
ATOM      7  N   UNL     1       7.402  15.024  21.678  0.00  0.00    +0.000 N 
ATOM      8  C   UNL     1       7.313  16.336  22.039  0.00  0.00    +0.000 C 
ATOM      9  O   UNL     1       6.300  16.985  22.201  0.00  0.00    +0.000 OA
ATOM     10  C   UNL     1       8.713  16.964  22.232  0.00  0.00    +0.000 A 
ATOM     11  C   UNL     1       8.710  17.940  23.238  0.00  0.00    +0.000 A 
ATOM     12  C   UNL     1       9.727  17.864  24.166  0.00  0.00    +0.000 A 
ATOM     13  C   UNL     1      10.754  16.926  23.975  0.00  0.00    +0.000 A 
ATOM     14  C   UNL     1      10.869  16.110  22.797  0.00  0.00    +0.000 A 
ATOM     15  C   UNL     1       9.850  16.124  21.853  0.00  0.00    +0.000 A 
ATOM     16  N   UNL     1       9.553  15.027  20.892  0.00  0.00    +0.000 N 
ATOM     17  H   UNL     1       8.497  16.581  17.776  0.00  0.00    +0.000 HD
ENDROOT
BRANCH   1  21
ATOM     18  C   UNL     1       9.280  10.487  18.918  0.00  0.00    +0.000 A 
ATOM     19  C   UNL     1      10.113  10.831  20.008  0.00  0.00    +0.000 A 
ATOM     20  C   UNL     1      10.498  12.173  20.258  0.00  0.00    +0.000 A 
ATOM     21  C   UNL     1      10.088  13.196  19.404  0.00  0.00    +0.000 A 
ATOM     22  C   UNL     1       9.365  12.797  18.241  0.00  0.00    +0.000 A 
ATOM     23  C   UNL     1       8.941  11.477  18.012  0.00  0.00    +0.000 A 
BRANCH  18  25
ATOM     24  C   UNL     1       7.976   8.842  17.790  0.00  0.00    +0.000 C 
ATOM     25  O   UNL     1       8.915   9.179  18.824  0.00  0.00    +0.000 OA
ENDBRANCH  18  25
ENDBRANCH   1  21
BRANCH   7  26
ATOM     26  C   UNL     1       7.842  14.086  22.745  0.00  0.00    +0.000 A 
ATOM     27  C   UNL     1       8.074  12.721  22.499  0.00  0.00    +0.000 A 
ATOM     28  C   UNL     1       8.146  11.791  23.549  0.00  0.00    +0.000 A 
ATOM     29  C   UNL     1       8.009  12.205  24.871  0.00  0.00    +0.000 A 
ATOM     30  C   UNL     1       7.848  13.555  25.149  0.00  0.00    +0.000 A 
ATOM     31  C   UNL     1       7.810  14.484  24.100  0.00  0.00    +0.000 A 
ENDBRANCH   7  26
TORSDOF 3
ENDMDL
MODEL 3
REMARK VINA RESULT:      -6.4      1.261      1.453
REMARK  Name = 
REMARK  4 active torsions:
REMARK  status: ('A' for Active; 'I' for Inactive)
REMARK    1  A    between atoms: C_1  and  O_2
REMARK    2  A    between atoms: O_2  and  C_3
REMARK    3  A    between atoms: C_6  and  N_7
REMARK    4  A    between atoms: N_13  and  C_14
REMARK                            x       y       z     vdW  Elec       q    Type
REMARK                         _______ _______ _______ _____ _____    ______ ____
ROOT
ATOM      1  N   UNL     1      -2.810  15.468  22.628  0.00  0.00    +0.000 N 
ATOM      2  C   UNL     1      -2.189  15.661  23.893  0.00  0.00    +0.000 C 
ATOM      3  S   UNL     1      -2.780  16.674  25.097  0.00  0.00    +0.000 S 
ATOM      4  N   UNL     1      -1.127  14.822  24.189  0.00  0.00    +0.000 N 
ATOM      5  N   UNL     1      -0.910  13.627  23.519  0.00  0.00    +0.000 NA
ATOM      6  C   UNL     1      -1.355  13.620  22.290  0.00  0.00    +0.000 C 
ATOM      7  N   UNL     1      -0.912  12.703  21.373  0.00  0.00    +0.000 N 
ATOM      8  C   UNL     1       0.373  13.128  21.205  0.00  0.00    +0.000 C 
ATOM      9  O   UNL     1       1.386  12.473  21.340  0.00  0.00    +0.000 OA
ATOM     10  C   UNL     1       0.426  14.620  20.802  0.00  0.00    +0.000 A 
ATOM     11  C   UNL     1       1.503  14.890  19.948  0.00  0.00    +0.000 A 
ATOM     12  C   UNL     1       1.221  15.640  18.826  0.00  0.00    +0.000 A 
ATOM     13  C   UNL     1      -0.062  16.189  18.680  0.00  0.00    +0.000 A 
ATOM     14  C   UNL     1      -1.075  16.111  19.697  0.00  0.00    +0.000 A 
ATOM     15  C   UNL     1      -0.851  15.336  20.828  0.00  0.00    +0.000 A 
ATOM     16  N   UNL     1      -1.911  14.739  21.686  0.00  0.00    +0.000 N 
ATOM     17  H   UNL     1      -0.724  14.884  25.122  0.00  0.00    +0.000 HD
ENDROOT
BRANCH   1  21
ATOM     18  C   UNL     1      -6.283  12.851  23.033  0.00  0.00    +0.000 A 
ATOM     19  C   UNL     1      -6.189  13.778  21.969  0.00  0.00    +0.000 A 
ATOM     20  C   UNL     1      -5.082  14.657  21.839  0.00  0.00    +0.000 A 
ATOM     21  C   UNL     1      -4.062  14.651  22.789  0.00  0.00    +0.000 A 
ATOM     22  C   UNL     1      -4.255  13.802  23.920  0.00  0.00    +0.000 A 
ATOM     23  C   UNL     1      -5.324  12.898  24.031  0.00  0.00    +0.000 A 
BRANCH  18  25
ATOM     24  C   UNL     1      -7.814  11.585  21.718  0.00  0.00    +0.000 C 
ATOM     25  O   UNL     1      -7.352  12.010  23.011  0.00  0.00    +0.000 OA
ENDBRANCH  18  25
ENDBRANCH   1  21
BRANCH   7  26
ATOM     26  C   UNL     1      -1.713  12.552  20.129  0.00  0.00    +0.000 A 
ATOM     27  C   UNL     1      -3.111  12.397  20.149  0.00  0.00    +0.000 A 
ATOM     28  C   UNL     1      -3.808  11.915  19.029  0.00  0.00    +0.000 A 
ATOM     29  C   UNL     1      -3.130  11.596  17.856  0.00  0.00    +0.000 A 
ATOM     30  C   UNL     1      -1.759  11.803  17.785  0.00  0.00    +0.000 A 
ATOM     31  C   UNL     1      -1.072  12.316  18.894  0.00  0.00    +0.000 A 
ENDBRANCH   7  26
TORSDOF 3
ENDMDL
MODEL 4
REMARK VINA RESULT:      -6.4     10.241     12.408
REMARK  Name = 
REMARK  4 active torsions:
REMARK  status: ('A' for Active; 'I' for Inactive)
REMARK    1  A    between atoms: C_1  and  O_2
REMARK    2  A    between atoms: O_2  and  C_3
REMARK    3  A    between atoms: C_6  and  N_7
REMARK    4  A    between atoms: N_13  and  C_14
REMARK                            x       y       z     vdW  Elec       q    Type
REMARK                         _______ _______ _______ _____ _____    ______ ____
ROOT
ATOM      1  N   UNL     1      10.518  14.156  19.081  0.00  0.00    +0.000 N 
ATOM      2  C   UNL     1      10.690  14.630  17.751  0.00  0.00    +0.000 C 
ATOM      3  S   UNL     1      11.866  14.070  16.688  0.00  0.00    +0.000 S 
ATOM      4  N   UNL     1       9.709  15.483  17.272  0.00  0.00    +0.000 N 
ATOM      5  N   UNL     1       8.452  15.575  17.851  0.00  0.00    +0.000 NA
ATOM      6  C   UNL     1       8.437  15.301  19.129  0.00  0.00    +0.000 C 
ATOM      7  N   UNL     1       7.399  15.695  19.933  0.00  0.00    +0.000 N 
ATOM      8  C   UNL     1       7.594  17.045  19.938  0.00  0.00    +0.000 C 
ATOM      9  O   UNL     1       6.790  17.904  19.632  0.00  0.00    +0.000 OA
ATOM     10  C   UNL     1       9.026  17.407  20.394  0.00  0.00    +0.000 A 
ATOM     11  C   UNL     1       9.056  18.618  21.099  0.00  0.00    +0.000 A 
ATOM     12  C   UNL     1       9.765  18.620  22.281  0.00  0.00    +0.000 A 
ATOM     13  C   UNL     1      10.508  17.481  22.631  0.00  0.00    +0.000 A 
ATOM     14  C   UNL     1      10.666  16.345  21.764  0.00  0.00    +0.000 A 
ATOM     15  C   UNL     1       9.943  16.282  20.580  0.00  0.00    +0.000 A 
ATOM     16  N   UNL     1       9.589  15.031  19.854  0.00  0.00    +0.000 N 
ATOM     17  H   UNL     1       9.766  15.764  16.295  0.00  0.00    +0.000 HD
ENDROOT
BRANCH   1  21
ATOM     18  C   UNL     1       9.098  10.028  18.993  0.00  0.00    +0.000 A 
ATOM     19  C   UNL     1       8.807  10.920  17.937  0.00  0.00    +0.000 A 
ATOM     20  C   UNL     1       9.234  12.273  17.963  0.00  0.00    +0.000 A 
ATOM     21  C   UNL     1       9.932  12.771  19.062  0.00  0.00    +0.000 A 
ATOM     22  C   UNL     1      10.090  11.883  20.167  0.00  0.00    +0.000 A 
ATOM     23  C   UNL     1       9.711  10.531  20.129  0.00  0.00    +0.000 A 
BRANCH  18  25
ATOM     24  C   UNL     1       7.831   8.469  17.712  0.00  0.00    +0.000 C 
ATOM     25  O   UNL     1       8.703   8.736  18.822  0.00  0.00    +0.000 OA
ENDBRANCH  18  25
ENDBRANCH   1  21
BRANCH   7  26
ATOM     26  C   UNL     1       7.299  15.050  21.270  0.00  0.00    +0.000 A 
ATOM     27  C   UNL     1       7.465  13.666  21.451  0.00  0.00    +0.000 A 
ATOM     28  C   UNL     1       7.035  13.026  22.625  0.00  0.00    +0.000 A 
ATOM     29  C   UNL     1       6.447  13.756  23.655  0.00  0.00    +0.000 A 
ATOM     30  C   UNL     1       6.332  15.134  23.532  0.00  0.00    +0.000 A 
ATOM     31  C   UNL     1       6.794  15.772  22.373  0.00  0.00    +0.000 A 
ENDBRANCH   7  26
TORSDOF 3
ENDMDL
MODEL 5
REMARK VINA RESULT:      -6.2     10.379     12.320
REMARK  Name = 
REMARK  4 active torsions:
REMARK  status: ('A' for Active; 'I' for Inactive)
REMARK    1  A    between atoms: C_1  and  O_2
REMARK    2  A    between atoms: O_2  and  C_3
REMARK    3  A    between atoms: C_6  and  N_7
REMARK    4  A    between atoms: N_13  and  C_14
REMARK                            x       y       z     vdW  Elec       q    Type
REMARK                         _______ _______ _______ _____ _____    ______ ____
ROOT
ATOM      1  N   UNL     1      10.318  14.334  19.596  0.00  0.00    +0.000 N 
ATOM      2  C   UNL     1      10.197  15.106  18.407  0.00  0.00    +0.000 C 
ATOM      3  S   UNL     1      11.280  15.048  17.122  0.00  0.00    +0.000 S 
ATOM      4  N   UNL     1       9.016  15.814  18.253  0.00  0.00    +0.000 N 
ATOM      5  N   UNL     1       7.867  15.512  18.967  0.00  0.00    +0.000 NA
ATOM      6  C   UNL     1       8.095  14.975  20.137  0.00  0.00    +0.000 C 
ATOM      7  N   UNL     1       7.138  14.959  21.117  0.00  0.00    +0.000 N 
ATOM      8  C   UNL     1       7.082  16.287  21.424  0.00  0.00    +0.000 C 
ATOM      9  O   UNL     1       6.099  17.000  21.420  0.00  0.00    +0.000 OA
ATOM     10  C   UNL     1       8.477  16.839  21.799  0.00  0.00    +0.000 A 
ATOM     11  C   UNL     1       8.393  17.850  22.766  0.00  0.00    +0.000 A 
ATOM     12  C   UNL     1       9.261  17.749  23.832  0.00  0.00    +0.000 A 
ATOM     13  C   UNL     1      10.243  16.747  23.818  0.00  0.00    +0.000 A 
ATOM     14  C   UNL     1      10.472  15.882  22.693  0.00  0.00    +0.000 A 
ATOM     15  C   UNL     1       9.601  15.920  21.612  0.00  0.00    +0.000 A 
ATOM     16  N   UNL     1       9.374  14.807  20.650  0.00  0.00    +0.000 N 
ATOM     17  H   UNL     1       8.872  16.302  17.372  0.00  0.00    +0.000 HD
ENDROOT
BRANCH   1  21
ATOM     18  C   UNL     1       9.105  10.208  18.840  0.00  0.00    +0.000 A 
ATOM     19  C   UNL     1       9.977  10.527  19.906  0.00  0.00    +0.000 A 
ATOM     20  C   UNL     1      10.405  11.858  20.148  0.00  0.00    +0.000 A 
ATOM     21  C   UNL     1       9.999  12.893  19.308  0.00  0.00    +0.000 A 
ATOM     22  C   UNL     1       9.232  12.517  18.165  0.00  0.00    +0.000 A 
ATOM     23  C   UNL     1       8.767  11.210  17.946  0.00  0.00    +0.000 A 
BRANCH  18  25
ATOM     24  C   UNL     1       7.840   8.572  17.657  0.00  0.00    +0.000 C 
ATOM     25  O   UNL     1       8.703   8.911  18.754  0.00  0.00    +0.000 OA
ENDBRANCH  18  25
ENDBRANCH   1  21
BRANCH   7  26
ATOM     26  C   UNL     1       7.361  14.038  22.264  0.00  0.00    +0.000 A 
ATOM     27  C   UNL     1       7.301  14.472  23.600  0.00  0.00    +0.000 A 
ATOM     28  C   UNL     1       7.844  13.702  24.642  0.00  0.00    +0.000 A 
ATOM     29  C   UNL     1       8.440  12.472  24.378  0.00  0.00    +0.000 A 
ATOM     30  C   UNL     1       8.452  11.987  23.078  0.00  0.00    +0.000 A 
ATOM     31  C   UNL     1       7.880  12.743  22.046  0.00  0.00    +0.000 A 
ENDBRANCH   7  26
TORSDOF 3
ENDMDL
MODEL 6
REMARK VINA RESULT:      -6.2      3.511      6.995
REMARK  Name = 
REMARK  4 active torsions:
REMARK  status: ('A' for Active; 'I' for Inactive)
REMARK    1  A    between atoms: C_1  and  O_2
REMARK    2  A    between atoms: O_2  and  C_3
REMARK    3  A    between atoms: C_6  and  N_7
REMARK    4  A    between atoms: N_13  and  C_14
REMARK                            x       y       z     vdW  Elec       q    Type
REMARK                         _______ _______ _______ _____ _____    ______ ____
ROOT
ATOM      1  N   UNL     1      -2.617  13.751  22.133  0.00  0.00    +0.000 N 
ATOM      2  C   UNL     1      -2.088  12.478  22.483  0.00  0.00    +0.000 C 
ATOM      3  S   UNL     1      -0.522  11.973  22.139  0.00  0.00    +0.000 S 
ATOM      4  N   UNL     1      -2.878  11.691  23.304  0.00  0.00    +0.000 N 
ATOM      5  N   UNL     1      -3.912  12.211  24.067  0.00  0.00    +0.000 NA
ATOM      6  C   UNL     1      -4.460  13.283  23.556  0.00  0.00    +0.000 C 
ATOM      7  N   UNL     1      -5.702  13.708  23.949  0.00  0.00    +0.000 N 
ATOM      8  C   UNL     1      -6.477  12.718  23.421  0.00  0.00    +0.000 C 
ATOM      9  O   UNL     1      -7.276  12.019  24.010  0.00  0.00    +0.000 OA
ATOM     10  C   UNL     1      -6.227  12.554  21.904  0.00  0.00    +0.000 A 
ATOM     11  C   UNL     1      -7.389  12.167  21.224  0.00  0.00    +0.000 A 
ATOM     12  C   UNL     1      -7.687  12.866  20.074  0.00  0.00    +0.000 A 
ATOM     13  C   UNL     1      -6.762  13.805  19.590  0.00  0.00    +0.000 A 
ATOM     14  C   UNL     1      -5.460  14.000  20.167  0.00  0.00    +0.000 A 
ATOM     15  C   UNL     1      -5.129  13.346  21.347  0.00  0.00    +0.000 A 
ATOM     16  N   UNL     1      -4.096  13.796  22.320  0.00  0.00    +0.000 N 
ATOM     17  H   UNL     1      -2.483  10.814  23.637  0.00  0.00    +0.000 HD
ENDROOT
BRANCH   1  21
ATOM     18  C   UNL     1      -1.107  16.821  24.848  0.00  0.00    +0.000 A 
ATOM     19  C   UNL     1      -1.502  17.145  23.530  0.00  0.00    +0.000 A 
ATOM     20  C   UNL     1      -1.967  16.156  22.625  0.00  0.00    +0.000 A 
ATOM     21  C   UNL     1      -2.013  14.816  23.007  0.00  0.00    +0.000 A 
ATOM     22  C   UNL     1      -1.479  14.506  24.293  0.00  0.00    +0.000 A 
ATOM     23  C   UNL     1      -1.062  15.486  25.210  0.00  0.00    +0.000 A 
BRANCH  18  25
ATOM     24  C   UNL     1      -0.624  17.587  27.052  0.00  0.00    +0.000 C 
ATOM     25  O   UNL     1      -0.752  17.864  25.647  0.00  0.00    +0.000 OA
ENDBRANCH  18  25
ENDBRANCH   1  21
BRANCH   7  26
ATOM     26  C   UNL     1      -6.086  15.098  23.582  0.00  0.00    +0.000 A 
ATOM     27  C   UNL     1      -5.297  16.211  23.921  0.00  0.00    +0.000 A 
ATOM     28  C   UNL     1      -5.819  17.514  23.885  0.00  0.00    +0.000 A 
ATOM     29  C   UNL     1      -7.134  17.740  23.488  0.00  0.00    +0.000 A 
ATOM     30  C   UNL     1      -7.915  16.667  23.082  0.00  0.00    +0.000 A 
ATOM     31  C   UNL     1      -7.380  15.372  23.088  0.00  0.00    +0.000 A 
ENDBRANCH   7  26
TORSDOF 3
ENDMDL
MODEL 7
REMARK VINA RESULT:      -6.2      9.901     11.562
REMARK  Name = 
REMARK  4 active torsions:
REMARK  status: ('A' for Active; 'I' for Inactive)
REMARK    1  A    between atoms: C_1  and  O_2
REMARK    2  A    between atoms: O_2  and  C_3
REMARK    3  A    between atoms: C_6  and  N_7
REMARK    4  A    between atoms: N_13  and  C_14
REMARK                            x       y       z     vdW  Elec       q    Type
REMARK                         _______ _______ _______ _____ _____    ______ ____
ROOT
ATOM      1  N   UNL     1       7.599  15.392  22.593  0.00  0.00    +0.000 N 
ATOM      2  C   UNL     1       8.033  16.488  23.389  0.00  0.00    +0.000 C 
ATOM      3  S   UNL     1       7.070  17.291  24.508  0.00  0.00    +0.000 S 
ATOM      4  N   UNL     1       9.386  16.783  23.340  0.00  0.00    +0.000 N 
ATOM      5  N   UNL     1      10.332  15.875  22.890  0.00  0.00    +0.000 NA
ATOM      6  C   UNL     1       9.873  15.022  22.011  0.00  0.00    +0.000 C 
ATOM      7  N   UNL     1      10.713  14.317  21.191  0.00  0.00    +0.000 N 
ATOM      8  C   UNL     1      11.174  15.322  20.392  0.00  0.00    +0.000 C 
ATOM      9  O   UNL     1      12.332  15.625  20.189  0.00  0.00    +0.000 OA
ATOM     10  C   UNL     1      10.011  16.093  19.727  0.00  0.00    +0.000 A 
ATOM     11  C   UNL     1      10.356  16.555  18.450  0.00  0.00    +0.000 A 
ATOM     12  C   UNL     1       9.439  16.324  17.448  0.00  0.00    +0.000 A 
ATOM     13  C   UNL     1       8.189  15.778  17.781  0.00  0.00    +0.000 A 
ATOM     14  C   UNL     1       7.763  15.550  19.135  0.00  0.00    +0.000 A 
ATOM     15  C   UNL     1       8.665  15.733  20.176  0.00  0.00    +0.000 A 
ATOM     16  N   UNL     1       8.579  15.082  21.512  0.00  0.00    +0.000 N 
ATOM     17  H   UNL     1       9.733  17.507  23.967  0.00  0.00    +0.000 HD
ENDROOT
BRANCH   1  21
ATOM     18  C   UNL     1       6.902  11.913  25.139  0.00  0.00    +0.000 A 
ATOM     19  C   UNL     1       7.832  12.912  25.510  0.00  0.00    +0.000 A 
ATOM     20  C   UNL     1       8.093  14.034  24.680  0.00  0.00    +0.000 A 
ATOM     21  C   UNL     1       7.456  14.162  23.447  0.00  0.00    +0.000 A 
ATOM     22  C   UNL     1       6.630  13.071  23.044  0.00  0.00    +0.000 A 
ATOM     23  C   UNL     1       6.332  11.982  23.880  0.00  0.00    +0.000 A 
BRANCH  18  25
ATOM     24  C   UNL     1       6.328  11.340  27.379  0.00  0.00    +0.000 C 
ATOM     25  O   UNL     1       6.680  10.926  26.049  0.00  0.00    +0.000 OA
ENDBRANCH  18  25
ENDBRANCH   1  21
BRANCH   7  26
ATOM     26  C   UNL     1      10.137  13.141  20.485  0.00  0.00    +0.000 A 
ATOM     27  C   UNL     1       9.514  12.083  21.171  0.00  0.00    +0.000 A 
ATOM     28  C   UNL     1       9.290  10.843  20.552  0.00  0.00    +0.000 A 
ATOM     29  C   UNL     1       9.662  10.635  19.227  0.00  0.00    +0.000 A 
ATOM     30  C   UNL     1      10.217  11.683  18.504  0.00  0.00    +0.000 A 
ATOM     31  C   UNL     1      10.408  12.929  19.116  0.00  0.00    +0.000 A 
ENDBRANCH   7  26
TORSDOF 3
ENDMDL
MODEL 8
REMARK VINA RESULT:      -6.1      2.964      4.999
REMARK  Name = 
REMARK  4 active torsions:
REMARK  status: ('A' for Active; 'I' for Inactive)
REMARK    1  A    between atoms: C_1  and  O_2
REMARK    2  A    between atoms: O_2  and  C_3
REMARK    3  A    between atoms: C_6  and  N_7
REMARK    4  A    between atoms: N_13  and  C_14
REMARK                            x       y       z     vdW  Elec       q    Type
REMARK                         _______ _______ _______ _____ _____    ______ ____
ROOT
ATOM      1  N   UNL     1      -1.788  13.358  21.225  0.00  0.00    +0.000 N 
ATOM      2  C   UNL     1      -2.530  13.671  22.398  0.00  0.00    +0.000 C 
ATOM      3  S   UNL     1      -4.042  13.035  22.765  0.00  0.00    +0.000 S 
ATOM      4  N   UNL     1      -1.869  14.418  23.360  0.00  0.00    +0.000 N 
ATOM      5  N   UNL     1      -0.487  14.528  23.400  0.00  0.00    +0.000 NA
ATOM      6  C   UNL     1       0.088  14.412  22.231  0.00  0.00    +0.000 C 
ATOM      7  N   UNL     1       1.365  14.858  22.015  0.00  0.00    +0.000 N 
ATOM      8  C   UNL     1       1.171  16.206  22.100  0.00  0.00    +0.000 C 
ATOM      9  O   UNL     1       1.747  16.985  22.830  0.00  0.00    +0.000 OA
ATOM     10  C   UNL     1       0.074  16.680  21.119  0.00  0.00    +0.000 A 
ATOM     11  C   UNL     1       0.334  17.969  20.632  0.00  0.00    +0.000 A 
ATOM     12  C   UNL     1       0.211  18.145  19.271  0.00  0.00    +0.000 A 
ATOM     13  C   UNL     1      -0.288  17.090  18.491  0.00  0.00    +0.000 A 
ATOM     14  C   UNL     1      -0.790  15.864  19.049  0.00  0.00    +0.000 A 
ATOM     15  C   UNL     1      -0.652  15.626  20.410  0.00  0.00    +0.000 A 
ATOM     16  N   UNL     1      -0.630  14.281  21.051  0.00  0.00    +0.000 N 
ATOM     17  H   UNL     1      -2.350  14.579  24.242  0.00  0.00    +0.000 HD
ENDROOT
BRANCH   1  21
ATOM     18  C   UNL     1       0.047   9.411  21.574  0.00  0.00    +0.000 A 
ATOM     19  C   UNL     1      -0.351   9.921  20.316  0.00  0.00    +0.000 A 
ATOM     20  C   UNL     1      -0.976  11.188  20.188  0.00  0.00    +0.000 A 
ATOM     21  C   UNL     1      -1.248  11.958  21.318  0.00  0.00    +0.000 A 
ATOM     22  C   UNL     1      -0.958  11.356  22.579  0.00  0.00    +0.000 A 
ATOM     23  C   UNL     1      -0.297  10.123  22.710  0.00  0.00    +0.000 A 
BRANCH  18  25
ATOM     24  C   UNL     1       1.627   7.999  20.483  0.00  0.00    +0.000 C 
ATOM     25  O   UNL     1       0.706   8.220  21.563  0.00  0.00    +0.000 OA
ENDBRANCH  18  25
ENDBRANCH   1  21
BRANCH   7  26
ATOM     26  C   UNL     1       2.047  14.378  20.783  0.00  0.00    +0.000 A 
ATOM     27  C   UNL     1       2.686  15.254  19.887  0.00  0.00    +0.000 A 
ATOM     28  C   UNL     1       3.015  14.852  18.582  0.00  0.00    +0.000 A 
ATOM     29  C   UNL     1       2.734  13.559  18.147  0.00  0.00    +0.000 A 
ATOM     30  C   UNL     1       2.166  12.653  19.032  0.00  0.00    +0.000 A 
ATOM     31  C   UNL     1       1.870  13.048  20.343  0.00  0.00    +0.000 A 
ENDBRANCH   7  26
TORSDOF 3
ENDMDL
MODEL 9
REMARK VINA RESULT:      -6.1      2.586      6.492
REMARK  Name = 
REMARK  4 active torsions:
REMARK  status: ('A' for Active; 'I' for Inactive)
REMARK    1  A    between atoms: C_1  and  O_2
REMARK    2  A    between atoms: O_2  and  C_3
REMARK    3  A    between atoms: C_6  and  N_7
REMARK    4  A    between atoms: N_13  and  C_14
REMARK                            x       y       z     vdW  Elec       q    Type
REMARK                         _______ _______ _______ _____ _____    ______ ____
ROOT
ATOM      1  N   UNL     1      -0.744  11.624  20.422  0.00  0.00    +0.000 N 
ATOM      2  C   UNL     1      -0.421  10.700  21.454  0.00  0.00    +0.000 C 
ATOM      3  S   UNL     1       0.380   9.243  21.208  0.00  0.00    +0.000 S 
ATOM      4  N   UNL     1      -0.640  11.131  22.752  0.00  0.00    +0.000 N 
ATOM      5  N   UNL     1      -0.778  12.470  23.081  0.00  0.00    +0.000 NA
ATOM      6  C   UNL     1      -1.266  13.206  22.116  0.00  0.00    +0.000 C 
ATOM      7  N   UNL     1      -1.817  14.436  22.362  0.00  0.00    +0.000 N 
ATOM      8  C   UNL     1      -2.947  14.067  23.031  0.00  0.00    +0.000 C 
ATOM      9  O   UNL     1      -3.303  14.441  24.130  0.00  0.00    +0.000 OA
ATOM     10  C   UNL     1      -3.786  13.061  22.211  0.00  0.00    +0.000 A 
ATOM     11  C   UNL     1      -5.159  13.223  22.437  0.00  0.00    +0.000 A 
ATOM     12  C   UNL     1      -5.964  13.261  21.318  0.00  0.00    +0.000 A 
ATOM     13  C   UNL     1      -5.394  13.004  20.062  0.00  0.00    +0.000 A 
ATOM     14  C   UNL     1      -4.030  12.588  19.884  0.00  0.00    +0.000 A 
ATOM     15  C   UNL     1      -3.172  12.571  20.976  0.00  0.00    +0.000 A 
ATOM     16  N   UNL     1      -1.687  12.673  20.906  0.00  0.00    +0.000 N 
ATOM     17  H   UNL     1      -0.335  10.520  23.508  0.00  0.00    +0.000 HD
ENDROOT
BRANCH   1  21
ATOM     18  C   UNL     1       2.774  13.884  19.163  0.00  0.00    +0.000 A 
ATOM     19  C   UNL     1       1.826  13.427  18.219  0.00  0.00    +0.000 A 
ATOM     20  C   UNL     1       0.693  12.666  18.607  0.00  0.00    +0.000 A 
ATOM     21  C   UNL     1       0.502  12.316  19.942  0.00  0.00    +0.000 A 
ATOM     22  C   UNL     1       1.546  12.676  20.846  0.00  0.00    +0.000 A 
ATOM     23  C   UNL     1       2.646  13.468  20.477  0.00  0.00    +0.000 A 
BRANCH  18  25
ATOM     24  C   UNL     1       3.456  15.521  17.570  0.00  0.00    +0.000 C 
ATOM     25  O   UNL     1       3.777  14.670  18.682  0.00  0.00    +0.000 OA
ENDBRANCH  18  25
ENDBRANCH   1  21
BRANCH   7  26
ATOM     26  C   UNL     1      -2.020  15.330  21.190  0.00  0.00    +0.000 A 
ATOM     27  C   UNL     1      -0.992  15.614  20.274  0.00  0.00    +0.000 A 
ATOM     28  C   UNL     1      -1.081  16.704  19.393  0.00  0.00    +0.000 A 
ATOM     29  C   UNL     1      -2.207  17.523  19.389  0.00  0.00    +0.000 A 
ATOM     30  C   UNL     1      -3.267  17.225  20.235  0.00  0.00    +0.000 A 
ATOM     31  C   UNL     1      -3.188  16.117  21.089  0.00  0.00    +0.000 A 
ENDBRANCH   7  26
TORSDOF 3
ENDMDL
