MODEL 1
REMARK VINA RESULT:      -6.9      0.000      0.000
REMARK  Name = 
REMARK  7 active torsions:
REMARK  status: ('A' for Active; 'I' for Inactive)
REMARK    1  A    between atoms: C_1  and  C_2
REMARK    2  A    between atoms: C_2  and  O_3
REMARK    3  A    between atoms: O_3  and  C_4
REMARK    4  A    between atoms: C_4  and  C_6
REMARK    5  A    between atoms: C_7  and  C_8
REMARK    6  A    between atoms: C_11  and  C_12
REMARK    7  A    between atoms: N_16  and  C_17
REMARK                            x       y       z     vdW  Elec       q    Type
REMARK                         _______ _______ _______ _____ _____    ______ ____
ROOT
ATOM      1  C   UNL     1       6.828   6.432  18.361  0.00  0.00    +0.000 A 
ATOM      2  C   UNL     1       7.130   5.510  19.351  0.00  0.00    +0.000 A 
ATOM      3  C   UNL     1       8.437   5.156  19.959  0.00  0.00    +0.000 C 
ATOM      4  N   UNL     1       5.997   4.850  19.769  0.00  0.00    +0.000 NA
ATOM      5  C   UNL     1       5.006   5.347  19.054  0.00  0.00    +0.000 A 
ATOM      6  C   UNL     1       3.612   4.980  19.010  0.00  0.00    +0.000 A 
ATOM      7  C   UNL     1       2.813   5.687  18.170  0.00  0.00    +0.000 A 
ATOM      8  C   UNL     1       3.302   6.749  17.317  0.00  0.00    +0.000 A 
ATOM      9  C   UNL     1       4.608   7.051  17.344  0.00  0.00    +0.000 A 
ATOM     10  N   UNL     1       5.455   6.354  18.207  0.00  0.00    +0.000 N 
ENDROOT
BRANCH   6  11
ATOM     11  C   UNL     1       3.068   3.791  19.794  0.00  0.00    +0.000 C 
ATOM     12  C   UNL     1       2.045   4.220  20.851  0.00  0.00    +0.000 C 
ATOM     13  C   UNL     1       1.130   3.014  21.037  0.00  0.00    +0.000 C 
ATOM     14  C   UNL     1       1.605   1.987  20.022  0.00  0.00    +0.000 C 
ATOM     15  N   UNL     1       2.303   2.791  19.016  0.00  0.00    +0.000 NA
ATOM     16  C   UNL     1       3.156   1.963  18.170  0.00  0.00    +0.000 C 
ENDBRANCH   6  11
BRANCH   1  17
ATOM     17  C   UNL     1       7.677   7.268  17.559  0.00  0.00    +0.000 C 
ATOM     18  O   UNL     1       7.891   7.135  16.361  0.00  0.00    +0.000 OA
BRANCH  17  19
ATOM     19  O   UNL     1       8.347   8.132  18.370  0.00  0.00    +0.000 OA
BRANCH  19  21
ATOM     20  C   UNL     1       9.189  10.309  18.894  0.00  0.00    +0.000 C 
ATOM     21  C   UNL     1       8.266   9.511  17.988  0.00  0.00    +0.000 C 
ENDBRANCH  19  21
ENDBRANCH  17  19
ENDBRANCH   1  17
TORSDOF 4
ENDMDL
MODEL 2
REMARK VINA RESULT:      -6.7      1.154      2.089
REMARK  Name = 
REMARK  7 active torsions:
REMARK  status: ('A' for Active; 'I' for Inactive)
REMARK    1  A    between atoms: C_1  and  C_2
REMARK    2  A    between atoms: C_2  and  O_3
REMARK    3  A    between atoms: O_3  and  C_4
REMARK    4  A    between atoms: C_4  and  C_6
REMARK    5  A    between atoms: C_7  and  C_8
REMARK    6  A    between atoms: C_11  and  C_12
REMARK    7  A    between atoms: N_16  and  C_17
REMARK                            x       y       z     vdW  Elec       q    Type
REMARK                         _______ _______ _______ _____ _____    ______ ____
ROOT
ATOM      1  C   UNL     1       6.635   6.411  18.099  0.00  0.00    +0.000 A 
ATOM      2  C   UNL     1       7.060   5.535  19.086  0.00  0.00    +0.000 A 
ATOM      3  C   UNL     1       8.434   5.196  19.535  0.00  0.00    +0.000 C 
ATOM      4  N   UNL     1       5.989   4.909  19.680  0.00  0.00    +0.000 NA
ATOM      5  C   UNL     1       4.915   5.381  19.077  0.00  0.00    +0.000 A 
ATOM      6  C   UNL     1       3.525   5.028  19.233  0.00  0.00    +0.000 A 
ATOM      7  C   UNL     1       2.626   5.701  18.471  0.00  0.00    +0.000 A 
ATOM      8  C   UNL     1       3.004   6.715  17.510  0.00  0.00    +0.000 A 
ATOM      9  C   UNL     1       4.304   7.003  17.351  0.00  0.00    +0.000 A 
ATOM     10  N   UNL     1       5.254   6.341  18.129  0.00  0.00    +0.000 N 
ENDROOT
BRANCH   6  11
ATOM     11  C   UNL     1       3.083   3.885  20.140  0.00  0.00    +0.000 C 
ATOM     12  C   UNL     1       1.978   4.316  21.110  0.00  0.00    +0.000 C 
ATOM     13  C   UNL     1       1.193   3.044  21.416  0.00  0.00    +0.000 C 
ATOM     14  C   UNL     1       1.818   1.966  20.545  0.00  0.00    +0.000 C 
ATOM     15  N   UNL     1       2.464   2.720  19.469  0.00  0.00    +0.000 NA
ATOM     16  C   UNL     1       3.436   1.900  18.752  0.00  0.00    +0.000 C 
ENDBRANCH   6  11
BRANCH   1  17
ATOM     17  C   UNL     1       7.376   7.197  17.152  0.00  0.00    +0.000 C 
ATOM     18  O   UNL     1       7.565   8.405  17.214  0.00  0.00    +0.000 OA
BRANCH  17  19
ATOM     19  O   UNL     1       7.694   6.421  16.079  0.00  0.00    +0.000 OA
BRANCH  19  21
ATOM     20  C   UNL     1       6.340   4.979  14.734  0.00  0.00    +0.000 C 
ATOM     21  C   UNL     1       7.074   5.130  16.057  0.00  0.00    +0.000 C 
ENDBRANCH  19  21
ENDBRANCH  17  19
ENDBRANCH   1  17
TORSDOF 4
ENDMDL
MODEL 3
REMARK VINA RESULT:      -6.5      4.951      6.348
REMARK  Name = 
REMARK  7 active torsions:
REMARK  status: ('A' for Active; 'I' for Inactive)
REMARK    1  A    between atoms: C_1  and  C_2
REMARK    2  A    between atoms: C_2  and  O_3
REMARK    3  A    between atoms: O_3  and  C_4
REMARK    4  A    between atoms: C_4  and  C_6
REMARK    5  A    between atoms: C_7  and  C_8
REMARK    6  A    between atoms: C_11  and  C_12
REMARK    7  A    between atoms: N_16  and  C_17
REMARK                            x       y       z     vdW  Elec       q    Type
REMARK                         _______ _______ _______ _____ _____    ______ ____
ROOT
ATOM      1  C   UNL     1       0.760  10.032  20.676  0.00  0.00    +0.000 A 
ATOM      2  C   UNL     1       0.615   9.218  21.789  0.00  0.00    +0.000 A 
ATOM      3  C   UNL     1       0.071   9.528  23.135  0.00  0.00    +0.000 C 
ATOM      4  N   UNL     1       1.086   7.950  21.534  0.00  0.00    +0.000 NA
ATOM      5  C   UNL     1       1.520   7.971  20.288  0.00  0.00    +0.000 A 
ATOM      6  C   UNL     1       2.184   6.951  19.515  0.00  0.00    +0.000 A 
ATOM      7  C   UNL     1       2.509   7.260  18.234  0.00  0.00    +0.000 A 
ATOM      8  C   UNL     1       2.246   8.553  17.639  0.00  0.00    +0.000 A 
ATOM      9  C   UNL     1       1.662   9.501  18.385  0.00  0.00    +0.000 A 
ATOM     10  N   UNL     1       1.300   9.212  19.702  0.00  0.00    +0.000 N 
ENDROOT
BRANCH   6  11
ATOM     11  C   UNL     1       2.595   5.616  20.127  0.00  0.00    +0.000 C 
ATOM     12  C   UNL     1       1.397   4.681  20.323  0.00  0.00    +0.000 C 
ATOM     13  C   UNL     1       1.974   3.270  20.255  0.00  0.00    +0.000 C 
ATOM     14  C   UNL     1       3.449   3.453  19.935  0.00  0.00    +0.000 C 
ATOM     15  N   UNL     1       3.508   4.779  19.318  0.00  0.00    +0.000 NA
ATOM     16  C   UNL     1       4.873   5.296  19.292  0.00  0.00    +0.000 C 
ENDBRANCH   6  11
BRANCH   1  17
ATOM     17  C   UNL     1       0.514  11.435  20.496  0.00  0.00    +0.000 C 
ATOM     18  O   UNL     1       1.310  12.339  20.720  0.00  0.00    +0.000 OA
BRANCH  17  19
ATOM     19  O   UNL     1      -0.801  11.623  20.199  0.00  0.00    +0.000 OA
BRANCH  19  21
ATOM     20  C   UNL     1      -1.638  11.738  17.961  0.00  0.00    +0.000 C 
ATOM     21  C   UNL     1      -1.058  12.531  19.120  0.00  0.00    +0.000 C 
ENDBRANCH  19  21
ENDBRANCH  17  19
ENDBRANCH   1  17
TORSDOF 4
ENDMDL
MODEL 4
REMARK VINA RESULT:      -6.4      2.874      4.705
REMARK  Name = 
REMARK  7 active torsions:
REMARK  status: ('A' for Active; 'I' for Inactive)
REMARK    1  A    between atoms: C_1  and  C_2
REMARK    2  A    between atoms: C_2  and  O_3
REMARK    3  A    between atoms: O_3  and  C_4
REMARK    4  A    between atoms: C_4  and  C_6
REMARK    5  A    between atoms: C_7  and  C_8
REMARK    6  A    between atoms: C_11  and  C_12
REMARK    7  A    between atoms: N_16  and  C_17
REMARK                            x       y       z     vdW  Elec       q    Type
REMARK                         _______ _______ _______ _____ _____    ______ ____
ROOT
ATOM      1  C   UNL     1       6.073   5.543  17.268  0.00  0.00    +0.000 A 
ATOM      2  C   UNL     1       6.362   6.891  17.422  0.00  0.00    +0.000 A 
ATOM      3  C   UNL     1       7.656   7.609  17.309  0.00  0.00    +0.000 C 
ATOM      4  N   UNL     1       5.229   7.600  17.747  0.00  0.00    +0.000 NA
ATOM      5  C   UNL     1       4.251   6.716  17.796  0.00  0.00    +0.000 A 
ATOM      6  C   UNL     1       2.866   6.877  18.164  0.00  0.00    +0.000 A 
ATOM      7  C   UNL     1       2.080   5.771  18.111  0.00  0.00    +0.000 A 
ATOM      8  C   UNL     1       2.575   4.464  17.738  0.00  0.00    +0.000 A 
ATOM      9  C   UNL     1       3.874   4.326  17.436  0.00  0.00    +0.000 A 
ATOM     10  N   UNL     1       4.708   5.445  17.465  0.00  0.00    +0.000 N 
ENDROOT
BRANCH   6  11
ATOM     11  C   UNL     1       2.319   8.203  18.682  0.00  0.00    +0.000 C 
ATOM     12  C   UNL     1       1.613   9.002  17.582  0.00  0.00    +0.000 C 
ATOM     13  C   UNL     1       0.582   9.861  18.308  0.00  0.00    +0.000 C 
ATOM     14  C   UNL     1       0.677   9.454  19.770  0.00  0.00    +0.000 C 
ATOM     15  N   UNL     1       1.268   8.115  19.720  0.00  0.00    +0.000 NA
ATOM     16  C   UNL     1       1.792   7.714  21.021  0.00  0.00    +0.000 C 
ENDBRANCH   6  11
BRANCH   1  17
ATOM     17  C   UNL     1       6.931   4.415  17.036  0.00  0.00    +0.000 C 
ATOM     18  O   UNL     1       7.941   4.138  17.671  0.00  0.00    +0.000 OA
BRANCH  17  19
ATOM     19  O   UNL     1       6.547   3.790  15.889  0.00  0.00    +0.000 OA
BRANCH  19  21
ATOM     20  C   UNL     1       6.013   3.895  13.559  0.00  0.00    +0.000 C 
ATOM     21  C   UNL     1       6.841   4.503  14.680  0.00  0.00    +0.000 C 
ENDBRANCH  19  21
ENDBRANCH  17  19
ENDBRANCH   1  17
TORSDOF 4
ENDMDL
MODEL 5
REMARK VINA RESULT:      -6.4      5.037      5.992
REMARK  Name = 
REMARK  7 active torsions:
REMARK  status: ('A' for Active; 'I' for Inactive)
REMARK    1  A    between atoms: C_1  and  C_2
REMARK    2  A    between atoms: C_2  and  O_3
REMARK    3  A    between atoms: O_3  and  C_4
REMARK    4  A    between atoms: C_4  and  C_6
REMARK    5  A    between atoms: C_7  and  C_8
REMARK    6  A    between atoms: C_11  and  C_12
REMARK    7  A    between atoms: N_16  and  C_17
REMARK                            x       y       z     vdW  Elec       q    Type
REMARK                         _______ _______ _______ _____ _____    ______ ____
ROOT
ATOM      1  C   UNL     1       0.740  10.056  20.769  0.00  0.00    +0.000 A 
ATOM      2  C   UNL     1       0.602   9.221  21.867  0.00  0.00    +0.000 A 
ATOM      3  C   UNL     1       0.060   9.504  23.220  0.00  0.00    +0.000 C 
ATOM      4  N   UNL     1       1.079   7.961  21.587  0.00  0.00    +0.000 NA
ATOM      5  C   UNL     1       1.508   8.006  20.341  0.00  0.00    +0.000 A 
ATOM      6  C   UNL     1       2.176   7.003  19.548  0.00  0.00    +0.000 A 
ATOM      7  C   UNL     1       2.496   7.337  18.271  0.00  0.00    +0.000 A 
ATOM      8  C   UNL     1       2.224   8.639  17.701  0.00  0.00    +0.000 A 
ATOM      9  C   UNL     1       1.637   9.571  18.465  0.00  0.00    +0.000 A 
ATOM     10  N   UNL     1       1.281   9.257  19.778  0.00  0.00    +0.000 N 
ENDROOT
BRANCH   6  11
ATOM     11  C   UNL     1       2.595   5.660  20.134  0.00  0.00    +0.000 C 
ATOM     12  C   UNL     1       1.397   4.731  20.355  0.00  0.00    +0.000 C 
ATOM     13  C   UNL     1       1.963   3.317  20.256  0.00  0.00    +0.000 C 
ATOM     14  C   UNL     1       3.429   3.494  19.896  0.00  0.00    +0.000 C 
ATOM     15  N   UNL     1       3.480   4.826  19.291  0.00  0.00    +0.000 NA
ATOM     16  C   UNL     1       4.847   5.334  19.232  0.00  0.00    +0.000 C 
ENDBRANCH   6  11
BRANCH   1  17
ATOM     17  C   UNL     1       0.486  11.461  20.614  0.00  0.00    +0.000 C 
ATOM     18  O   UNL     1      -0.424  11.959  19.962  0.00  0.00    +0.000 OA
BRANCH  17  19
ATOM     19  O   UNL     1       1.514  12.164  21.163  0.00  0.00    +0.000 OA
BRANCH  19  21
ATOM     20  C   UNL     1       1.930  14.510  20.944  0.00  0.00    +0.000 C 
ATOM     21  C   UNL     1       2.109  13.144  20.302  0.00  0.00    +0.000 C 
ENDBRANCH  19  21
ENDBRANCH  17  19
ENDBRANCH   1  17
TORSDOF 4
ENDMDL
MODEL 6
REMARK VINA RESULT:      -6.3      3.377      5.212
REMARK  Name = 
REMARK  7 active torsions:
REMARK  status: ('A' for Active; 'I' for Inactive)
REMARK    1  A    between atoms: C_1  and  C_2
REMARK    2  A    between atoms: C_2  and  O_3
REMARK    3  A    between atoms: O_3  and  C_4
REMARK    4  A    between atoms: C_4  and  C_6
REMARK    5  A    between atoms: C_7  and  C_8
REMARK    6  A    between atoms: C_11  and  C_12
REMARK    7  A    between atoms: N_16  and  C_17
REMARK                            x       y       z     vdW  Elec       q    Type
REMARK                         _______ _______ _______ _____ _____    ______ ____
ROOT
ATOM      1  C   UNL     1       4.244   5.354  17.899  0.00  0.00    +0.000 A 
ATOM      2  C   UNL     1       4.308   6.512  17.140  0.00  0.00    +0.000 A 
ATOM      3  C   UNL     1       5.142   6.831  15.954  0.00  0.00    +0.000 C 
ATOM      4  N   UNL     1       3.454   7.470  17.635  0.00  0.00    +0.000 NA
ATOM      5  C   UNL     1       2.869   6.925  18.683  0.00  0.00    +0.000 A 
ATOM      6  C   UNL     1       1.941   7.490  19.632  0.00  0.00    +0.000 A 
ATOM      7  C   UNL     1       1.492   6.673  20.619  0.00  0.00    +0.000 A 
ATOM      8  C   UNL     1       1.922   5.298  20.767  0.00  0.00    +0.000 A 
ATOM      9  C   UNL     1       2.813   4.802  19.898  0.00  0.00    +0.000 A 
ATOM     10  N   UNL     1       3.284   5.610  18.862  0.00  0.00    +0.000 N 
ENDROOT
BRANCH   6  11
ATOM     11  C   UNL     1       1.550   8.963  19.596  0.00  0.00    +0.000 C 
ATOM     12  C   UNL     1       0.853   9.340  18.285  0.00  0.00    +0.000 C 
ATOM     13  C   UNL     1      -0.049  10.520  18.635  0.00  0.00    +0.000 C 
ATOM     14  C   UNL     1       0.097  10.708  20.136  0.00  0.00    +0.000 C 
ATOM     15  N   UNL     1       0.560   9.401  20.606  0.00  0.00    +0.000 NA
ATOM     16  C   UNL     1       1.125   9.486  21.949  0.00  0.00    +0.000 C 
ENDBRANCH   6  11
BRANCH   1  17
ATOM     17  C   UNL     1       5.010   4.141  17.837  0.00  0.00    +0.000 C 
ATOM     18  O   UNL     1       4.677   3.109  17.266  0.00  0.00    +0.000 OA
BRANCH  17  19
ATOM     19  O   UNL     1       6.092   4.253  18.655  0.00  0.00    +0.000 OA
BRANCH  19  21
ATOM     20  C   UNL     1       7.811   5.912  18.792  0.00  0.00    +0.000 C 
ATOM     21  C   UNL     1       7.292   4.710  18.019  0.00  0.00    +0.000 C 
ENDBRANCH  19  21
ENDBRANCH  17  19
ENDBRANCH   1  17
TORSDOF 4
ENDMDL
MODEL 7
REMARK VINA RESULT:      -6.3      2.789      4.435
REMARK  Name = 
REMARK  7 active torsions:
REMARK  status: ('A' for Active; 'I' for Inactive)
REMARK    1  A    between atoms: C_1  and  C_2
REMARK    2  A    between atoms: C_2  and  O_3
REMARK    3  A    between atoms: O_3  and  C_4
REMARK    4  A    between atoms: C_4  and  C_6
REMARK    5  A    between atoms: C_7  and  C_8
REMARK    6  A    between atoms: C_11  and  C_12
REMARK    7  A    between atoms: N_16  and  C_17
REMARK                            x       y       z     vdW  Elec       q    Type
REMARK                         _______ _______ _______ _____ _____    ______ ____
ROOT
ATOM      1  C   UNL     1       5.818   5.242  16.963  0.00  0.00    +0.000 A 
ATOM      2  C   UNL     1       5.835   6.559  17.397  0.00  0.00    +0.000 A 
ATOM      3  C   UNL     1       6.945   7.545  17.411  0.00  0.00    +0.000 C 
ATOM      4  N   UNL     1       4.606   6.927  17.894  0.00  0.00    +0.000 NA
ATOM      5  C   UNL     1       3.835   5.863  17.775  0.00  0.00    +0.000 A 
ATOM      6  C   UNL     1       2.475   5.645  18.201  0.00  0.00    +0.000 A 
ATOM      7  C   UNL     1       1.930   4.431  17.930  0.00  0.00    +0.000 A 
ATOM      8  C   UNL     1       2.655   3.366  17.272  0.00  0.00    +0.000 A 
ATOM      9  C   UNL     1       3.930   3.574  16.917  0.00  0.00    +0.000 A 
ATOM     10  N   UNL     1       4.518   4.815  17.167  0.00  0.00    +0.000 N 
ENDROOT
BRANCH   6  11
ATOM     11  C   UNL     1       1.706   6.687  19.006  0.00  0.00    +0.000 C 
ATOM     12  C   UNL     1       1.835   6.457  20.515  0.00  0.00    +0.000 C 
ATOM     13  C   UNL     1       1.661   7.834  21.147  0.00  0.00    +0.000 C 
ATOM     14  C   UNL     1       1.533   8.800  19.980  0.00  0.00    +0.000 C 
ATOM     15  N   UNL     1       2.165   8.087  18.869  0.00  0.00    +0.000 NA
ATOM     16  C   UNL     1       1.804   8.676  17.583  0.00  0.00    +0.000 C 
ENDBRANCH   6  11
BRANCH   1  17
ATOM     17  C   UNL     1       6.870   4.396  16.473  0.00  0.00    +0.000 C 
ATOM     18  O   UNL     1       8.008   4.333  16.920  0.00  0.00    +0.000 OA
BRANCH  17  19
ATOM     19  O   UNL     1       6.461   3.796  15.322  0.00  0.00    +0.000 OA
BRANCH  19  21
ATOM     20  C   UNL     1       6.222   3.720  12.942  0.00  0.00    +0.000 C 
ATOM     21  C   UNL     1       6.710   4.542  14.124  0.00  0.00    +0.000 C 
ENDBRANCH  19  21
ENDBRANCH  17  19
ENDBRANCH   1  17
TORSDOF 4
ENDMDL
MODEL 8
REMARK VINA RESULT:      -6.2      3.807      6.181
REMARK  Name = 
REMARK  7 active torsions:
REMARK  status: ('A' for Active; 'I' for Inactive)
REMARK    1  A    between atoms: C_1  and  C_2
REMARK    2  A    between atoms: C_2  and  O_3
REMARK    3  A    between atoms: O_3  and  C_4
REMARK    4  A    between atoms: C_4  and  C_6
REMARK    5  A    between atoms: C_7  and  C_8
REMARK    6  A    between atoms: C_11  and  C_12
REMARK    7  A    between atoms: N_16  and  C_17
REMARK                            x       y       z     vdW  Elec       q    Type
REMARK                         _______ _______ _______ _____ _____    ______ ____
ROOT
ATOM      1  C   UNL     1       3.286   4.728  19.609  0.00  0.00    +0.000 A 
ATOM      2  C   UNL     1       2.455   4.753  20.718  0.00  0.00    +0.000 A 
ATOM      3  C   UNL     1       2.165   3.695  21.719  0.00  0.00    +0.000 C 
ATOM      4  N   UNL     1       1.823   5.970  20.830  0.00  0.00    +0.000 NA
ATOM      5  C   UNL     1       2.248   6.692  19.811  0.00  0.00    +0.000 A 
ATOM      6  C   UNL     1       1.866   8.015  19.381  0.00  0.00    +0.000 A 
ATOM      7  C   UNL     1       2.491   8.513  18.284  0.00  0.00    +0.000 A 
ATOM      8  C   UNL     1       3.481   7.772  17.531  0.00  0.00    +0.000 A 
ATOM      9  C   UNL     1       3.796   6.530  17.924  0.00  0.00    +0.000 A 
ATOM     10  N   UNL     1       3.183   5.992  19.057  0.00  0.00    +0.000 N 
ENDROOT
BRANCH   6  11
ATOM     11  C   UNL     1       0.744   8.790  20.063  0.00  0.00    +0.000 C 
ATOM     12  C   UNL     1       1.089   9.144  21.513  0.00  0.00    +0.000 C 
ATOM     13  C   UNL     1       0.297  10.413  21.816  0.00  0.00    +0.000 C 
ATOM     14  C   UNL     1      -0.390  10.780  20.510  0.00  0.00    +0.000 C 
ATOM     15  N   UNL     1       0.425  10.117  19.490  0.00  0.00    +0.000 NA
ATOM     16  C   UNL     1      -0.282  10.027  18.217  0.00  0.00    +0.000 C 
ENDBRANCH   6  11
BRANCH   1  17
ATOM     17  C   UNL     1       4.058   3.663  19.032  0.00  0.00    +0.000 C 
ATOM     18  O   UNL     1       5.236   3.422  19.265  0.00  0.00    +0.000 OA
BRANCH  17  19
ATOM     19  O   UNL     1       3.328   3.063  18.052  0.00  0.00    +0.000 OA
BRANCH  19  21
ATOM     20  C   UNL     1       1.179   2.133  18.543  0.00  0.00    +0.000 C 
ATOM     21  C   UNL     1       2.669   1.851  18.440  0.00  0.00    +0.000 C 
ENDBRANCH  19  21
ENDBRANCH  17  19
ENDBRANCH   1  17
TORSDOF 4
ENDMDL
MODEL 9
REMARK VINA RESULT:      -6.2      3.451      5.955
REMARK  Name = 
REMARK  7 active torsions:
REMARK  status: ('A' for Active; 'I' for Inactive)
REMARK    1  A    between atoms: C_1  and  C_2
REMARK    2  A    between atoms: C_2  and  O_3
REMARK    3  A    between atoms: O_3  and  C_4
REMARK    4  A    between atoms: C_4  and  C_6
REMARK    5  A    between atoms: C_7  and  C_8
REMARK    6  A    between atoms: C_11  and  C_12
REMARK    7  A    between atoms: N_16  and  C_17
REMARK                            x       y       z     vdW  Elec       q    Type
REMARK                         _______ _______ _______ _____ _____    ______ ____
ROOT
ATOM      1  C   UNL     1       4.228   5.408  18.193  0.00  0.00    +0.000 A 
ATOM      2  C   UNL     1       4.312   6.488  17.327  0.00  0.00    +0.000 A 
ATOM      3  C   UNL     1       5.190   6.702  16.149  0.00  0.00    +0.000 C 
ATOM      4  N   UNL     1       3.430   7.479  17.693  0.00  0.00    +0.000 NA
ATOM      5  C   UNL     1       2.808   7.030  18.766  0.00  0.00    +0.000 A 
ATOM      6  C   UNL     1       1.838   7.672  19.618  0.00  0.00    +0.000 A 
ATOM      7  C   UNL     1       1.357   6.948  20.662  0.00  0.00    +0.000 A 
ATOM      8  C   UNL     1       1.793   5.600  20.960  0.00  0.00    +0.000 A 
ATOM      9  C   UNL     1       2.723   5.034  20.178  0.00  0.00    +0.000 A 
ATOM     10  N   UNL     1       3.228   5.744  19.088  0.00  0.00    +0.000 N 
ENDROOT
BRANCH   6  11
ATOM     11  C   UNL     1       1.434   9.129  19.424  0.00  0.00    +0.000 C 
ATOM     12  C   UNL     1       0.725   9.355  18.085  0.00  0.00    +0.000 C 
ATOM     13  C   UNL     1      -0.184  10.559  18.310  0.00  0.00    +0.000 C 
ATOM     14  C   UNL     1      -0.028  10.912  19.781  0.00  0.00    +0.000 C 
ATOM     15  N   UNL     1       0.449   9.668  20.388  0.00  0.00    +0.000 NA
ATOM     16  C   UNL     1       1.023   9.905  21.709  0.00  0.00    +0.000 C 
ENDBRANCH   6  11
BRANCH   1  17
ATOM     17  C   UNL     1       5.008   4.205  18.278  0.00  0.00    +0.000 C 
ATOM     18  O   UNL     1       6.082   4.084  18.855  0.00  0.00    +0.000 OA
BRANCH  17  19
ATOM     19  O   UNL     1       4.455   3.257  17.473  0.00  0.00    +0.000 OA
BRANCH  19  21
ATOM     20  C   UNL     1       2.315   2.221  17.738  0.00  0.00    +0.000 C 
ATOM     21  C   UNL     1       3.775   2.198  18.159  0.00  0.00    +0.000 C 
ENDBRANCH  19  21
ENDBRANCH  17  19
ENDBRANCH   1  17
TORSDOF 4
ENDMDL
