MODEL 1
REMARK VINA RESULT:      -6.4      0.000      0.000
REMARK  Name = 
REMARK  13 active torsions:
REMARK  status: ('A' for Active; 'I' for Inactive)
REMARK    1  A    between atoms: C_1  and  O_2
REMARK    2  A    between atoms: O_2  and  C_3
REMARK    3  A    between atoms: C_5  and  C_6
REMARK    4  A    between atoms: C_6  and  C_7
REMARK    5  A    between atoms: C_6  and  C_8
REMARK    6  A    between atoms: C_9  and  O_10
REMARK    7  A    between atoms: O_10  and  C_11
REMARK    8  A    between atoms: N_15  and  C_16
REMARK    9  A    between atoms: C_16  and  C_17
REMARK   10  A    between atoms: C_16  and  C_18
REMARK   11  A    between atoms: C_16  and  C_19
REMARK   12  A    between atoms: C_19  and  O_20
REMARK   13  A    between atoms: C_22  and  N_23
REMARK                            x       y       z     vdW  Elec       q    Type
REMARK                         _______ _______ _______ _____ _____    ______ ____
ROOT
ATOM      1  C   UNL     1       1.591   8.945  19.552  0.00  0.00    +0.000 A 
ATOM      2  C   UNL     1       2.131   8.257  18.495  0.00  0.00    +0.000 A 
ATOM      3  N   UNL     1       2.517   6.976  18.567  0.00  0.00    +0.000 NA
ATOM      4  C   UNL     1       2.300   6.324  19.711  0.00  0.00    +0.000 A 
ATOM      5  N   UNL     1       2.660   4.986  19.798  0.00  0.00    +0.000 N 
ATOM      6  N   UNL     1       1.734   6.883  20.785  0.00  0.00    +0.000 NA
ATOM      7  C   UNL     1       1.388   8.185  20.693  0.00  0.00    +0.000 A 
ATOM      8  H   UNL     1       2.167   4.617  20.604  0.00  0.00    +0.000 HD
ENDROOT
BRANCH   5   9
ATOM      9  C   UNL     1       2.579   4.150  18.578  0.00  0.00    +0.000 C 
ATOM     10  C   UNL     1       2.237   2.716  19.038  0.00  0.00    +0.000 C 
ATOM     11  C   UNL     1       1.453   4.627  17.644  0.00  0.00    +0.000 C 
BRANCH   9  12
ATOM     12  C   UNL     1       3.937   4.087  17.820  0.00  0.00    +0.000 C 
BRANCH  12  13
ATOM     13  O   UNL     1       4.096   5.216  16.957  0.00  0.00    +0.000 OA
ATOM     14  H   UNL     1       5.059   5.384  16.953  0.00  0.00    +0.000 HD
ENDBRANCH  12  13
ENDBRANCH   9  12
ENDBRANCH   5   9
BRANCH   7  15
ATOM     15  N   UNL     1       0.738   8.720  21.814  0.00  0.00    +0.000 N 
ATOM     16  H   UNL     1      -0.165   8.259  21.912  0.00  0.00    +0.000 HD
ATOM     17  H   UNL     1       1.309   8.664  22.647  0.00  0.00    +0.000 HD
ENDBRANCH   7  15
BRANCH   1  18
ATOM     18  O   UNL     1       1.223  10.264  19.515  0.00  0.00    +0.000 OA
BRANCH  18  22
ATOM     19  C   UNL     1      -2.689  11.458  18.589  0.00  0.00    +0.000 A 
ATOM     20  C   UNL     1      -2.093  11.803  19.808  0.00  0.00    +0.000 A 
ATOM     21  C   UNL     1      -0.793  11.387  20.147  0.00  0.00    +0.000 A 
ATOM     22  C   UNL     1      -0.094  10.585  19.227  0.00  0.00    +0.000 A 
ATOM     23  C   UNL     1      -0.695  10.209  18.015  0.00  0.00    +0.000 A 
ATOM     24  C   UNL     1      -1.997  10.620  17.712  0.00  0.00    +0.000 A 
ATOM     25  I   UNL     1      -2.832   9.976  15.902  0.00  0.00    +0.000 I 
BRANCH  21  26
ATOM     26  C   UNL     1      -0.144  11.871  21.438  0.00  0.00    +0.000 C 
ATOM     27  C   UNL     1       0.414  13.281  21.224  0.00  0.00    +0.000 C 
ATOM     28  C   UNL     1      -1.072  11.863  22.663  0.00  0.00    +0.000 C 
ENDBRANCH  21  26
BRANCH  19  30
ATOM     29  C   UNL     1      -4.775  12.253  19.338  0.00  0.00    +0.000 C 
ATOM     30  O   UNL     1      -3.934  11.909  18.236  0.00  0.00    +0.000 OA
ENDBRANCH  19  30
ENDBRANCH  18  22
ENDBRANCH   1  18
TORSDOF 8
ENDMDL
MODEL 2
REMARK VINA RESULT:      -6.4      2.711      7.889
REMARK  Name = 
REMARK  13 active torsions:
REMARK  status: ('A' for Active; 'I' for Inactive)
REMARK    1  A    between atoms: C_1  and  O_2
REMARK    2  A    between atoms: O_2  and  C_3
REMARK    3  A    between atoms: C_5  and  C_6
REMARK    4  A    between atoms: C_6  and  C_7
REMARK    5  A    between atoms: C_6  and  C_8
REMARK    6  A    between atoms: C_9  and  O_10
REMARK    7  A    between atoms: O_10  and  C_11
REMARK    8  A    between atoms: N_15  and  C_16
REMARK    9  A    between atoms: C_16  and  C_17
REMARK   10  A    between atoms: C_16  and  C_18
REMARK   11  A    between atoms: C_16  and  C_19
REMARK   12  A    between atoms: C_19  and  O_20
REMARK   13  A    between atoms: C_22  and  N_23
REMARK                            x       y       z     vdW  Elec       q    Type
REMARK                         _______ _______ _______ _____ _____    ______ ____
ROOT
ATOM      1  C   UNL     1       2.002   8.443  18.865  0.00  0.00    +0.000 A 
ATOM      2  C   UNL     1       1.342   9.182  17.917  0.00  0.00    +0.000 A 
ATOM      3  N   UNL     1       0.213   9.861  18.163  0.00  0.00    +0.000 NA
ATOM      4  C   UNL     1      -0.248   9.869  19.416  0.00  0.00    +0.000 A 
ATOM      5  N   UNL     1      -1.395  10.595  19.702  0.00  0.00    +0.000 N 
ATOM      6  N   UNL     1       0.347   9.227  20.426  0.00  0.00    +0.000 NA
ATOM      7  C   UNL     1       1.462   8.522  20.139  0.00  0.00    +0.000 A 
ATOM      8  H   UNL     1      -1.410  10.707  20.711  0.00  0.00    +0.000 HD
ENDROOT
BRANCH   5   9
ATOM      9  C   UNL     1      -1.663  11.831  18.931  0.00  0.00    +0.000 C 
ATOM     10  C   UNL     1      -2.479  12.765  19.850  0.00  0.00    +0.000 C 
ATOM     11  C   UNL     1      -0.357  12.555  18.560  0.00  0.00    +0.000 C 
BRANCH   9  12
ATOM     12  C   UNL     1      -2.521  11.556  17.662  0.00  0.00    +0.000 C 
BRANCH  12  13
ATOM     13  O   UNL     1      -1.766  11.789  16.471  0.00  0.00    +0.000 OA
ATOM     14  H   UNL     1      -1.764  12.761  16.371  0.00  0.00    +0.000 HD
ENDBRANCH  12  13
ENDBRANCH   9  12
ENDBRANCH   5   9
BRANCH   7  15
ATOM     15  N   UNL     1       2.095   7.916  21.234  0.00  0.00    +0.000 N 
ATOM     16  H   UNL     1       3.033   8.302  21.316  0.00  0.00    +0.000 HD
ATOM     17  H   UNL     1       1.551   8.001  22.082  0.00  0.00    +0.000 HD
ENDBRANCH   7  15
BRANCH   1  18
ATOM     18  O   UNL     1       3.135   7.710  18.630  0.00  0.00    +0.000 OA
BRANCH  18  22
ATOM     19  C   UNL     1       2.962   3.598  17.828  0.00  0.00    +0.000 A 
ATOM     20  C   UNL     1       3.847   4.436  17.139  0.00  0.00    +0.000 A 
ATOM     21  C   UNL     1       3.898   5.821  17.375  0.00  0.00    +0.000 A 
ATOM     22  C   UNL     1       3.013   6.365  18.323  0.00  0.00    +0.000 A 
ATOM     23  C   UNL     1       2.101   5.536  18.998  0.00  0.00    +0.000 A 
ATOM     24  C   UNL     1       2.057   4.164  18.729  0.00  0.00    +0.000 A 
ATOM     25  I   UNL     1       0.637   3.010  19.748  0.00  0.00    +0.000 I 
BRANCH  21  26
ATOM     26  C   UNL     1       4.946   6.680  16.678  0.00  0.00    +0.000 C 
ATOM     27  C   UNL     1       6.224   6.700  17.522  0.00  0.00    +0.000 C 
ATOM     28  C   UNL     1       5.281   6.243  15.243  0.00  0.00    +0.000 C 
ENDBRANCH  21  26
BRANCH  19  30
ATOM     29  C   UNL     1       3.835   1.514  18.492  0.00  0.00    +0.000 C 
ATOM     30  O   UNL     1       2.951   2.240  17.638  0.00  0.00    +0.000 OA
ENDBRANCH  19  30
ENDBRANCH  18  22
ENDBRANCH   1  18
TORSDOF 8
ENDMDL
MODEL 3
REMARK VINA RESULT:      -6.4      0.736      1.001
REMARK  Name = 
REMARK  13 active torsions:
REMARK  status: ('A' for Active; 'I' for Inactive)
REMARK    1  A    between atoms: C_1  and  O_2
REMARK    2  A    between atoms: O_2  and  C_3
REMARK    3  A    between atoms: C_5  and  C_6
REMARK    4  A    between atoms: C_6  and  C_7
REMARK    5  A    between atoms: C_6  and  C_8
REMARK    6  A    between atoms: C_9  and  O_10
REMARK    7  A    between atoms: O_10  and  C_11
REMARK    8  A    between atoms: N_15  and  C_16
REMARK    9  A    between atoms: C_16  and  C_17
REMARK   10  A    between atoms: C_16  and  C_18
REMARK   11  A    between atoms: C_16  and  C_19
REMARK   12  A    between atoms: C_19  and  O_20
REMARK   13  A    between atoms: C_22  and  N_23
REMARK                            x       y       z     vdW  Elec       q    Type
REMARK                         _______ _______ _______ _____ _____    ______ ____
ROOT
ATOM      1  C   UNL     1       1.506   9.157  19.560  0.00  0.00    +0.000 A 
ATOM      2  C   UNL     1       2.124   8.579  18.481  0.00  0.00    +0.000 A 
ATOM      3  N   UNL     1       2.593   7.323  18.482  0.00  0.00    +0.000 NA
ATOM      4  C   UNL     1       2.382   6.582  19.573  0.00  0.00    +0.000 A 
ATOM      5  N   UNL     1       2.827   5.268  19.584  0.00  0.00    +0.000 N 
ATOM      6  N   UNL     1       1.746   7.030  20.659  0.00  0.00    +0.000 NA
ATOM      7  C   UNL     1       1.317   8.310  20.640  0.00  0.00    +0.000 A 
ATOM      8  H   UNL     1       2.335   4.814  20.346  0.00  0.00    +0.000 HD
ENDROOT
BRANCH   5   9
ATOM      9  C   UNL     1       2.842   4.513  18.310  0.00  0.00    +0.000 C 
ATOM     10  C   UNL     1       1.427   4.629  17.703  0.00  0.00    +0.000 C 
ATOM     11  C   UNL     1       3.838   5.122  17.308  0.00  0.00    +0.000 C 
BRANCH   9  12
ATOM     12  C   UNL     1       3.135   3.000  18.529  0.00  0.00    +0.000 C 
BRANCH  12  13
ATOM     13  O   UNL     1       4.542   2.752  18.589  0.00  0.00    +0.000 OA
ATOM     14  H   UNL     1       4.949   3.625  18.423  0.00  0.00    +0.000 HD
ENDBRANCH  12  13
ENDBRANCH   9  12
ENDBRANCH   5   9
BRANCH   7  15
ATOM     15  N   UNL     1       0.596   8.725  21.770  0.00  0.00    +0.000 N 
ATOM     16  H   UNL     1       1.257   9.076  22.460  0.00  0.00    +0.000 HD
ATOM     17  H   UNL     1      -0.128   9.389  21.534  0.00  0.00    +0.000 HD
ENDBRANCH   7  15
BRANCH   1  18
ATOM     18  O   UNL     1       1.052  10.449  19.596  0.00  0.00    +0.000 OA
BRANCH  18  22
ATOM     19  C   UNL     1      -2.855  11.461  18.458  0.00  0.00    +0.000 A 
ATOM     20  C   UNL     1      -2.338  11.845  19.701  0.00  0.00    +0.000 A 
ATOM     21  C   UNL     1      -1.041  11.489  20.110  0.00  0.00    +0.000 A 
ATOM     22  C   UNL     1      -0.261  10.709  19.238  0.00  0.00    +0.000 A 
ATOM     23  C   UNL     1      -0.782  10.295  18.001  0.00  0.00    +0.000 A 
ATOM     24  C   UNL     1      -2.083  10.645  17.628  0.00  0.00    +0.000 A 
ATOM     25  I   UNL     1      -2.796   9.946  15.785  0.00  0.00    +0.000 I 
BRANCH  21  26
ATOM     26  C   UNL     1      -0.480  12.015  21.427  0.00  0.00    +0.000 C 
ATOM     27  C   UNL     1      -0.292  13.531  21.325  0.00  0.00    +0.000 C 
ATOM     28  C   UNL     1      -1.331  11.682  22.663  0.00  0.00    +0.000 C 
ENDBRANCH  21  26
BRANCH  19  30
ATOM     29  C   UNL     1      -5.133  11.691  19.007  0.00  0.00    +0.000 C 
ATOM     30  O   UNL     1      -4.099  11.854  18.036  0.00  0.00    +0.000 OA
ENDBRANCH  19  30
ENDBRANCH  18  22
ENDBRANCH   1  18
TORSDOF 8
ENDMDL
MODEL 4
REMARK VINA RESULT:      -6.2      1.162      1.510
REMARK  Name = 
REMARK  13 active torsions:
REMARK  status: ('A' for Active; 'I' for Inactive)
REMARK    1  A    between atoms: C_1  and  O_2
REMARK    2  A    between atoms: O_2  and  C_3
REMARK    3  A    between atoms: C_5  and  C_6
REMARK    4  A    between atoms: C_6  and  C_7
REMARK    5  A    between atoms: C_6  and  C_8
REMARK    6  A    between atoms: C_9  and  O_10
REMARK    7  A    between atoms: O_10  and  C_11
REMARK    8  A    between atoms: N_15  and  C_16
REMARK    9  A    between atoms: C_16  and  C_17
REMARK   10  A    between atoms: C_16  and  C_18
REMARK   11  A    between atoms: C_16  and  C_19
REMARK   12  A    between atoms: C_19  and  O_20
REMARK   13  A    between atoms: C_22  and  N_23
REMARK                            x       y       z     vdW  Elec       q    Type
REMARK                         _______ _______ _______ _____ _____    ______ ____
ROOT
ATOM      1  C   UNL     1       1.110   9.741  19.585  0.00  0.00    +0.000 A 
ATOM      2  C   UNL     1       1.790   9.164  18.542  0.00  0.00    +0.000 A 
ATOM      3  N   UNL     1       2.378   7.962  18.617  0.00  0.00    +0.000 NA
ATOM      4  C   UNL     1       2.231   7.268  19.748  0.00  0.00    +0.000 A 
ATOM      5  N   UNL     1       2.801   6.005  19.837  0.00  0.00    +0.000 N 
ATOM      6  N   UNL     1       1.546   7.713  20.805  0.00  0.00    +0.000 NA
ATOM      7  C   UNL     1       0.995   8.942  20.712  0.00  0.00    +0.000 A 
ATOM      8  H   UNL     1       2.348   5.550  20.622  0.00  0.00    +0.000 HD
ENDROOT
BRANCH   5   9
ATOM      9  C   UNL     1       2.898   5.184  18.608  0.00  0.00    +0.000 C 
ATOM     10  C   UNL     1       3.857   5.923  17.649  0.00  0.00    +0.000 C 
ATOM     11  C   UNL     1       3.501   3.800  18.905  0.00  0.00    +0.000 C 
BRANCH   9  12
ATOM     12  C   UNL     1       1.527   5.045  17.885  0.00  0.00    +0.000 C 
BRANCH  12  13
ATOM     13  O   UNL     1       1.335   3.715  17.398  0.00  0.00    +0.000 OA
ATOM     14  H   UNL     1       0.407   3.700  17.091  0.00  0.00    +0.000 HD
ENDBRANCH  12  13
ENDBRANCH   9  12
ENDBRANCH   5   9
BRANCH   7  15
ATOM     15  N   UNL     1       0.229   9.350  21.813  0.00  0.00    +0.000 N 
ATOM     16  H   UNL     1      -0.747   9.399  21.525  0.00  0.00    +0.000 HD
ATOM     17  H   UNL     1       0.379   8.758  22.619  0.00  0.00    +0.000 HD
ENDBRANCH   7  15
BRANCH   1  18
ATOM     18  O   UNL     1       0.534  10.983  19.545  0.00  0.00    +0.000 OA
BRANCH  18  22
ATOM     19  C   UNL     1      -3.379  11.571  18.156  0.00  0.00    +0.000 A 
ATOM     20  C   UNL     1      -2.984  12.014  19.424  0.00  0.00    +0.000 A 
ATOM     21  C   UNL     1      -1.684  11.799  19.917  0.00  0.00    +0.000 A 
ATOM     22  C   UNL     1      -0.774  11.102  19.103  0.00  0.00    +0.000 A 
ATOM     23  C   UNL     1      -1.171  10.628  17.842  0.00  0.00    +0.000 A 
ATOM     24  C   UNL     1      -2.476  10.837  17.385  0.00  0.00    +0.000 A 
ATOM     25  I   UNL     1      -2.995  10.058  15.510  0.00  0.00    +0.000 I 
BRANCH  21  26
ATOM     26  C   UNL     1      -1.266  12.388  21.259  0.00  0.00    +0.000 C 
ATOM     27  C   UNL     1      -0.959  13.878  21.083  0.00  0.00    +0.000 C 
ATOM     28  C   UNL     1      -2.292  12.202  22.387  0.00  0.00    +0.000 C 
ENDBRANCH  21  26
BRANCH  19  30
ATOM     29  C   UNL     1      -5.654  11.940  18.641  0.00  0.00    +0.000 C 
ATOM     30  O   UNL     1      -4.628  11.829  17.654  0.00  0.00    +0.000 OA
ENDBRANCH  19  30
ENDBRANCH  18  22
ENDBRANCH   1  18
TORSDOF 8
ENDMDL
MODEL 5
REMARK VINA RESULT:      -6.0      1.453      2.053
REMARK  Name = 
REMARK  13 active torsions:
REMARK  status: ('A' for Active; 'I' for Inactive)
REMARK    1  A    between atoms: C_1  and  O_2
REMARK    2  A    between atoms: O_2  and  C_3
REMARK    3  A    between atoms: C_5  and  C_6
REMARK    4  A    between atoms: C_6  and  C_7
REMARK    5  A    between atoms: C_6  and  C_8
REMARK    6  A    between atoms: C_9  and  O_10
REMARK    7  A    between atoms: O_10  and  C_11
REMARK    8  A    between atoms: N_15  and  C_16
REMARK    9  A    between atoms: C_16  and  C_17
REMARK   10  A    between atoms: C_16  and  C_18
REMARK   11  A    between atoms: C_16  and  C_19
REMARK   12  A    between atoms: C_19  and  O_20
REMARK   13  A    between atoms: C_22  and  N_23
REMARK                            x       y       z     vdW  Elec       q    Type
REMARK                         _______ _______ _______ _____ _____    ______ ____
ROOT
ATOM      1  C   UNL     1       1.411   9.411  19.437  0.00  0.00    +0.000 A 
ATOM      2  C   UNL     1       1.381   8.183  20.047  0.00  0.00    +0.000 A 
ATOM      3  N   UNL     1       1.891   7.072  19.499  0.00  0.00    +0.000 NA
ATOM      4  C   UNL     1       2.520   7.189  18.327  0.00  0.00    +0.000 A 
ATOM      5  N   UNL     1       3.088   6.058  17.757  0.00  0.00    +0.000 N 
ATOM      6  N   UNL     1       2.653   8.346  17.672  0.00  0.00    +0.000 NA
ATOM      7  C   UNL     1       2.097   9.441  18.233  0.00  0.00    +0.000 A 
ATOM      8  H   UNL     1       3.738   6.397  17.055  0.00  0.00    +0.000 HD
ENDROOT
BRANCH   5   9
ATOM      9  C   UNL     1       3.625   5.006  18.651  0.00  0.00    +0.000 C 
ATOM     10  C   UNL     1       4.075   3.838  17.749  0.00  0.00    +0.000 C 
ATOM     11  C   UNL     1       4.856   5.505  19.428  0.00  0.00    +0.000 C 
BRANCH   9  12
ATOM     12  C   UNL     1       2.542   4.457  19.625  0.00  0.00    +0.000 C 
BRANCH  12  13
ATOM     13  O   UNL     1       2.810   4.859  20.971  0.00  0.00    +0.000 OA
ATOM     14  H   UNL     1       2.755   4.031  21.487  0.00  0.00    +0.000 HD
ENDBRANCH  12  13
ENDBRANCH   9  12
ENDBRANCH   5   9
BRANCH   7  15
ATOM     15  N   UNL     1       2.312  10.647  17.551  0.00  0.00    +0.000 N 
ATOM     16  H   UNL     1       2.276  10.461  16.550  0.00  0.00    +0.000 HD
ATOM     17  H   UNL     1       1.671  11.371  17.848  0.00  0.00    +0.000 HD
ENDBRANCH   7  15
BRANCH   1  18
ATOM     18  O   UNL     1       0.864  10.553  19.959  0.00  0.00    +0.000 OA
BRANCH  18  22
ATOM     19  C   UNL     1      -3.000  11.789  18.897  0.00  0.00    +0.000 A 
ATOM     20  C   UNL     1      -2.459  12.094  20.152  0.00  0.00    +0.000 A 
ATOM     21  C   UNL     1      -1.176  11.662  20.535  0.00  0.00    +0.000 A 
ATOM     22  C   UNL     1      -0.438  10.888  19.623  0.00  0.00    +0.000 A 
ATOM     23  C   UNL     1      -0.985  10.552  18.373  0.00  0.00    +0.000 A 
ATOM     24  C   UNL     1      -2.271  10.977  18.026  0.00  0.00    +0.000 A 
ATOM     25  I   UNL     1      -3.026  10.394  16.160  0.00  0.00    +0.000 I 
BRANCH  21  26
ATOM     26  C   UNL     1      -0.585  12.103  21.869  0.00  0.00    +0.000 C 
ATOM     27  C   UNL     1      -0.088  13.546  21.748  0.00  0.00    +0.000 C 
ATOM     28  C   UNL     1      -1.544  11.986  23.064  0.00  0.00    +0.000 C 
ENDBRANCH  21  26
BRANCH  19  30
ATOM     29  C   UNL     1      -5.307  11.881  19.358  0.00  0.00    +0.000 C 
ATOM     30  O   UNL     1      -4.227  12.256  18.503  0.00  0.00    +0.000 OA
ENDBRANCH  19  30
ENDBRANCH  18  22
ENDBRANCH   1  18
TORSDOF 8
ENDMDL
MODEL 6
REMARK VINA RESULT:      -6.0      1.524      1.822
REMARK  Name = 
REMARK  13 active torsions:
REMARK  status: ('A' for Active; 'I' for Inactive)
REMARK    1  A    between atoms: C_1  and  O_2
REMARK    2  A    between atoms: O_2  and  C_3
REMARK    3  A    between atoms: C_5  and  C_6
REMARK    4  A    between atoms: C_6  and  C_7
REMARK    5  A    between atoms: C_6  and  C_8
REMARK    6  A    between atoms: C_9  and  O_10
REMARK    7  A    between atoms: O_10  and  C_11
REMARK    8  A    between atoms: N_15  and  C_16
REMARK    9  A    between atoms: C_16  and  C_17
REMARK   10  A    between atoms: C_16  and  C_18
REMARK   11  A    between atoms: C_16  and  C_19
REMARK   12  A    between atoms: C_19  and  O_20
REMARK   13  A    between atoms: C_22  and  N_23
REMARK                            x       y       z     vdW  Elec       q    Type
REMARK                         _______ _______ _______ _____ _____    ______ ____
ROOT
ATOM      1  C   UNL     1       0.653  10.149  19.596  0.00  0.00    +0.000 A 
ATOM      2  C   UNL     1       1.478   9.677  18.607  0.00  0.00    +0.000 A 
ATOM      3  N   UNL     1       2.186   8.544  18.713  0.00  0.00    +0.000 NA
ATOM      4  C   UNL     1       2.021   7.808  19.816  0.00  0.00    +0.000 A 
ATOM      5  N   UNL     1       2.716   6.613  19.932  0.00  0.00    +0.000 N 
ATOM      6  N   UNL     1       1.203   8.149  20.816  0.00  0.00    +0.000 NA
ATOM      7  C   UNL     1       0.531   9.314  20.695  0.00  0.00    +0.000 A 
ATOM      8  H   UNL     1       2.251   6.091  20.668  0.00  0.00    +0.000 HD
ENDROOT
BRANCH   5   9
ATOM      9  C   UNL     1       3.008   5.839  18.703  0.00  0.00    +0.000 C 
ATOM     10  C   UNL     1       1.648   5.427  18.100  0.00  0.00    +0.000 C 
ATOM     11  C   UNL     1       3.746   6.697  17.662  0.00  0.00    +0.000 C 
BRANCH   9  12
ATOM     12  C   UNL     1       3.800   4.534  19.007  0.00  0.00    +0.000 C 
BRANCH  12  13
ATOM     13  O   UNL     1       5.155   4.827  19.359  0.00  0.00    +0.000 OA
ATOM     14  H   UNL     1       5.656   4.687  18.532  0.00  0.00    +0.000 HD
ENDBRANCH  12  13
ENDBRANCH   9  12
ENDBRANCH   5   9
BRANCH   7  15
ATOM     15  N   UNL     1      -0.366   9.607  21.732  0.00  0.00    +0.000 N 
ATOM     16  H   UNL     1       0.142  10.096  22.467  0.00  0.00    +0.000 HD
ATOM     17  H   UNL     1      -1.177  10.112  21.401  0.00  0.00    +0.000 HD
ENDBRANCH   7  15
BRANCH   1  18
ATOM     18  O   UNL     1      -0.051  11.322  19.527  0.00  0.00    +0.000 OA
BRANCH  18  22
ATOM     19  C   UNL     1      -3.840  11.530  17.743  0.00  0.00    +0.000 A 
ATOM     20  C   UNL     1      -3.614  12.034  19.029  0.00  0.00    +0.000 A 
ATOM     21  C   UNL     1      -2.357  11.946  19.654  0.00  0.00    +0.000 A 
ATOM     22  C   UNL     1      -1.313  11.315  18.955  0.00  0.00    +0.000 A 
ATOM     23  C   UNL     1      -1.538  10.781  17.676  0.00  0.00    +0.000 A 
ATOM     24  C   UNL     1      -2.804  10.863  17.087  0.00  0.00    +0.000 A 
ATOM     25  I   UNL     1      -3.062  10.001  15.194  0.00  0.00    +0.000 I 
BRANCH  21  26
ATOM     26  C   UNL     1      -2.128  12.598  21.013  0.00  0.00    +0.000 C 
ATOM     27  C   UNL     1      -1.729  14.062  20.809  0.00  0.00    +0.000 C 
ATOM     28  C   UNL     1      -3.327  12.517  21.971  0.00  0.00    +0.000 C 
ENDBRANCH  21  26
BRANCH  19  30
ATOM     29  C   UNL     1      -5.959  12.557  17.758  0.00  0.00    +0.000 C 
ATOM     30  O   UNL     1      -5.050  11.665  17.113  0.00  0.00    +0.000 OA
ENDBRANCH  19  30
ENDBRANCH  18  22
ENDBRANCH   1  18
TORSDOF 8
ENDMDL
MODEL 7
REMARK VINA RESULT:      -6.0      2.709      7.853
REMARK  Name = 
REMARK  13 active torsions:
REMARK  status: ('A' for Active; 'I' for Inactive)
REMARK    1  A    between atoms: C_1  and  O_2
REMARK    2  A    between atoms: O_2  and  C_3
REMARK    3  A    between atoms: C_5  and  C_6
REMARK    4  A    between atoms: C_6  and  C_7
REMARK    5  A    between atoms: C_6  and  C_8
REMARK    6  A    between atoms: C_9  and  O_10
REMARK    7  A    between atoms: O_10  and  C_11
REMARK    8  A    between atoms: N_15  and  C_16
REMARK    9  A    between atoms: C_16  and  C_17
REMARK   10  A    between atoms: C_16  and  C_18
REMARK   11  A    between atoms: C_16  and  C_19
REMARK   12  A    between atoms: C_19  and  O_20
REMARK   13  A    between atoms: C_22  and  N_23
REMARK                            x       y       z     vdW  Elec       q    Type
REMARK                         _______ _______ _______ _____ _____    ______ ____
ROOT
ATOM      1  C   UNL     1       2.053   8.380  18.975  0.00  0.00    +0.000 A 
ATOM      2  C   UNL     1       1.448   9.186  18.044  0.00  0.00    +0.000 A 
ATOM      3  N   UNL     1       0.325   9.877  18.282  0.00  0.00    +0.000 NA
ATOM      4  C   UNL     1      -0.188   9.825  19.514  0.00  0.00    +0.000 A 
ATOM      5  N   UNL     1      -1.330  10.561  19.794  0.00  0.00    +0.000 N 
ATOM      6  N   UNL     1       0.350   9.113  20.509  0.00  0.00    +0.000 NA
ATOM      7  C   UNL     1       1.461   8.400  20.228  0.00  0.00    +0.000 A 
ATOM      8  H   UNL     1      -1.385  10.616  20.806  0.00  0.00    +0.000 HD
ENDROOT
BRANCH   5   9
ATOM      9  C   UNL     1      -1.540  11.844  19.084  0.00  0.00    +0.000 C 
ATOM     10  C   UNL     1      -1.902  11.495  17.625  0.00  0.00    +0.000 C 
ATOM     11  C   UNL     1      -2.714  12.634  19.687  0.00  0.00    +0.000 C 
BRANCH   9  12
ATOM     12  C   UNL     1      -0.248  12.712  19.052  0.00  0.00    +0.000 C 
BRANCH  12  13
ATOM     13  O   UNL     1       0.277  12.801  17.725  0.00  0.00    +0.000 OA
ATOM     14  H   UNL     1       0.791  13.633  17.723  0.00  0.00    +0.000 HD
ENDBRANCH  12  13
ENDBRANCH   9  12
ENDBRANCH   5   9
BRANCH   7  15
ATOM     15  N   UNL     1       2.035   7.719  21.311  0.00  0.00    +0.000 N 
ATOM     16  H   UNL     1       1.363   7.032  21.650  0.00  0.00    +0.000 HD
ATOM     17  H   UNL     1       2.933   7.319  21.076  0.00  0.00    +0.000 HD
ENDBRANCH   7  15
BRANCH   1  18
ATOM     18  O   UNL     1       3.179   7.635  18.745  0.00  0.00    +0.000 OA
BRANCH  18  22
ATOM     19  C   UNL     1       2.961   3.556  17.795  0.00  0.00    +0.000 A 
ATOM     20  C   UNL     1       3.855   4.409  17.136  0.00  0.00    +0.000 A 
ATOM     21  C   UNL     1       3.921   5.784  17.422  0.00  0.00    +0.000 A 
ATOM     22  C   UNL     1       3.042   6.303  18.389  0.00  0.00    +0.000 A 
ATOM     23  C   UNL     1       2.121   5.460  19.034  0.00  0.00    +0.000 A 
ATOM     24  C   UNL     1       2.062   4.100  18.715  0.00  0.00    +0.000 A 
ATOM     25  I   UNL     1       0.629   2.925  19.692  0.00  0.00    +0.000 I 
BRANCH  21  26
ATOM     26  C   UNL     1       4.979   6.656  16.756  0.00  0.00    +0.000 C 
ATOM     27  C   UNL     1       6.279   6.576  17.562  0.00  0.00    +0.000 C 
ATOM     28  C   UNL     1       5.260   6.311  15.285  0.00  0.00    +0.000 C 
ENDBRANCH  21  26
BRANCH  19  30
ATOM     29  C   UNL     1       3.803   1.439  18.390  0.00  0.00    +0.000 C 
ATOM     30  O   UNL     1       2.935   2.207  17.555  0.00  0.00    +0.000 OA
ENDBRANCH  19  30
ENDBRANCH  18  22
ENDBRANCH   1  18
TORSDOF 8
ENDMDL
MODEL 8
REMARK VINA RESULT:      -6.0      1.480      1.898
REMARK  Name = 
REMARK  13 active torsions:
REMARK  status: ('A' for Active; 'I' for Inactive)
REMARK    1  A    between atoms: C_1  and  O_2
REMARK    2  A    between atoms: O_2  and  C_3
REMARK    3  A    between atoms: C_5  and  C_6
REMARK    4  A    between atoms: C_6  and  C_7
REMARK    5  A    between atoms: C_6  and  C_8
REMARK    6  A    between atoms: C_9  and  O_10
REMARK    7  A    between atoms: O_10  and  C_11
REMARK    8  A    between atoms: N_15  and  C_16
REMARK    9  A    between atoms: C_16  and  C_17
REMARK   10  A    between atoms: C_16  and  C_18
REMARK   11  A    between atoms: C_16  and  C_19
REMARK   12  A    between atoms: C_19  and  O_20
REMARK   13  A    between atoms: C_22  and  N_23
REMARK                            x       y       z     vdW  Elec       q    Type
REMARK                         _______ _______ _______ _____ _____    ______ ____
ROOT
ATOM      1  C   UNL     1       0.469  10.215  19.982  0.00  0.00    +0.000 A 
ATOM      2  C   UNL     1       1.245   9.627  19.016  0.00  0.00    +0.000 A 
ATOM      3  N   UNL     1       1.904   8.474  19.198  0.00  0.00    +0.000 NA
ATOM      4  C   UNL     1       1.737   7.839  20.360  0.00  0.00    +0.000 A 
ATOM      5  N   UNL     1       2.381   6.625  20.557  0.00  0.00    +0.000 N 
ATOM      6  N   UNL     1       0.962   8.296  21.348  0.00  0.00    +0.000 NA
ATOM      7  C   UNL     1       0.340   9.477  21.148  0.00  0.00    +0.000 A 
ATOM      8  H   UNL     1       1.913   6.186  21.343  0.00  0.00    +0.000 HD
ENDROOT
BRANCH   5   9
ATOM      9  C   UNL     1       2.605   5.742  19.389  0.00  0.00    +0.000 C 
ATOM     10  C   UNL     1       4.035   5.178  19.520  0.00  0.00    +0.000 C 
ATOM     11  C   UNL     1       1.626   4.555  19.388  0.00  0.00    +0.000 C 
BRANCH   9  12
ATOM     12  C   UNL     1       2.530   6.521  18.043  0.00  0.00    +0.000 C 
BRANCH  12  13
ATOM     13  O   UNL     1       3.836   6.744  17.506  0.00  0.00    +0.000 OA
ATOM     14  H   UNL     1       4.209   5.848  17.395  0.00  0.00    +0.000 HD
ENDBRANCH  12  13
ENDBRANCH   9  12
ENDBRANCH   5   9
BRANCH   7  15
ATOM     15  N   UNL     1      -0.515   9.894  22.179  0.00  0.00    +0.000 N 
ATOM     16  H   UNL     1      -1.178  10.564  21.794  0.00  0.00    +0.000 HD
ATOM     17  H   UNL     1      -0.959   9.113  22.643  0.00  0.00    +0.000 HD
ENDBRANCH   7  15
BRANCH   1  18
ATOM     18  O   UNL     1      -0.184  11.410  19.834  0.00  0.00    +0.000 OA
BRANCH  18  22
ATOM     19  C   UNL     1      -3.906  11.683  17.922  0.00  0.00    +0.000 A 
ATOM     20  C   UNL     1      -3.710  12.201  19.207  0.00  0.00    +0.000 A 
ATOM     21  C   UNL     1      -2.477  12.092  19.875  0.00  0.00    +0.000 A 
ATOM     22  C   UNL     1      -1.426  11.425  19.221  0.00  0.00    +0.000 A 
ATOM     23  C   UNL     1      -1.623  10.876  17.943  0.00  0.00    +0.000 A 
ATOM     24  C   UNL     1      -2.866  10.980  17.311  0.00  0.00    +0.000 A 
ATOM     25  I   UNL     1      -3.083  10.095  15.424  0.00  0.00    +0.000 I 
BRANCH  21  26
ATOM     26  C   UNL     1      -2.277  12.760  21.231  0.00  0.00    +0.000 C 
ATOM     27  C   UNL     1      -1.985  14.248  21.022  0.00  0.00    +0.000 C 
ATOM     28  C   UNL     1      -3.454  12.596  22.205  0.00  0.00    +0.000 C 
ENDBRANCH  21  26
BRANCH  19  30
ATOM     29  C   UNL     1      -6.233  11.325  17.936  0.00  0.00    +0.000 C 
ATOM     30  O   UNL     1      -5.091  11.838  17.250  0.00  0.00    +0.000 OA
ENDBRANCH  19  30
ENDBRANCH  18  22
ENDBRANCH   1  18
TORSDOF 8
ENDMDL
MODEL 9
REMARK VINA RESULT:      -5.9      3.387      8.199
REMARK  Name = 
REMARK  13 active torsions:
REMARK  status: ('A' for Active; 'I' for Inactive)
REMARK    1  A    between atoms: C_1  and  O_2
REMARK    2  A    between atoms: O_2  and  C_3
REMARK    3  A    between atoms: C_5  and  C_6
REMARK    4  A    between atoms: C_6  and  C_7
REMARK    5  A    between atoms: C_6  and  C_8
REMARK    6  A    between atoms: C_9  and  O_10
REMARK    7  A    between atoms: O_10  and  C_11
REMARK    8  A    between atoms: N_15  and  C_16
REMARK    9  A    between atoms: C_16  and  C_17
REMARK   10  A    between atoms: C_16  and  C_18
REMARK   11  A    between atoms: C_16  and  C_19
REMARK   12  A    between atoms: C_19  and  O_20
REMARK   13  A    between atoms: C_22  and  N_23
REMARK                            x       y       z     vdW  Elec       q    Type
REMARK                         _______ _______ _______ _____ _____    ______ ____
ROOT
ATOM      1  C   UNL     1       1.720   8.043  18.552  0.00  0.00    +0.000 A 
ATOM      2  C   UNL     1       1.593   9.163  17.771  0.00  0.00    +0.000 A 
ATOM      3  N   UNL     1       1.228  10.360  18.249  0.00  0.00    +0.000 NA
ATOM      4  C   UNL     1       1.045  10.474  19.567  0.00  0.00    +0.000 A 
ATOM      5  N   UNL     1       0.700  11.713  20.089  0.00  0.00    +0.000 N 
ATOM      6  N   UNL     1       1.193   9.460  20.424  0.00  0.00    +0.000 NA
ATOM      7  C   UNL     1       1.527   8.259  19.908  0.00  0.00    +0.000 A 
ATOM      8  H   UNL     1       0.888  11.658  21.085  0.00  0.00    +0.000 HD
ENDROOT
BRANCH   5   9
ATOM      9  C   UNL     1       1.215  12.932  19.422  0.00  0.00    +0.000 C 
ATOM     10  C   UNL     1       0.138  13.377  18.409  0.00  0.00    +0.000 C 
ATOM     11  C   UNL     1       1.419  14.078  20.428  0.00  0.00    +0.000 C 
BRANCH   9  12
ATOM     12  C   UNL     1       2.522  12.656  18.625  0.00  0.00    +0.000 C 
BRANCH  12  13
ATOM     13  O   UNL     1       2.341  12.923  17.232  0.00  0.00    +0.000 OA
ATOM     14  H   UNL     1       2.882  13.719  17.065  0.00  0.00    +0.000 HD
ENDBRANCH  12  13
ENDBRANCH   9  12
ENDBRANCH   5   9
BRANCH   7  15
ATOM     15  N   UNL     1       1.738   7.235  20.842  0.00  0.00    +0.000 N 
ATOM     16  H   UNL     1       2.670   6.852  20.694  0.00  0.00    +0.000 HD
ATOM     17  H   UNL     1       1.579   7.547  21.790  0.00  0.00    +0.000 HD
ENDBRANCH   7  15
BRANCH   1  18
ATOM     18  O   UNL     1       2.055   6.800  18.083  0.00  0.00    +0.000 OA
BRANCH  18  22
ATOM     19  C   UNL     1       5.912   5.221  18.547  0.00  0.00    +0.000 A 
ATOM     20  C   UNL     1       4.779   4.504  18.952  0.00  0.00    +0.000 A 
ATOM     21  C   UNL     1       3.481   5.031  18.831  0.00  0.00    +0.000 A 
ATOM     22  C   UNL     1       3.338   6.325  18.299  0.00  0.00    +0.000 A 
ATOM     23  C   UNL     1       4.471   7.063  17.917  0.00  0.00    +0.000 A 
ATOM     24  C   UNL     1       5.752   6.523  18.069  0.00  0.00    +0.000 A 
ATOM     25  I   UNL     1       7.388   7.709  17.515  0.00  0.00    +0.000 I 
BRANCH  21  26
ATOM     26  C   UNL     1       2.270   4.177  19.188  0.00  0.00    +0.000 C 
ATOM     27  C   UNL     1       1.979   3.208  18.039  0.00  0.00    +0.000 C 
ATOM     28  C   UNL     1       2.406   3.393  20.503  0.00  0.00    +0.000 C 
ENDBRANCH  21  26
BRANCH  19  30
ATOM     29  C   UNL     1       7.739   4.341  17.350  0.00  0.00    +0.000 C 
ATOM     30  O   UNL     1       7.172   4.685  18.615  0.00  0.00    +0.000 OA
ENDBRANCH  19  30
ENDBRANCH  18  22
ENDBRANCH   1  18
TORSDOF 8
ENDMDL
