MODEL 1
REMARK VINA RESULT:      -7.4      0.000      0.000
REMARK  Name = 
REMARK  5 active torsions:
REMARK  status: ('A' for Active; 'I' for Inactive)
REMARK    1  A    between atoms: C_2  and  C_3
REMARK    2  A    between atoms: C_3  and  C_4
REMARK    3  A    between atoms: N_11  and  O_12
REMARK    4  A    between atoms: O_12  and  C_13
REMARK    5  A    between atoms: C_13  and  C_15
REMARK                            x       y       z     vdW  Elec       q    Type
REMARK                         _______ _______ _______ _____ _____    ______ ____
ROOT
ATOM      1  N   UNL     1       7.955   4.615  18.550  0.00  0.00    +0.000 NA
ATOM      2  C   UNL     1       6.922   5.256  18.081  0.00  0.00    +0.000 C 
ATOM      3  N   UNL     1       5.752   5.337  18.793  0.00  0.00    +0.000 N 
ATOM      4  H   UNL     1       8.760   4.670  17.919  0.00  0.00    +0.000 HD
ATOM      5  H   UNL     1       4.907   5.580  18.276  0.00  0.00    +0.000 HD
ENDROOT
BRANCH   2   6
ATOM      6  C   UNL     1       6.992   5.988  16.724  0.00  0.00    +0.000 C 
BRANCH   6   7
ATOM      7  C   UNL     1       6.673   5.164  15.486  0.00  0.00    +0.000 A 
ATOM      8  C   UNL     1       5.502   4.376  15.459  0.00  0.00    +0.000 A 
ATOM      9  C   UNL     1       5.143   3.653  14.310  0.00  0.00    +0.000 A 
ATOM     10  C   UNL     1       5.932   3.727  13.173  0.00  0.00    +0.000 A 
ATOM     11 CL   UNL     1       5.472   2.876  11.751  0.00  0.00    +0.000 Cl
ATOM     12  C   UNL     1       7.096   4.500  13.179  0.00  0.00    +0.000 A 
ATOM     13  C   UNL     1       7.465   5.203  14.332  0.00  0.00    +0.000 A 
ENDBRANCH   6   7
ENDBRANCH   2   6
BRANCH   3  14
ATOM     14  O   UNL     1       5.539   4.244  19.664  0.00  0.00    +0.000 OA
BRANCH  14  15
ATOM     15  C   UNL     1       4.377   3.593  19.362  0.00  0.00    +0.000 C 
ATOM     16  O   UNL     1       4.308   2.369  19.298  0.00  0.00    +0.000 OA
BRANCH  15  17
ATOM     17  C   UNL     1       3.221   4.540  19.066  0.00  0.00    +0.000 C 
ATOM     18  C   UNL     1       2.277   3.936  18.012  0.00  0.00    +0.000 C 
ATOM     19  C   UNL     1       1.455   2.770  18.564  0.00  0.00    +0.000 C 
ATOM     20  C   UNL     1       0.691   3.163  19.824  0.00  0.00    +0.000 C 
ATOM     21  C   UNL     1       1.606   3.783  20.875  0.00  0.00    +0.000 C 
ATOM     22  C   UNL     1       2.413   4.948  20.305  0.00  0.00    +0.000 C 
ENDBRANCH  15  17
ENDBRANCH  14  15
ENDBRANCH   3  14
TORSDOF 5
ENDMDL
MODEL 2
REMARK VINA RESULT:      -7.3      3.480      6.424
REMARK  Name = 
REMARK  5 active torsions:
REMARK  status: ('A' for Active; 'I' for Inactive)
REMARK    1  A    between atoms: C_2  and  C_3
REMARK    2  A    between atoms: C_3  and  C_4
REMARK    3  A    between atoms: N_11  and  O_12
REMARK    4  A    between atoms: O_12  and  C_13
REMARK    5  A    between atoms: C_13  and  C_15
REMARK                            x       y       z     vdW  Elec       q    Type
REMARK                         _______ _______ _______ _____ _____    ______ ____
ROOT
ATOM      1  N   UNL     1       4.782   2.820  18.583  0.00  0.00    +0.000 NA
ATOM      2  C   UNL     1       4.216   3.411  17.569  0.00  0.00    +0.000 C 
ATOM      3  N   UNL     1       4.911   3.659  16.413  0.00  0.00    +0.000 N 
ATOM      4  H   UNL     1       4.129   2.677  19.358  0.00  0.00    +0.000 HD
ATOM      5  H   UNL     1       4.532   4.366  15.783  0.00  0.00    +0.000 HD
ENDROOT
BRANCH   2   6
ATOM      6  C   UNL     1       2.728   3.814  17.616  0.00  0.00    +0.000 C 
BRANCH   6   7
ATOM      7  C   UNL     1       2.367   4.995  18.505  0.00  0.00    +0.000 A 
ATOM      8  C   UNL     1       1.869   4.759  19.804  0.00  0.00    +0.000 A 
ATOM      9  C   UNL     1       1.585   5.825  20.674  0.00  0.00    +0.000 A 
ATOM     10  C   UNL     1       1.817   7.128  20.267  0.00  0.00    +0.000 A 
ATOM     11 CL   UNL     1       1.510   8.433  21.346  0.00  0.00    +0.000 Cl
ATOM     12  C   UNL     1       2.307   7.383  18.984  0.00  0.00    +0.000 A 
ATOM     13  C   UNL     1       2.569   6.323  18.110  0.00  0.00    +0.000 A 
ENDBRANCH   6   7
ENDBRANCH   2   6
BRANCH   3  14
ATOM     14  O   UNL     1       6.302   3.822  16.607  0.00  0.00    +0.000 OA
BRANCH  14  15
ATOM     15  C   UNL     1       6.673   5.126  16.448  0.00  0.00    +0.000 C 
ATOM     16  O   UNL     1       7.436   5.487  15.557  0.00  0.00    +0.000 OA
BRANCH  15  17
ATOM     17  C   UNL     1       6.091   6.047  17.513  0.00  0.00    +0.000 C 
ATOM     18  C   UNL     1       6.632   5.683  18.906  0.00  0.00    +0.000 C 
ATOM     19  C   UNL     1       8.103   6.068  19.079  0.00  0.00    +0.000 C 
ATOM     20  C   UNL     1       8.342   7.541  18.764  0.00  0.00    +0.000 C 
ATOM     21  C   UNL     1       7.794   7.928  17.394  0.00  0.00    +0.000 C 
ATOM     22  C   UNL     1       6.324   7.540  17.245  0.00  0.00    +0.000 C 
ENDBRANCH  15  17
ENDBRANCH  14  15
ENDBRANCH   3  14
TORSDOF 5
ENDMDL
MODEL 3
REMARK VINA RESULT:      -7.3      1.032      1.834
REMARK  Name = 
REMARK  5 active torsions:
REMARK  status: ('A' for Active; 'I' for Inactive)
REMARK    1  A    between atoms: C_2  and  C_3
REMARK    2  A    between atoms: C_3  and  C_4
REMARK    3  A    between atoms: N_11  and  O_12
REMARK    4  A    between atoms: O_12  and  C_13
REMARK    5  A    between atoms: C_13  and  C_15
REMARK                            x       y       z     vdW  Elec       q    Type
REMARK                         _______ _______ _______ _____ _____    ______ ____
ROOT
ATOM      1  N   UNL     1       7.303   4.202  18.225  0.00  0.00    +0.000 NA
ATOM      2  C   UNL     1       6.694   5.274  17.805  0.00  0.00    +0.000 C 
ATOM      3  N   UNL     1       5.759   5.910  18.581  0.00  0.00    +0.000 N 
ATOM      4  H   UNL     1       7.993   3.862  17.549  0.00  0.00    +0.000 HD
ATOM      5  H   UNL     1       5.115   6.545  18.109  0.00  0.00    +0.000 HD
ENDROOT
BRANCH   2   6
ATOM      6  C   UNL     1       7.038   5.895  16.435  0.00  0.00    +0.000 C 
BRANCH   6   7
ATOM      7  C   UNL     1       6.578   5.130  15.203  0.00  0.00    +0.000 A 
ATOM      8  C   UNL     1       7.425   5.056  14.076  0.00  0.00    +0.000 A 
ATOM      9  C   UNL     1       7.061   4.307  12.945  0.00  0.00    +0.000 A 
ATOM     10  C   UNL     1       5.865   3.606  12.938  0.00  0.00    +0.000 A 
ATOM     11 CL   UNL     1       5.437   2.653  11.571  0.00  0.00    +0.000 Cl
ATOM     12  C   UNL     1       5.012   3.667  14.042  0.00  0.00    +0.000 A 
ATOM     13  C   UNL     1       5.365   4.432  15.160  0.00  0.00    +0.000 A 
ENDBRANCH   6   7
ENDBRANCH   2   6
BRANCH   3  14
ATOM     14  O   UNL     1       5.085   5.052  19.479  0.00  0.00    +0.000 OA
BRANCH  14  15
ATOM     15  C   UNL     1       3.731   5.162  19.346  0.00  0.00    +0.000 C 
ATOM     16  O   UNL     1       3.126   6.191  19.630  0.00  0.00    +0.000 OA
BRANCH  15  17
ATOM     17  C   UNL     1       3.071   3.874  18.869  0.00  0.00    +0.000 C 
ATOM     18  C   UNL     1       3.502   2.684  19.743  0.00  0.00    +0.000 C 
ATOM     19  C   UNL     1       2.882   2.731  21.141  0.00  0.00    +0.000 C 
ATOM     20  C   UNL     1       1.362   2.847  21.082  0.00  0.00    +0.000 C 
ATOM     21  C   UNL     1       0.913   4.010  20.203  0.00  0.00    +0.000 C 
ATOM     22  C   UNL     1       1.539   3.941  18.811  0.00  0.00    +0.000 C 
ENDBRANCH  15  17
ENDBRANCH  14  15
ENDBRANCH   3  14
TORSDOF 5
ENDMDL
MODEL 4
REMARK VINA RESULT:      -7.3      1.001      1.503
REMARK  Name = 
REMARK  5 active torsions:
REMARK  status: ('A' for Active; 'I' for Inactive)
REMARK    1  A    between atoms: C_2  and  C_3
REMARK    2  A    between atoms: C_3  and  C_4
REMARK    3  A    between atoms: N_11  and  O_12
REMARK    4  A    between atoms: O_12  and  C_13
REMARK    5  A    between atoms: C_13  and  C_15
REMARK                            x       y       z     vdW  Elec       q    Type
REMARK                         _______ _______ _______ _____ _____    ______ ____
ROOT
ATOM      1  N   UNL     1       7.304   5.323  20.094  0.00  0.00    +0.000 NA
ATOM      2  C   UNL     1       6.821   5.366  18.885  0.00  0.00    +0.000 C 
ATOM      3  N   UNL     1       5.526   5.751  18.650  0.00  0.00    +0.000 N 
ATOM      4  H   UNL     1       8.290   5.048  20.104  0.00  0.00    +0.000 HD
ATOM      5  H   UNL     1       5.116   5.489  17.754  0.00  0.00    +0.000 HD
ENDROOT
BRANCH   2   6
ATOM      6  C   UNL     1       7.705   5.028  17.666  0.00  0.00    +0.000 C 
BRANCH   6   7
ATOM      7  C   UNL     1       6.983   4.692  16.370  0.00  0.00    +0.000 A 
ATOM      8  C   UNL     1       7.510   5.148  15.143  0.00  0.00    +0.000 A 
ATOM      9  C   UNL     1       6.906   4.804  13.923  0.00  0.00    +0.000 A 
ATOM     10  C   UNL     1       5.789   3.984  13.913  0.00  0.00    +0.000 A 
ATOM     11 CL   UNL     1       5.072   3.526  12.418  0.00  0.00    +0.000 Cl
ATOM     12  C   UNL     1       5.250   3.523  15.117  0.00  0.00    +0.000 A 
ATOM     13  C   UNL     1       5.839   3.885  16.333  0.00  0.00    +0.000 A 
ENDBRANCH   6   7
ENDBRANCH   2   6
BRANCH   3  14
ATOM     14  O   UNL     1       4.648   5.482  19.726  0.00  0.00    +0.000 OA
BRANCH  14  15
ATOM     15  C   UNL     1       3.883   4.381  19.475  0.00  0.00    +0.000 C 
ATOM     16  O   UNL     1       4.277   3.241  19.706  0.00  0.00    +0.000 OA
BRANCH  15  17
ATOM     17  C   UNL     1       2.540   4.718  18.838  0.00  0.00    +0.000 C 
ATOM     18  C   UNL     1       2.296   3.853  17.589  0.00  0.00    +0.000 C 
ATOM     19  C   UNL     1       2.000   2.394  17.939  0.00  0.00    +0.000 C 
ATOM     20  C   UNL     1       0.844   2.271  18.926  0.00  0.00    +0.000 C 
ATOM     21  C   UNL     1       1.057   3.137  20.163  0.00  0.00    +0.000 C 
ATOM     22  C   UNL     1       1.345   4.591  19.792  0.00  0.00    +0.000 C 
ENDBRANCH  15  17
ENDBRANCH  14  15
ENDBRANCH   3  14
TORSDOF 5
ENDMDL
MODEL 5
REMARK VINA RESULT:      -7.2      1.424      2.121
REMARK  Name = 
REMARK  5 active torsions:
REMARK  status: ('A' for Active; 'I' for Inactive)
REMARK    1  A    between atoms: C_2  and  C_3
REMARK    2  A    between atoms: C_3  and  C_4
REMARK    3  A    between atoms: N_11  and  O_12
REMARK    4  A    between atoms: O_12  and  C_13
REMARK    5  A    between atoms: C_13  and  C_15
REMARK                            x       y       z     vdW  Elec       q    Type
REMARK                         _______ _______ _______ _____ _____    ______ ____
ROOT
ATOM      1  N   UNL     1       6.796   5.006  19.843  0.00  0.00    +0.000 NA
ATOM      2  C   UNL     1       6.383   5.609  18.764  0.00  0.00    +0.000 C 
ATOM      3  N   UNL     1       5.139   6.184  18.704  0.00  0.00    +0.000 N 
ATOM      4  H   UNL     1       7.753   4.657  19.745  0.00  0.00    +0.000 HD
ATOM      5  H   UNL     1       4.757   6.372  17.777  0.00  0.00    +0.000 HD
ENDROOT
BRANCH   2   6
ATOM      6  C   UNL     1       7.298   5.739  17.529  0.00  0.00    +0.000 C 
BRANCH   6   7
ATOM      7  C   UNL     1       6.783   5.136  16.230  0.00  0.00    +0.000 A 
ATOM      8  C   UNL     1       7.489   5.368  15.030  0.00  0.00    +0.000 A 
ATOM      9  C   UNL     1       7.079   4.777  13.824  0.00  0.00    +0.000 A 
ATOM     10  C   UNL     1       5.981   3.931  13.808  0.00  0.00    +0.000 A 
ATOM     11 CL   UNL     1       5.503   3.171  12.341  0.00  0.00    +0.000 Cl
ATOM     12  C   UNL     1       5.268   3.689  14.985  0.00  0.00    +0.000 A 
ATOM     13  C   UNL     1       5.664   4.297  16.182  0.00  0.00    +0.000 A 
ENDBRANCH   6   7
ENDBRANCH   2   6
BRANCH   3  14
ATOM     14  O   UNL     1       4.186   5.570  19.549  0.00  0.00    +0.000 OA
BRANCH  14  15
ATOM     15  C   UNL     1       3.019   5.327  18.883  0.00  0.00    +0.000 C 
ATOM     16  O   UNL     1       2.630   6.038  17.961  0.00  0.00    +0.000 OA
BRANCH  15  17
ATOM     17  C   UNL     1       2.250   4.136  19.440  0.00  0.00    +0.000 C 
ATOM     18  C   UNL     1       1.555   3.358  18.308  0.00  0.00    +0.000 C 
ATOM     19  C   UNL     1       2.547   2.579  17.442  0.00  0.00    +0.000 C 
ATOM     20  C   UNL     1       3.429   1.660  18.280  0.00  0.00    +0.000 C 
ATOM     21  C   UNL     1       4.112   2.408  19.420  0.00  0.00    +0.000 C 
ATOM     22  C   UNL     1       3.104   3.174  20.276  0.00  0.00    +0.000 C 
ENDBRANCH  15  17
ENDBRANCH  14  15
ENDBRANCH   3  14
TORSDOF 5
ENDMDL
MODEL 6
REMARK VINA RESULT:      -7.1      1.088      1.719
REMARK  Name = 
REMARK  5 active torsions:
REMARK  status: ('A' for Active; 'I' for Inactive)
REMARK    1  A    between atoms: C_2  and  C_3
REMARK    2  A    between atoms: C_3  and  C_4
REMARK    3  A    between atoms: N_11  and  O_12
REMARK    4  A    between atoms: O_12  and  C_13
REMARK    5  A    between atoms: C_13  and  C_15
REMARK                            x       y       z     vdW  Elec       q    Type
REMARK                         _______ _______ _______ _____ _____    ______ ____
ROOT
ATOM      1  N   UNL     1       7.215   4.199  18.195  0.00  0.00    +0.000 NA
ATOM      2  C   UNL     1       6.708   5.347  17.845  0.00  0.00    +0.000 C 
ATOM      3  N   UNL     1       5.933   6.074  18.711  0.00  0.00    +0.000 N 
ATOM      4  H   UNL     1       7.794   3.793  17.454  0.00  0.00    +0.000 HD
ATOM      5  H   UNL     1       5.331   6.793  18.308  0.00  0.00    +0.000 HD
ENDROOT
BRANCH   2   6
ATOM      6  C   UNL     1       7.000   5.952  16.456  0.00  0.00    +0.000 C 
BRANCH   6   7
ATOM      7  C   UNL     1       6.619   5.108  15.249  0.00  0.00    +0.000 A 
ATOM      8  C   UNL     1       5.380   4.433  15.236  0.00  0.00    +0.000 A 
ATOM      9  C   UNL     1       4.969   3.696  14.113  0.00  0.00    +0.000 A 
ATOM     10  C   UNL     1       5.775   3.647  12.988  0.00  0.00    +0.000 A 
ATOM     11 CL   UNL     1       5.253   2.781  11.595  0.00  0.00    +0.000 Cl
ATOM     12  C   UNL     1       7.006   4.306  12.980  0.00  0.00    +0.000 A 
ATOM     13  C   UNL     1       7.426   5.021  14.107  0.00  0.00    +0.000 A 
ENDBRANCH   6   7
ENDBRANCH   2   6
BRANCH   3  14
ATOM     14  O   UNL     1       5.242   5.284  19.658  0.00  0.00    +0.000 OA
BRANCH  14  15
ATOM     15  C   UNL     1       3.890   5.420  19.522  0.00  0.00    +0.000 C 
ATOM     16  O   UNL     1       3.371   6.461  19.130  0.00  0.00    +0.000 OA
BRANCH  15  17
ATOM     17  C   UNL     1       3.118   4.180  19.957  0.00  0.00    +0.000 C 
ATOM     18  C   UNL     1       1.698   4.186  19.366  0.00  0.00    +0.000 C 
ATOM     19  C   UNL     1       1.692   3.918  17.860  0.00  0.00    +0.000 C 
ATOM     20  C   UNL     1       2.426   2.627  17.513  0.00  0.00    +0.000 C 
ATOM     21  C   UNL     1       3.830   2.591  18.107  0.00  0.00    +0.000 C 
ATOM     22  C   UNL     1       3.813   2.856  19.612  0.00  0.00    +0.000 C 
ENDBRANCH  15  17
ENDBRANCH  14  15
ENDBRANCH   3  14
TORSDOF 5
ENDMDL
MODEL 7
REMARK VINA RESULT:      -7.1      0.922      1.629
REMARK  Name = 
REMARK  5 active torsions:
REMARK  status: ('A' for Active; 'I' for Inactive)
REMARK    1  A    between atoms: C_2  and  C_3
REMARK    2  A    between atoms: C_3  and  C_4
REMARK    3  A    between atoms: N_11  and  O_12
REMARK    4  A    between atoms: O_12  and  C_13
REMARK    5  A    between atoms: C_13  and  C_15
REMARK                            x       y       z     vdW  Elec       q    Type
REMARK                         _______ _______ _______ _____ _____    ______ ____
ROOT
ATOM      1  N   UNL     1       7.810   4.335  18.194  0.00  0.00    +0.000 NA
ATOM      2  C   UNL     1       6.825   5.039  17.712  0.00  0.00    +0.000 C 
ATOM      3  N   UNL     1       5.648   5.178  18.402  0.00  0.00    +0.000 N 
ATOM      4  H   UNL     1       8.630   4.352  17.581  0.00  0.00    +0.000 HD
ATOM      5  H   UNL     1       4.829   5.474  17.871  0.00  0.00    +0.000 HD
ENDROOT
BRANCH   2   6
ATOM      6  C   UNL     1       6.965   5.782  16.368  0.00  0.00    +0.000 C 
BRANCH   6   7
ATOM      7  C   UNL     1       6.610   4.998  15.113  0.00  0.00    +0.000 A 
ATOM      8  C   UNL     1       5.359   4.349  15.031  0.00  0.00    +0.000 A 
ATOM      9  C   UNL     1       4.972   3.670  13.865  0.00  0.00    +0.000 A 
ATOM     10  C   UNL     1       5.814   3.652  12.765  0.00  0.00    +0.000 A 
ATOM     11 CL   UNL     1       5.323   2.857  11.320  0.00  0.00    +0.000 Cl
ATOM     12  C   UNL     1       7.057   4.286  12.826  0.00  0.00    +0.000 A 
ATOM     13  C   UNL     1       7.452   4.944  13.996  0.00  0.00    +0.000 A 
ENDBRANCH   6   7
ENDBRANCH   2   6
BRANCH   3  14
ATOM     14  O   UNL     1       5.354   4.087  19.253  0.00  0.00    +0.000 OA
BRANCH  14  15
ATOM     15  C   UNL     1       4.110   4.210  19.801  0.00  0.00    +0.000 C 
ATOM     16  O   UNL     1       3.561   5.298  19.946  0.00  0.00    +0.000 OA
BRANCH  15  17
ATOM     17  C   UNL     1       3.521   2.878  20.251  0.00  0.00    +0.000 C 
ATOM     18  C   UNL     1       2.128   3.080  20.872  0.00  0.00    +0.000 C 
ATOM     19  C   UNL     1       1.069   3.432  19.826  0.00  0.00    +0.000 C 
ATOM     20  C   UNL     1       1.025   2.407  18.698  0.00  0.00    +0.000 C 
ATOM     21  C   UNL     1       2.401   2.177  18.082  0.00  0.00    +0.000 C 
ATOM     22  C   UNL     1       3.442   1.821  19.142  0.00  0.00    +0.000 C 
ENDBRANCH  15  17
ENDBRANCH  14  15
ENDBRANCH   3  14
TORSDOF 5
ENDMDL
MODEL 8
REMARK VINA RESULT:      -7.1      1.584      2.353
REMARK  Name = 
REMARK  5 active torsions:
REMARK  status: ('A' for Active; 'I' for Inactive)
REMARK    1  A    between atoms: C_2  and  C_3
REMARK    2  A    between atoms: C_3  and  C_4
REMARK    3  A    between atoms: N_11  and  O_12
REMARK    4  A    between atoms: O_12  and  C_13
REMARK    5  A    between atoms: C_13  and  C_15
REMARK                            x       y       z     vdW  Elec       q    Type
REMARK                         _______ _______ _______ _____ _____    ______ ____
ROOT
ATOM      1  N   UNL     1       5.669   3.777  18.989  0.00  0.00    +0.000 NA
ATOM      2  C   UNL     1       5.266   5.013  18.904  0.00  0.00    +0.000 C 
ATOM      3  N   UNL     1       4.332   5.517  19.773  0.00  0.00    +0.000 N 
ATOM      4  H   UNL     1       6.389   3.559  18.294  0.00  0.00    +0.000 HD
ATOM      5  H   UNL     1       3.842   6.366  19.490  0.00  0.00    +0.000 HD
ENDROOT
BRANCH   2   6
ATOM      6  C   UNL     1       5.860   5.970  17.850  0.00  0.00    +0.000 C 
BRANCH   6   7
ATOM      7  C   UNL     1       5.998   5.428  16.435  0.00  0.00    +0.000 A 
ATOM      8  C   UNL     1       7.279   5.334  15.849  0.00  0.00    +0.000 A 
ATOM      9  C   UNL     1       7.450   4.781  14.569  0.00  0.00    +0.000 A 
ATOM     10  C   UNL     1       6.354   4.295  13.875  0.00  0.00    +0.000 A 
ATOM     11 CL   UNL     1       6.567   3.577  12.326  0.00  0.00    +0.000 Cl
ATOM     12  C   UNL     1       5.077   4.380  14.436  0.00  0.00    +0.000 A 
ATOM     13  C   UNL     1       4.904   4.952  15.702  0.00  0.00    +0.000 A 
ENDBRANCH   6   7
ENDBRANCH   2   6
BRANCH   3  14
ATOM     14  O   UNL     1       3.441   4.543  20.279  0.00  0.00    +0.000 OA
BRANCH  14  15
ATOM     15  C   UNL     1       2.145   4.955  20.170  0.00  0.00    +0.000 C 
ATOM     16  O   UNL     1       1.788   6.088  20.480  0.00  0.00    +0.000 OA
BRANCH  15  17
ATOM     17  C   UNL     1       1.206   3.857  19.686  0.00  0.00    +0.000 C 
ATOM     18  C   UNL     1       1.050   3.908  18.156  0.00  0.00    +0.000 C 
ATOM     19  C   UNL     1       2.310   3.443  17.425  0.00  0.00    +0.000 C 
ATOM     20  C   UNL     1       2.753   2.058  17.885  0.00  0.00    +0.000 C 
ATOM     21  C   UNL     1       2.895   1.980  19.402  0.00  0.00    +0.000 C 
ATOM     22  C   UNL     1       1.624   2.443  20.112  0.00  0.00    +0.000 C 
ENDBRANCH  15  17
ENDBRANCH  14  15
ENDBRANCH   3  14
TORSDOF 5
ENDMDL
MODEL 9
REMARK VINA RESULT:      -7.1      1.270      1.761
REMARK  Name = 
REMARK  5 active torsions:
REMARK  status: ('A' for Active; 'I' for Inactive)
REMARK    1  A    between atoms: C_2  and  C_3
REMARK    2  A    between atoms: C_3  and  C_4
REMARK    3  A    between atoms: N_11  and  O_12
REMARK    4  A    between atoms: O_12  and  C_13
REMARK    5  A    between atoms: C_13  and  C_15
REMARK                            x       y       z     vdW  Elec       q    Type
REMARK                         _______ _______ _______ _____ _____    ______ ____
ROOT
ATOM      1  N   UNL     1       6.742   5.033  19.581  0.00  0.00    +0.000 NA
ATOM      2  C   UNL     1       6.305   5.677  18.535  0.00  0.00    +0.000 C 
ATOM      3  N   UNL     1       5.040   6.205  18.504  0.00  0.00    +0.000 N 
ATOM      4  H   UNL     1       7.712   4.727  19.466  0.00  0.00    +0.000 HD
ATOM      5  H   UNL     1       4.650   6.428  17.588  0.00  0.00    +0.000 HD
ENDROOT
BRANCH   2   6
ATOM      6  C   UNL     1       7.214   5.909  17.311  0.00  0.00    +0.000 C 
BRANCH   6   7
ATOM      7  C   UNL     1       6.846   5.167  16.035  0.00  0.00    +0.000 A 
ATOM      8  C   UNL     1       5.752   4.275  16.042  0.00  0.00    +0.000 A 
ATOM      9  C   UNL     1       5.346   3.621  14.868  0.00  0.00    +0.000 A 
ATOM     10  C   UNL     1       6.007   3.868  13.676  0.00  0.00    +0.000 A 
ATOM     11 CL   UNL     1       5.483   3.100  12.228  0.00  0.00    +0.000 Cl
ATOM     12  C   UNL     1       7.093   4.745  13.648  0.00  0.00    +0.000 A 
ATOM     13  C   UNL     1       7.513   5.380  14.822  0.00  0.00    +0.000 A 
ENDBRANCH   6   7
ENDBRANCH   2   6
BRANCH   3  14
ATOM     14  O   UNL     1       4.112   5.509  19.312  0.00  0.00    +0.000 OA
BRANCH  14  15
ATOM     15  C   UNL     1       3.111   4.965  18.559  0.00  0.00    +0.000 C 
ATOM     16  O   UNL     1       2.276   5.654  17.981  0.00  0.00    +0.000 OA
BRANCH  15  17
ATOM     17  C   UNL     1       3.118   3.441  18.567  0.00  0.00    +0.000 C 
ATOM     18  C   UNL     1       3.668   2.905  19.900  0.00  0.00    +0.000 C 
ATOM     19  C   UNL     1       2.693   3.114  21.060  0.00  0.00    +0.000 C 
ATOM     20  C   UNL     1       1.318   2.527  20.756  0.00  0.00    +0.000 C 
ATOM     21  C   UNL     1       0.764   3.031  19.428  0.00  0.00    +0.000 C 
ATOM     22  C   UNL     1       1.750   2.807  18.283  0.00  0.00    +0.000 C 
ENDBRANCH  15  17
ENDBRANCH  14  15
ENDBRANCH   3  14
TORSDOF 5
ENDMDL
