MODEL 1
REMARK VINA RESULT:      -9.1      0.000      0.000
REMARK  Name = 
REMARK  6 active torsions:
REMARK  status: ('A' for Active; 'I' for Inactive)
REMARK    1  A    between atoms: C_2  and  C_3
REMARK    2  A    between atoms: C_2  and  C_9
REMARK    3  A    between atoms: C_11  and  C_12
REMARK    4  A    between atoms: C_12  and  C_14
REMARK    5  A    between atoms: N_17  and  C_18
REMARK    6  A    between atoms: C_21  and  O_22
REMARK                            x       y       z     vdW  Elec       q    Type
REMARK                         _______ _______ _______ _____ _____    ______ ____
ROOT
ATOM      1  C   UNL     1       5.323   4.850  16.741  0.00  0.00    +0.000 A 
ATOM      2  C   UNL     1       4.326   3.897  17.053  0.00  0.00    +0.000 A 
ATOM      3  C   UNL     1       3.222   4.534  17.612  0.00  0.00    +0.000 A 
ATOM      4  N   UNL     1       3.544   5.893  17.691  0.00  0.00    +0.000 N 
ATOM      5  C   UNL     1       4.774   6.070  17.076  0.00  0.00    +0.000 A 
ENDROOT
BRANCH   4   6
ATOM      6  C   UNL     1       2.818   6.963  18.298  0.00  0.00    +0.000 A 
ATOM      7  C   UNL     1       2.522   8.117  17.547  0.00  0.00    +0.000 A 
ATOM      8  C   UNL     1       1.811   9.178  18.121  0.00  0.00    +0.000 A 
ATOM      9  C   UNL     1       1.405   9.093  19.448  0.00  0.00    +0.000 A 
ATOM     10  C   UNL     1       1.719   7.965  20.201  0.00  0.00    +0.000 A 
ATOM     11  F   UNL     1       1.348   7.883  21.486  0.00  0.00    +0.000 F 
ATOM     12  C   UNL     1       2.435   6.909  19.640  0.00  0.00    +0.000 A 
BRANCH   9  13
ATOM     13  O   UNL     1       0.705  10.110  20.033  0.00  0.00    +0.000 OA
ATOM     14  H   UNL     1      -0.236  10.015  19.818  0.00  0.00    +0.000 HD
ENDBRANCH   9  13
ENDBRANCH   4   6
BRANCH   1  16
ATOM     15  O   UNL     1       7.665   4.611  16.841  0.00  0.00    +0.000 OA
ATOM     16  C   UNL     1       6.649   4.654  16.156  0.00  0.00    +0.000 C 
BRANCH  16  17
ATOM     17  C   UNL     1       6.756   4.507  14.678  0.00  0.00    +0.000 A 
ATOM     18  C   UNL     1       5.995   3.555  13.983  0.00  0.00    +0.000 A 
ATOM     19  C   UNL     1       6.092   3.458  12.596  0.00  0.00    +0.000 A 
ATOM     20  C   UNL     1       6.967   4.289  11.898  0.00  0.00    +0.000 A 
ATOM     21  C   UNL     1       7.754   5.214  12.587  0.00  0.00    +0.000 A 
ATOM     22  C   UNL     1       7.653   5.321  13.977  0.00  0.00    +0.000 A 
ENDBRANCH  16  17
ENDBRANCH   1  16
BRANCH   3  23
ATOM     23  C   UNL     1       1.944   3.892  17.935  0.00  0.00    +0.000 C 
ATOM     24  O   UNL     1       0.925   4.016  17.253  0.00  0.00    +0.000 OA
BRANCH  23  25
ATOM     25  C   UNL     1       1.918   2.959  19.145  0.00  0.00    +0.000 C 
ATOM     26  F   UNL     1       0.645   2.676  19.546  0.00  0.00    +0.000 F 
ATOM     27  F   UNL     1       2.508   1.753  18.894  0.00  0.00    +0.000 F 
ENDBRANCH  23  25
ENDBRANCH   3  23
TORSDOF 6
ENDMDL
MODEL 2
REMARK VINA RESULT:      -9.1      0.483      1.133
REMARK  Name = 
REMARK  6 active torsions:
REMARK  status: ('A' for Active; 'I' for Inactive)
REMARK    1  A    between atoms: C_2  and  C_3
REMARK    2  A    between atoms: C_2  and  C_9
REMARK    3  A    between atoms: C_11  and  C_12
REMARK    4  A    between atoms: C_12  and  C_14
REMARK    5  A    between atoms: N_17  and  C_18
REMARK    6  A    between atoms: C_21  and  O_22
REMARK                            x       y       z     vdW  Elec       q    Type
REMARK                         _______ _______ _______ _____ _____    ______ ____
ROOT
ATOM      1  C   UNL     1       5.433   4.770  16.715  0.00  0.00    +0.000 A 
ATOM      2  C   UNL     1       4.468   3.800  17.075  0.00  0.00    +0.000 A 
ATOM      3  C   UNL     1       3.362   4.423  17.644  0.00  0.00    +0.000 A 
ATOM      4  N   UNL     1       3.650   5.791  17.681  0.00  0.00    +0.000 N 
ATOM      5  C   UNL     1       4.860   5.983  17.032  0.00  0.00    +0.000 A 
ENDROOT
BRANCH   4   6
ATOM      6  C   UNL     1       2.911   6.858  18.279  0.00  0.00    +0.000 A 
ATOM      7  C   UNL     1       2.650   8.025  17.536  0.00  0.00    +0.000 A 
ATOM      8  C   UNL     1       1.927   9.083  18.100  0.00  0.00    +0.000 A 
ATOM      9  C   UNL     1       1.475   8.982  19.412  0.00  0.00    +0.000 A 
ATOM     10  C   UNL     1       1.755   7.840  20.158  0.00  0.00    +0.000 A 
ATOM     11  F   UNL     1       1.338   7.742  21.428  0.00  0.00    +0.000 F 
ATOM     12  C   UNL     1       2.482   6.787  19.606  0.00  0.00    +0.000 A 
BRANCH   9  13
ATOM     13  O   UNL     1       0.763   9.995  19.987  0.00  0.00    +0.000 OA
ATOM     14  H   UNL     1       1.348  10.509  20.565  0.00  0.00    +0.000 HD
ENDBRANCH   9  13
ENDBRANCH   4   6
BRANCH   1  16
ATOM     15  O   UNL     1       7.776   4.520  16.771  0.00  0.00    +0.000 OA
ATOM     16  C   UNL     1       6.749   4.593  16.103  0.00  0.00    +0.000 C 
BRANCH  16  17
ATOM     17  C   UNL     1       6.834   4.501  14.618  0.00  0.00    +0.000 A 
ATOM     18  C   UNL     1       7.703   5.323  13.886  0.00  0.00    +0.000 A 
ATOM     19  C   UNL     1       7.785   5.196  12.500  0.00  0.00    +0.000 A 
ATOM     20  C   UNL     1       6.983   4.270  11.836  0.00  0.00    +0.000 A 
ATOM     21  C   UNL     1       6.089   3.474  12.555  0.00  0.00    +0.000 A 
ATOM     22  C   UNL     1       6.011   3.592  13.946  0.00  0.00    +0.000 A 
ENDBRANCH  16  17
ENDBRANCH   1  16
BRANCH   3  23
ATOM     23  C   UNL     1       2.109   3.757  18.015  0.00  0.00    +0.000 C 
ATOM     24  O   UNL     1       1.055   3.890  17.390  0.00  0.00    +0.000 OA
BRANCH  23  25
ATOM     25  C   UNL     1       2.156   2.789  19.196  0.00  0.00    +0.000 C 
ATOM     26  F   UNL     1       2.550   1.539  18.818  0.00  0.00    +0.000 F 
ATOM     27  F   UNL     1       3.033   3.181  20.166  0.00  0.00    +0.000 F 
ENDBRANCH  23  25
ENDBRANCH   3  23
TORSDOF 6
ENDMDL
MODEL 3
REMARK VINA RESULT:      -9.0      0.898      1.613
REMARK  Name = 
REMARK  6 active torsions:
REMARK  status: ('A' for Active; 'I' for Inactive)
REMARK    1  A    between atoms: C_2  and  C_3
REMARK    2  A    between atoms: C_2  and  C_9
REMARK    3  A    between atoms: C_11  and  C_12
REMARK    4  A    between atoms: C_12  and  C_14
REMARK    5  A    between atoms: N_17  and  C_18
REMARK    6  A    between atoms: C_21  and  O_22
REMARK                            x       y       z     vdW  Elec       q    Type
REMARK                         _______ _______ _______ _____ _____    ______ ____
ROOT
ATOM      1  C   UNL     1       5.380   4.794  16.743  0.00  0.00    +0.000 A 
ATOM      2  C   UNL     1       4.380   3.840  17.045  0.00  0.00    +0.000 A 
ATOM      3  C   UNL     1       3.281   4.474  17.618  0.00  0.00    +0.000 A 
ATOM      4  N   UNL     1       3.609   5.830  17.715  0.00  0.00    +0.000 N 
ATOM      5  C   UNL     1       4.837   6.011  17.097  0.00  0.00    +0.000 A 
ENDROOT
BRANCH   4   6
ATOM      6  C   UNL     1       2.891   6.895  18.341  0.00  0.00    +0.000 A 
ATOM      7  C   UNL     1       2.438   6.744  19.666  0.00  0.00    +0.000 A 
ATOM      8  C   UNL     1       1.732   7.774  20.300  0.00  0.00    +0.000 A 
ATOM      9  C   UNL     1       1.467   8.951  19.607  0.00  0.00    +0.000 A 
ATOM     10  C   UNL     1       1.889   9.092  18.288  0.00  0.00    +0.000 A 
ATOM     11  F   UNL     1       1.622  10.216  17.608  0.00  0.00    +0.000 F 
ATOM     12  C   UNL     1       2.584   8.067  17.648  0.00  0.00    +0.000 A 
BRANCH   9  13
ATOM     13  O   UNL     1       0.786   9.974  20.201  0.00  0.00    +0.000 OA
ATOM     14  H   UNL     1      -0.079  10.074  19.773  0.00  0.00    +0.000 HD
ENDBRANCH   9  13
ENDBRANCH   4   6
BRANCH   1  16
ATOM     15  O   UNL     1       7.718   4.512  16.831  0.00  0.00    +0.000 OA
ATOM     16  C   UNL     1       6.702   4.601  16.149  0.00  0.00    +0.000 C 
BRANCH  16  17
ATOM     17  C   UNL     1       6.807   4.513  14.665  0.00  0.00    +0.000 A 
ATOM     18  C   UNL     1       7.671   5.350  13.945  0.00  0.00    +0.000 A 
ATOM     19  C   UNL     1       7.772   5.226  12.560  0.00  0.00    +0.000 A 
ATOM     20  C   UNL     1       6.994   4.287  11.885  0.00  0.00    +0.000 A 
ATOM     21  C   UNL     1       6.106   3.475  12.592  0.00  0.00    +0.000 A 
ATOM     22  C   UNL     1       6.008   3.590  13.982  0.00  0.00    +0.000 A 
ENDBRANCH  16  17
ENDBRANCH   1  16
BRANCH   3  23
ATOM     23  C   UNL     1       2.002   3.832  17.938  0.00  0.00    +0.000 C 
ATOM     24  O   UNL     1       0.983   3.964  17.257  0.00  0.00    +0.000 OA
BRANCH  23  25
ATOM     25  C   UNL     1       1.974   2.892  19.142  0.00  0.00    +0.000 C 
ATOM     26  F   UNL     1       0.722   2.774  19.671  0.00  0.00    +0.000 F 
ATOM     27  F   UNL     1       2.369   1.622  18.829  0.00  0.00    +0.000 F 
ENDBRANCH  23  25
ENDBRANCH   3  23
TORSDOF 6
ENDMDL
MODEL 4
REMARK VINA RESULT:      -8.8      1.003      1.488
REMARK  Name = 
REMARK  6 active torsions:
REMARK  status: ('A' for Active; 'I' for Inactive)
REMARK    1  A    between atoms: C_2  and  C_3
REMARK    2  A    between atoms: C_2  and  C_9
REMARK    3  A    between atoms: C_11  and  C_12
REMARK    4  A    between atoms: C_12  and  C_14
REMARK    5  A    between atoms: N_17  and  C_18
REMARK    6  A    between atoms: C_21  and  O_22
REMARK                            x       y       z     vdW  Elec       q    Type
REMARK                         _______ _______ _______ _____ _____    ______ ____
ROOT
ATOM      1  C   UNL     1       5.420   4.655  16.747  0.00  0.00    +0.000 A 
ATOM      2  C   UNL     1       4.464   3.684  17.127  0.00  0.00    +0.000 A 
ATOM      3  C   UNL     1       3.368   4.306  17.716  0.00  0.00    +0.000 A 
ATOM      4  N   UNL     1       3.654   5.675  17.745  0.00  0.00    +0.000 N 
ATOM      5  C   UNL     1       4.851   5.868  17.073  0.00  0.00    +0.000 A 
ENDROOT
BRANCH   4   6
ATOM      6  C   UNL     1       2.925   6.741  18.354  0.00  0.00    +0.000 A 
ATOM      7  C   UNL     1       2.547   6.642  19.707  0.00  0.00    +0.000 A 
ATOM      8  C   UNL     1       1.832   7.674  20.326  0.00  0.00    +0.000 A 
ATOM      9  C   UNL     1       1.483   8.803  19.591  0.00  0.00    +0.000 A 
ATOM     10  C   UNL     1       1.832   8.892  18.247  0.00  0.00    +0.000 A 
ATOM     11  F   UNL     1       1.485   9.969  17.527  0.00  0.00    +0.000 F 
ATOM     12  C   UNL     1       2.535   7.864  17.621  0.00  0.00    +0.000 A 
BRANCH   9  13
ATOM     13  O   UNL     1       0.792   9.828  20.169  0.00  0.00    +0.000 OA
ATOM     14  H   UNL     1       1.355  10.262  20.829  0.00  0.00    +0.000 HD
ENDBRANCH   9  13
ENDBRANCH   4   6
BRANCH   1  16
ATOM     15  O   UNL     1       7.761   4.381  16.760  0.00  0.00    +0.000 OA
ATOM     16  C   UNL     1       6.725   4.479  16.110  0.00  0.00    +0.000 C 
BRANCH  16  17
ATOM     17  C   UNL     1       6.786   4.421  14.623  0.00  0.00    +0.000 A 
ATOM     18  C   UNL     1       5.891   3.629  13.887  0.00  0.00    +0.000 A 
ATOM     19  C   UNL     1       5.950   3.616  12.495  0.00  0.00    +0.000 A 
ATOM     20  C   UNL     1       6.917   4.369  11.830  0.00  0.00    +0.000 A 
ATOM     21  C   UNL     1       7.833   5.131  12.558  0.00  0.00    +0.000 A 
ATOM     22  C   UNL     1       7.772   5.154  13.954  0.00  0.00    +0.000 A 
ENDBRANCH  16  17
ENDBRANCH   1  16
BRANCH   3  23
ATOM     23  C   UNL     1       2.123   3.639  18.111  0.00  0.00    +0.000 C 
ATOM     24  O   UNL     1       1.084   3.685  17.450  0.00  0.00    +0.000 OA
BRANCH  23  25
ATOM     25  C   UNL     1       2.162   2.779  19.374  0.00  0.00    +0.000 C 
ATOM     26  F   UNL     1       3.267   3.034  20.133  0.00  0.00    +0.000 F 
ATOM     27  F   UNL     1       1.089   2.993  20.191  0.00  0.00    +0.000 F 
ENDBRANCH  23  25
ENDBRANCH   3  23
TORSDOF 6
ENDMDL
MODEL 5
REMARK VINA RESULT:      -8.7      1.130      1.221
REMARK  Name = 
REMARK  6 active torsions:
REMARK  status: ('A' for Active; 'I' for Inactive)
REMARK    1  A    between atoms: C_2  and  C_3
REMARK    2  A    between atoms: C_2  and  C_9
REMARK    3  A    between atoms: C_11  and  C_12
REMARK    4  A    between atoms: C_12  and  C_14
REMARK    5  A    between atoms: N_17  and  C_18
REMARK    6  A    between atoms: C_21  and  O_22
REMARK                            x       y       z     vdW  Elec       q    Type
REMARK                         _______ _______ _______ _____ _____    ______ ____
ROOT
ATOM      1  C   UNL     1       5.462   5.534  16.666  0.00  0.00    +0.000 A 
ATOM      2  C   UNL     1       4.889   4.466  17.395  0.00  0.00    +0.000 A 
ATOM      3  C   UNL     1       3.779   4.919  18.102  0.00  0.00    +0.000 A 
ATOM      4  N   UNL     1       3.678   6.291  17.849  0.00  0.00    +0.000 N 
ATOM      5  C   UNL     1       4.645   6.618  16.910  0.00  0.00    +0.000 A 
ENDROOT
BRANCH   4   6
ATOM      6  C   UNL     1       2.797   7.257  18.425  0.00  0.00    +0.000 A 
ATOM      7  C   UNL     1       2.353   8.344  17.649  0.00  0.00    +0.000 A 
ATOM      8  C   UNL     1       1.489   9.303  18.191  0.00  0.00    +0.000 A 
ATOM      9  C   UNL     1       1.076   9.183  19.514  0.00  0.00    +0.000 A 
ATOM     10  C   UNL     1       1.534   8.123  20.292  0.00  0.00    +0.000 A 
ATOM     11  F   UNL     1       1.155   8.010  21.573  0.00  0.00    +0.000 F 
ATOM     12  C   UNL     1       2.402   7.171  19.762  0.00  0.00    +0.000 A 
BRANCH   9  13
ATOM     13  O   UNL     1       0.228  10.098  20.069  0.00  0.00    +0.000 OA
ATOM     14  H   UNL     1      -0.627   9.677  20.246  0.00  0.00    +0.000 HD
ENDBRANCH   9  13
ENDBRANCH   4   6
BRANCH   1  16
ATOM     15  O   UNL     1       7.686   6.092  16.122  0.00  0.00    +0.000 OA
ATOM     16  C   UNL     1       6.638   5.545  15.796  0.00  0.00    +0.000 C 
BRANCH  16  17
ATOM     17  C   UNL     1       6.546   4.866  14.473  0.00  0.00    +0.000 A 
ATOM     18  C   UNL     1       5.486   4.001  14.169  0.00  0.00    +0.000 A 
ATOM     19  C   UNL     1       5.408   3.403  12.913  0.00  0.00    +0.000 A 
ATOM     20  C   UNL     1       6.400   3.642  11.963  0.00  0.00    +0.000 A 
ATOM     21  C   UNL     1       7.478   4.475  12.271  0.00  0.00    +0.000 A 
ATOM     22  C   UNL     1       7.554   5.084  13.527  0.00  0.00    +0.000 A 
ENDBRANCH  16  17
ENDBRANCH   1  16
BRANCH   3  23
ATOM     23  C   UNL     1       2.853   4.073  18.861  0.00  0.00    +0.000 C 
ATOM     24  O   UNL     1       3.021   3.766  20.043  0.00  0.00    +0.000 OA
BRANCH  23  25
ATOM     25  C   UNL     1       1.576   3.624  18.152  0.00  0.00    +0.000 C 
ATOM     26  F   UNL     1       0.578   3.325  19.033  0.00  0.00    +0.000 F 
ATOM     27  F   UNL     1       1.067   4.583  17.323  0.00  0.00    +0.000 F 
ENDBRANCH  23  25
ENDBRANCH   3  23
TORSDOF 6
ENDMDL
MODEL 6
REMARK VINA RESULT:      -8.6      1.329      1.695
REMARK  Name = 
REMARK  6 active torsions:
REMARK  status: ('A' for Active; 'I' for Inactive)
REMARK    1  A    between atoms: C_2  and  C_3
REMARK    2  A    between atoms: C_2  and  C_9
REMARK    3  A    between atoms: C_11  and  C_12
REMARK    4  A    between atoms: C_12  and  C_14
REMARK    5  A    between atoms: N_17  and  C_18
REMARK    6  A    between atoms: C_21  and  O_22
REMARK                            x       y       z     vdW  Elec       q    Type
REMARK                         _______ _______ _______ _____ _____    ______ ____
ROOT
ATOM      1  C   UNL     1       5.641   4.709  17.108  0.00  0.00    +0.000 A 
ATOM      2  C   UNL     1       4.867   3.728  17.771  0.00  0.00    +0.000 A 
ATOM      3  C   UNL     1       3.745   4.320  18.344  0.00  0.00    +0.000 A 
ATOM      4  N   UNL     1       3.836   5.690  18.075  0.00  0.00    +0.000 N 
ATOM      5  C   UNL     1       4.934   5.884  17.251  0.00  0.00    +0.000 A 
ENDROOT
BRANCH   4   6
ATOM      6  C   UNL     1       3.015   6.762  18.541  0.00  0.00    +0.000 A 
ATOM      7  C   UNL     1       2.482   6.715  19.843  0.00  0.00    +0.000 A 
ATOM      8  C   UNL     1       1.675   7.754  20.322  0.00  0.00    +0.000 A 
ATOM      9  C   UNL     1       1.390   8.837  19.496  0.00  0.00    +0.000 A 
ATOM     10  C   UNL     1       1.893   8.873  18.199  0.00  0.00    +0.000 A 
ATOM     11  F   UNL     1       1.608   9.904  17.391  0.00  0.00    +0.000 F 
ATOM     12  C   UNL     1       2.688   7.838  17.712  0.00  0.00    +0.000 A 
BRANCH   9  13
ATOM     13  O   UNL     1       0.611   9.867  19.938  0.00  0.00    +0.000 OA
ATOM     14  H   UNL     1       0.586  10.562  19.261  0.00  0.00    +0.000 HD
ENDBRANCH   9  13
ENDBRANCH   4   6
BRANCH   1  16
ATOM     15  O   UNL     1       7.985   4.530  16.950  0.00  0.00    +0.000 OA
ATOM     16  C   UNL     1       6.900   4.566  16.378  0.00  0.00    +0.000 C 
BRANCH  16  17
ATOM     17  C   UNL     1       6.852   4.463  14.893  0.00  0.00    +0.000 A 
ATOM     18  C   UNL     1       5.938   3.616  14.250  0.00  0.00    +0.000 A 
ATOM     19  C   UNL     1       5.892   3.561  12.858  0.00  0.00    +0.000 A 
ATOM     20  C   UNL     1       6.775   4.330  12.101  0.00  0.00    +0.000 A 
ATOM     21  C   UNL     1       7.712   5.148  12.735  0.00  0.00    +0.000 A 
ATOM     22  C   UNL     1       7.754   5.213  14.131  0.00  0.00    +0.000 A 
ENDBRANCH  16  17
ENDBRANCH   1  16
BRANCH   3  23
ATOM     23  C   UNL     1       2.646   3.602  18.996  0.00  0.00    +0.000 C 
ATOM     24  O   UNL     1       2.632   3.319  20.196  0.00  0.00    +0.000 OA
BRANCH  23  25
ATOM     25  C   UNL     1       1.426   3.266  18.140  0.00  0.00    +0.000 C 
ATOM     26  F   UNL     1       0.398   2.767  18.886  0.00  0.00    +0.000 F 
ATOM     27  F   UNL     1       0.921   4.355  17.489  0.00  0.00    +0.000 F 
ENDBRANCH  23  25
ENDBRANCH   3  23
TORSDOF 6
ENDMDL
MODEL 7
REMARK VINA RESULT:      -8.4      1.428      1.983
REMARK  Name = 
REMARK  6 active torsions:
REMARK  status: ('A' for Active; 'I' for Inactive)
REMARK    1  A    between atoms: C_2  and  C_3
REMARK    2  A    between atoms: C_2  and  C_9
REMARK    3  A    between atoms: C_11  and  C_12
REMARK    4  A    between atoms: C_12  and  C_14
REMARK    5  A    between atoms: N_17  and  C_18
REMARK    6  A    between atoms: C_21  and  O_22
REMARK                            x       y       z     vdW  Elec       q    Type
REMARK                         _______ _______ _______ _____ _____    ______ ____
ROOT
ATOM      1  C   UNL     1       5.412   5.412  16.601  0.00  0.00    +0.000 A 
ATOM      2  C   UNL     1       4.885   4.312  17.317  0.00  0.00    +0.000 A 
ATOM      3  C   UNL     1       3.804   4.726  18.089  0.00  0.00    +0.000 A 
ATOM      4  N   UNL     1       3.676   6.105  17.889  0.00  0.00    +0.000 N 
ATOM      5  C   UNL     1       4.595   6.475  16.919  0.00  0.00    +0.000 A 
ENDROOT
BRANCH   4   6
ATOM      6  C   UNL     1       2.811   7.039  18.538  0.00  0.00    +0.000 A 
ATOM      7  C   UNL     1       2.446   6.832  19.882  0.00  0.00    +0.000 A 
ATOM      8  C   UNL     1       1.601   7.734  20.539  0.00  0.00    +0.000 A 
ATOM      9  C   UNL     1       1.109   8.838  19.850  0.00  0.00    +0.000 A 
ATOM     10  C   UNL     1       1.446   9.030  18.513  0.00  0.00    +0.000 A 
ATOM     11  F   UNL     1       0.961  10.082  17.837  0.00  0.00    +0.000 F 
ATOM     12  C   UNL     1       2.279   8.131  17.850  0.00  0.00    +0.000 A 
BRANCH   9  13
ATOM     13  O   UNL     1       0.287   9.738  20.466  0.00  0.00    +0.000 OA
ATOM     14  H   UNL     1       0.245   9.536  21.414  0.00  0.00    +0.000 HD
ENDBRANCH   9  13
ENDBRANCH   4   6
BRANCH   1  16
ATOM     15  O   UNL     1       7.596   6.034  15.969  0.00  0.00    +0.000 OA
ATOM     16  C   UNL     1       6.547   5.467  15.680  0.00  0.00    +0.000 C 
BRANCH  16  17
ATOM     17  C   UNL     1       6.413   4.810  14.350  0.00  0.00    +0.000 A 
ATOM     18  C   UNL     1       7.420   4.916  13.380  0.00  0.00    +0.000 A 
ATOM     19  C   UNL     1       7.283   4.267  12.154  0.00  0.00    +0.000 A 
ATOM     20  C   UNL     1       6.130   3.533  11.878  0.00  0.00    +0.000 A 
ATOM     21  C   UNL     1       5.107   3.453  12.826  0.00  0.00    +0.000 A 
ATOM     22  C   UNL     1       5.245   4.095  14.060  0.00  0.00    +0.000 A 
ENDBRANCH  16  17
ENDBRANCH   1  16
BRANCH   3  23
ATOM     23  C   UNL     1       2.922   3.843  18.859  0.00  0.00    +0.000 C 
ATOM     24  O   UNL     1       3.190   3.427  19.988  0.00  0.00    +0.000 OA
BRANCH  23  25
ATOM     25  C   UNL     1       1.568   3.497  18.241  0.00  0.00    +0.000 C 
ATOM     26  F   UNL     1       0.576   3.444  19.177  0.00  0.00    +0.000 F 
ATOM     27  F   UNL     1       1.160   4.413  17.315  0.00  0.00    +0.000 F 
ENDBRANCH  23  25
ENDBRANCH   3  23
TORSDOF 6
ENDMDL
MODEL 8
REMARK VINA RESULT:      -8.4      2.889      4.631
REMARK  Name = 
REMARK  6 active torsions:
REMARK  status: ('A' for Active; 'I' for Inactive)
REMARK    1  A    between atoms: C_2  and  C_3
REMARK    2  A    between atoms: C_2  and  C_9
REMARK    3  A    between atoms: C_11  and  C_12
REMARK    4  A    between atoms: C_12  and  C_14
REMARK    5  A    between atoms: N_17  and  C_18
REMARK    6  A    between atoms: C_21  and  O_22
REMARK                            x       y       z     vdW  Elec       q    Type
REMARK                         _______ _______ _______ _____ _____    ______ ____
ROOT
ATOM      1  C   UNL     1       6.384   4.722  15.086  0.00  0.00    +0.000 A 
ATOM      2  C   UNL     1       6.972   5.305  16.233  0.00  0.00    +0.000 A 
ATOM      3  C   UNL     1       6.163   5.080  17.343  0.00  0.00    +0.000 A 
ATOM      4  N   UNL     1       5.038   4.387  16.884  0.00  0.00    +0.000 N 
ATOM      5  C   UNL     1       5.240   4.103  15.542  0.00  0.00    +0.000 A 
ENDROOT
BRANCH   4   6
ATOM      6  C   UNL     1       3.848   4.024  17.586  0.00  0.00    +0.000 A 
ATOM      7  C   UNL     1       2.834   4.982  17.777  0.00  0.00    +0.000 A 
ATOM      8  C   UNL     1       1.658   4.649  18.461  0.00  0.00    +0.000 A 
ATOM      9  C   UNL     1       1.499   3.362  18.965  0.00  0.00    +0.000 A 
ATOM     10  C   UNL     1       2.512   2.421  18.801  0.00  0.00    +0.000 A 
ATOM     11  F   UNL     1       2.374   1.185  19.299  0.00  0.00    +0.000 F 
ATOM     12  C   UNL     1       3.689   2.748  18.130  0.00  0.00    +0.000 A 
BRANCH   9  13
ATOM     13  O   UNL     1       0.362   3.007  19.631  0.00  0.00    +0.000 OA
ATOM     14  H   UNL     1       0.325   3.480  20.477  0.00  0.00    +0.000 HD
ENDBRANCH   9  13
ENDBRANCH   4   6
BRANCH   1  16
ATOM     15  O   UNL     1       7.762   5.438  13.314  0.00  0.00    +0.000 OA
ATOM     16  C   UNL     1       6.855   4.709  13.702  0.00  0.00    +0.000 C 
BRANCH  16  17
ATOM     17  C   UNL     1       6.202   3.778  12.739  0.00  0.00    +0.000 A 
ATOM     18  C   UNL     1       4.858   3.934  12.372  0.00  0.00    +0.000 A 
ATOM     19  C   UNL     1       4.279   3.068  11.446  0.00  0.00    +0.000 A 
ATOM     20  C   UNL     1       5.029   2.025  10.903  0.00  0.00    +0.000 A 
ATOM     21  C   UNL     1       6.358   1.842  11.292  0.00  0.00    +0.000 A 
ATOM     22  C   UNL     1       6.944   2.715  12.213  0.00  0.00    +0.000 A 
ENDBRANCH  16  17
ENDBRANCH   1  16
BRANCH   3  23
ATOM     23  C   UNL     1       6.509   5.417  18.727  0.00  0.00    +0.000 C 
ATOM     24  O   UNL     1       5.696   5.418  19.654  0.00  0.00    +0.000 OA
BRANCH  23  25
ATOM     25  C   UNL     1       7.979   5.703  19.031  0.00  0.00    +0.000 C 
ATOM     26  F   UNL     1       8.294   7.018  18.850  0.00  0.00    +0.000 F 
ATOM     27  F   UNL     1       8.319   5.412  20.321  0.00  0.00    +0.000 F 
ENDBRANCH  23  25
ENDBRANCH   3  23
TORSDOF 6
ENDMDL
MODEL 9
REMARK VINA RESULT:      -8.3      1.425      1.578
REMARK  Name = 
REMARK  6 active torsions:
REMARK  status: ('A' for Active; 'I' for Inactive)
REMARK    1  A    between atoms: C_2  and  C_3
REMARK    2  A    between atoms: C_2  and  C_9
REMARK    3  A    between atoms: C_11  and  C_12
REMARK    4  A    between atoms: C_12  and  C_14
REMARK    5  A    between atoms: N_17  and  C_18
REMARK    6  A    between atoms: C_21  and  O_22
REMARK                            x       y       z     vdW  Elec       q    Type
REMARK                         _______ _______ _______ _____ _____    ______ ____
ROOT
ATOM      1  C   UNL     1       5.249   4.914  18.151  0.00  0.00    +0.000 A 
ATOM      2  C   UNL     1       4.495   4.116  19.043  0.00  0.00    +0.000 A 
ATOM      3  C   UNL     1       3.361   4.811  19.454  0.00  0.00    +0.000 A 
ATOM      4  N   UNL     1       3.425   6.071  18.850  0.00  0.00    +0.000 N 
ATOM      5  C   UNL     1       4.519   6.073  17.998  0.00  0.00    +0.000 A 
ENDROOT
BRANCH   4   6
ATOM      6  C   UNL     1       2.582   7.209  19.036  0.00  0.00    +0.000 A 
ATOM      7  C   UNL     1       2.321   8.067  17.950  0.00  0.00    +0.000 A 
ATOM      8  C   UNL     1       1.498   9.188  18.109  0.00  0.00    +0.000 A 
ATOM      9  C   UNL     1       0.945   9.462  19.355  0.00  0.00    +0.000 A 
ATOM     10  C   UNL     1       1.223   8.631  20.437  0.00  0.00    +0.000 A 
ATOM     11  F   UNL     1       0.708   8.898  21.645  0.00  0.00    +0.000 F 
ATOM     12  C   UNL     1       2.049   7.518  20.289  0.00  0.00    +0.000 A 
BRANCH   9  13
ATOM     13  O   UNL     1       0.134  10.545  19.539  0.00  0.00    +0.000 OA
ATOM     14  H   UNL     1       0.087  10.752  20.485  0.00  0.00    +0.000 HD
ENDBRANCH   9  13
ENDBRANCH   4   6
BRANCH   1  16
ATOM     15  O   UNL     1       7.564   4.476  18.090  0.00  0.00    +0.000 OA
ATOM     16  C   UNL     1       6.511   4.617  17.475  0.00  0.00    +0.000 C 
BRANCH  16  17
ATOM     17  C   UNL     1       6.507   4.486  15.991  0.00  0.00    +0.000 A 
ATOM     18  C   UNL     1       5.540   3.715  15.330  0.00  0.00    +0.000 A 
ATOM     19  C   UNL     1       5.540   3.633  13.939  0.00  0.00    +0.000 A 
ATOM     20  C   UNL     1       6.520   4.297  13.201  0.00  0.00    +0.000 A 
ATOM     21  C   UNL     1       7.507   5.037  13.855  0.00  0.00    +0.000 A 
ATOM     22  C   UNL     1       7.505   5.129  15.250  0.00  0.00    +0.000 A 
ENDBRANCH  16  17
ENDBRANCH   1  16
BRANCH   3  23
ATOM     23  C   UNL     1       2.276   4.258  20.270  0.00  0.00    +0.000 C 
ATOM     24  O   UNL     1       2.242   4.330  21.500  0.00  0.00    +0.000 OA
BRANCH  23  25
ATOM     25  C   UNL     1       1.095   3.632  19.530  0.00  0.00    +0.000 C 
ATOM     26  F   UNL     1       1.033   4.035  18.228  0.00  0.00    +0.000 F 
ATOM     27  F   UNL     1       1.156   2.268  19.497  0.00  0.00    +0.000 F 
ENDBRANCH  23  25
ENDBRANCH   3  23
TORSDOF 6
ENDMDL
