MODEL 1
REMARK VINA RESULT:      -9.6      0.000      0.000
REMARK  Name = 
REMARK  5 active torsions:
REMARK  status: ('A' for Active; 'I' for Inactive)
REMARK    1  A    between atoms: S_2  and  C_4
REMARK    2  A    between atoms: S_2  and  N_11
REMARK    3  A    between atoms: C_4  and  C_5
REMARK    4  A    between atoms: C_16  and  C_17
REMARK    5  A    between atoms: N_21  and  C_22
REMARK                            x       y       z     vdW  Elec       q    Type
REMARK                         _______ _______ _______ _____ _____    ______ ____
ROOT
ATOM      1  N   UNL     1       6.072   5.665  16.783  0.00  0.00    +0.000 NA
ATOM      2  C   UNL     1       6.973   6.596  17.541  0.00  0.00    +0.000 C 
ATOM      3  C   UNL     1       7.408   6.027  18.897  0.00  0.00    +0.000 C 
ATOM      4  O   UNL     1       6.298   5.615  19.699  0.00  0.00    +0.000 OA
ATOM      5  C   UNL     1       5.485   4.652  19.017  0.00  0.00    +0.000 C 
ATOM      6  C   UNL     1       4.929   5.189  17.673  0.00  0.00    +0.000 C 
ENDROOT
BRANCH   6   7
ATOM      7  C   UNL     1       3.876   6.232  17.927  0.00  0.00    +0.000 A 
ATOM      8  N   UNL     1       3.902   7.484  17.494  0.00  0.00    +0.000 NA
ATOM      9  C   UNL     1       2.804   8.045  18.046  0.00  0.00    +0.000 A 
ATOM     10  N   UNL     1       2.053   7.227  18.771  0.00  0.00    +0.000 NA
ATOM     11  N   UNL     1       2.744   6.048  18.737  0.00  0.00    +0.000 N 
BRANCH  11  12
ATOM     12  C   UNL     1       2.234   4.933  19.486  0.00  0.00    +0.000 A 
ATOM     13  C   UNL     1       1.474   3.962  18.805  0.00  0.00    +0.000 A 
ATOM     14  C   UNL     1       0.936   2.858  19.475  0.00  0.00    +0.000 A 
ATOM     15  C   UNL     1       1.142   2.700  20.841  0.00  0.00    +0.000 A 
ATOM     16  C   UNL     1       1.885   3.646  21.531  0.00  0.00    +0.000 A 
ATOM     17  C   UNL     1       2.419   4.753  20.862  0.00  0.00    +0.000 A 
ENDBRANCH  11  12
ENDBRANCH   6   7
BRANCH   1  19
ATOM     18  O   UNL     1       5.874   3.247  16.042  0.00  0.00    +0.000 OA
ATOM     19  S   UNL     1       6.812   4.350  15.991  0.00  0.00    +0.000 S 
ATOM     20  O   UNL     1       8.143   4.193  16.536  0.00  0.00    +0.000 OA
BRANCH  19  21
ATOM     21  C   UNL     1       6.967   4.856  14.277  0.00  0.00    +0.000 C 
BRANCH  21  22
ATOM     22  C   UNL     1       6.426   3.733  13.399  0.00  0.00    +0.000 C 
ATOM     23  C   UNL     1       4.903   3.706  13.130  0.00  0.00    +0.000 C 
ATOM     24  C   UNL     1       5.230   3.186  11.707  0.00  0.00    +0.000 C 
ATOM     25  F   UNL     1       4.442   3.656  10.716  0.00  0.00    +0.000 F 
ATOM     26  F   UNL     1       5.272   1.841  11.576  0.00  0.00    +0.000 F 
ATOM     27  C   UNL     1       6.603   3.878  11.863  0.00  0.00    +0.000 C 
ENDBRANCH  21  22
ENDBRANCH  19  21
ENDBRANCH   1  19
TORSDOF 5
ENDMDL
MODEL 2
REMARK VINA RESULT:      -8.9      0.821      1.521
REMARK  Name = 
REMARK  5 active torsions:
REMARK  status: ('A' for Active; 'I' for Inactive)
REMARK    1  A    between atoms: S_2  and  C_4
REMARK    2  A    between atoms: S_2  and  N_11
REMARK    3  A    between atoms: C_4  and  C_5
REMARK    4  A    between atoms: C_16  and  C_17
REMARK    5  A    between atoms: N_21  and  C_22
REMARK                            x       y       z     vdW  Elec       q    Type
REMARK                         _______ _______ _______ _____ _____    ______ ____
ROOT
ATOM      1  N   UNL     1       6.327   6.033  16.740  0.00  0.00    +0.000 NA
ATOM      2  C   UNL     1       7.089   6.773  17.801  0.00  0.00    +0.000 C 
ATOM      3  C   UNL     1       7.296   5.940  19.072  0.00  0.00    +0.000 C 
ATOM      4  O   UNL     1       6.071   5.413  19.587  0.00  0.00    +0.000 OA
ATOM      5  C   UNL     1       5.383   4.625  18.607  0.00  0.00    +0.000 C 
ATOM      6  C   UNL     1       5.055   5.428  17.322  0.00  0.00    +0.000 C 
ENDROOT
BRANCH   6   7
ATOM      7  C   UNL     1       3.971   6.434  17.602  0.00  0.00    +0.000 A 
ATOM      8  N   UNL     1       4.036   7.734  17.356  0.00  0.00    +0.000 NA
ATOM      9  C   UNL     1       2.878   8.220  17.855  0.00  0.00    +0.000 A 
ATOM     10  N   UNL     1       2.058   7.314  18.368  0.00  0.00    +0.000 NA
ATOM     11  N   UNL     1       2.757   6.146  18.246  0.00  0.00    +0.000 N 
BRANCH  11  12
ATOM     12  C   UNL     1       2.175   4.940  18.767  0.00  0.00    +0.000 A 
ATOM     13  C   UNL     1       2.031   4.816  20.162  0.00  0.00    +0.000 A 
ATOM     14  C   UNL     1       1.484   3.664  20.738  0.00  0.00    +0.000 A 
ATOM     15  C   UNL     1       1.073   2.608  19.933  0.00  0.00    +0.000 A 
ATOM     16  C   UNL     1       1.210   2.707  18.556  0.00  0.00    +0.000 A 
ATOM     17  C   UNL     1       1.759   3.858  17.981  0.00  0.00    +0.000 A 
ENDBRANCH  11  12
ENDBRANCH   6   7
BRANCH   1  19
ATOM     18  O   UNL     1       8.038   4.160  16.768  0.00  0.00    +0.000 OA
ATOM     19  S   UNL     1       7.191   4.875  15.836  0.00  0.00    +0.000 S 
ATOM     20  O   UNL     1       7.775   5.545  14.696  0.00  0.00    +0.000 OA
BRANCH  19  21
ATOM     21  C   UNL     1       5.951   3.726  15.233  0.00  0.00    +0.000 C 
BRANCH  21  22
ATOM     22  C   UNL     1       5.725   4.007  13.752  0.00  0.00    +0.000 C 
ATOM     23  C   UNL     1       6.514   3.152  12.732  0.00  0.00    +0.000 C 
ATOM     24  C   UNL     1       5.266   3.208  11.817  0.00  0.00    +0.000 C 
ATOM     25  F   UNL     1       4.994   2.080  11.126  0.00  0.00    +0.000 F 
ATOM     26  F   UNL     1       5.240   4.230  10.932  0.00  0.00    +0.000 F 
ATOM     27  C   UNL     1       4.438   3.427  13.103  0.00  0.00    +0.000 C 
ENDBRANCH  21  22
ENDBRANCH  19  21
ENDBRANCH   1  19
TORSDOF 5
ENDMDL
MODEL 3
REMARK VINA RESULT:      -7.9      1.006      1.475
REMARK  Name = 
REMARK  5 active torsions:
REMARK  status: ('A' for Active; 'I' for Inactive)
REMARK    1  A    between atoms: S_2  and  C_4
REMARK    2  A    between atoms: S_2  and  N_11
REMARK    3  A    between atoms: C_4  and  C_5
REMARK    4  A    between atoms: C_16  and  C_17
REMARK    5  A    between atoms: N_21  and  C_22
REMARK                            x       y       z     vdW  Elec       q    Type
REMARK                         _______ _______ _______ _____ _____    ______ ____
ROOT
ATOM      1  N   UNL     1       6.184   6.106  16.911  0.00  0.00    +0.000 NA
ATOM      2  C   UNL     1       6.951   6.722  18.045  0.00  0.00    +0.000 C 
ATOM      3  C   UNL     1       7.116   5.769  19.235  0.00  0.00    +0.000 C 
ATOM      4  O   UNL     1       5.869   5.234  19.685  0.00  0.00    +0.000 OA
ATOM      5  C   UNL     1       5.173   4.560  18.628  0.00  0.00    +0.000 C 
ATOM      6  C   UNL     1       4.887   5.488  17.420  0.00  0.00    +0.000 C 
ENDROOT
BRANCH   6   7
ATOM      7  C   UNL     1       3.828   6.495  17.779  0.00  0.00    +0.000 A 
ATOM      8  N   UNL     1       3.857   7.788  17.491  0.00  0.00    +0.000 NA
ATOM      9  C   UNL     1       2.751   8.282  18.090  0.00  0.00    +0.000 A 
ATOM     10  N   UNL     1       1.995   7.386  18.710  0.00  0.00    +0.000 NA
ATOM     11  N   UNL     1       2.687   6.219  18.550  0.00  0.00    +0.000 N 
BRANCH  11  12
ATOM     12  C   UNL     1       2.172   5.026  19.162  0.00  0.00    +0.000 A 
ATOM     13  C   UNL     1       2.311   4.875  20.555  0.00  0.00    +0.000 A 
ATOM     14  C   UNL     1       1.843   3.733  21.213  0.00  0.00    +0.000 A 
ATOM     15  C   UNL     1       1.229   2.713  20.494  0.00  0.00    +0.000 A 
ATOM     16  C   UNL     1       1.085   2.840  19.121  0.00  0.00    +0.000 A 
ATOM     17  C   UNL     1       1.556   3.981  18.462  0.00  0.00    +0.000 A 
ENDBRANCH  11  12
ENDBRANCH   6   7
BRANCH   1  19
ATOM     18  O   UNL     1       7.710   4.082  16.791  0.00  0.00    +0.000 OA
ATOM     19  S   UNL     1       7.027   5.011  15.914  0.00  0.00    +0.000 S 
ATOM     20  O   UNL     1       7.779   5.778  14.946  0.00  0.00    +0.000 OA
BRANCH  19  21
ATOM     21  C   UNL     1       5.757   4.098  15.035  0.00  0.00    +0.000 C 
BRANCH  21  22
ATOM     22  C   UNL     1       6.383   3.501  13.780  0.00  0.00    +0.000 C 
ATOM     23  C   UNL     1       5.597   3.637  12.454  0.00  0.00    +0.000 C 
ATOM     24  C   UNL     1       6.961   3.802  11.738  0.00  0.00    +0.000 C 
ATOM     25  F   UNL     1       6.983   4.686  10.717  0.00  0.00    +0.000 F 
ATOM     26  F   UNL     1       7.520   2.658  11.284  0.00  0.00    +0.000 F 
ATOM     27  C   UNL     1       7.511   4.316  13.088  0.00  0.00    +0.000 C 
ENDBRANCH  21  22
ENDBRANCH  19  21
ENDBRANCH   1  19
TORSDOF 5
ENDMDL
MODEL 4
REMARK VINA RESULT:      -7.8      0.892      1.113
REMARK  Name = 
REMARK  5 active torsions:
REMARK  status: ('A' for Active; 'I' for Inactive)
REMARK    1  A    between atoms: S_2  and  C_4
REMARK    2  A    between atoms: S_2  and  N_11
REMARK    3  A    between atoms: C_4  and  C_5
REMARK    4  A    between atoms: C_16  and  C_17
REMARK    5  A    between atoms: N_21  and  C_22
REMARK                            x       y       z     vdW  Elec       q    Type
REMARK                         _______ _______ _______ _____ _____    ______ ____
ROOT
ATOM      1  N   UNL     1       5.787   6.081  16.435  0.00  0.00    +0.000 NA
ATOM      2  C   UNL     1       6.747   6.852  17.292  0.00  0.00    +0.000 C 
ATOM      3  C   UNL     1       7.223   6.054  18.513  0.00  0.00    +0.000 C 
ATOM      4  O   UNL     1       6.138   5.539  19.287  0.00  0.00    +0.000 OA
ATOM      5  C   UNL     1       5.266   4.722  18.495  0.00  0.00    +0.000 C 
ATOM      6  C   UNL     1       4.669   5.489  17.287  0.00  0.00    +0.000 C 
ENDROOT
BRANCH   6   7
ATOM      7  C   UNL     1       3.660   6.498  17.761  0.00  0.00    +0.000 A 
ATOM      8  N   UNL     1       3.649   7.788  17.455  0.00  0.00    +0.000 NA
ATOM      9  C   UNL     1       2.624   8.288  18.180  0.00  0.00    +0.000 A 
ATOM     10  N   UNL     1       1.952   7.399  18.899  0.00  0.00    +0.000 NA
ATOM     11  N   UNL     1       2.624   6.231  18.671  0.00  0.00    +0.000 N 
BRANCH  11  12
ATOM     12  C   UNL     1       2.192   5.045  19.356  0.00  0.00    +0.000 A 
ATOM     13  C   UNL     1       1.533   4.046  18.614  0.00  0.00    +0.000 A 
ATOM     14  C   UNL     1       1.074   2.872  19.221  0.00  0.00    +0.000 A 
ATOM     15  C   UNL     1       1.260   2.671  20.584  0.00  0.00    +0.000 A 
ATOM     16  C   UNL     1       1.903   3.644  21.335  0.00  0.00    +0.000 A 
ATOM     17  C   UNL     1       2.358   4.820  20.729  0.00  0.00    +0.000 A 
ENDBRANCH  11  12
ENDBRANCH   6   7
BRANCH   1  19
ATOM     18  O   UNL     1       6.609   3.693  16.187  0.00  0.00    +0.000 OA
ATOM     19  S   UNL     1       6.451   4.900  15.401  0.00  0.00    +0.000 S 
ATOM     20  O   UNL     1       7.593   5.484  14.734  0.00  0.00    +0.000 OA
BRANCH  19  21
ATOM     21  C   UNL     1       5.186   4.585  14.168  0.00  0.00    +0.000 C 
BRANCH  21  22
ATOM     22  C   UNL     1       5.858   3.971  12.945  0.00  0.00    +0.000 C 
ATOM     23  C   UNL     1       6.425   2.538  13.084  0.00  0.00    +0.000 C 
ATOM     24  C   UNL     1       5.994   2.296  11.615  0.00  0.00    +0.000 C 
ATOM     25  F   UNL     1       5.513   1.063  11.342  0.00  0.00    +0.000 F 
ATOM     26  F   UNL     1       6.932   2.571  10.682  0.00  0.00    +0.000 F 
ATOM     27  C   UNL     1       4.935   3.400  11.834  0.00  0.00    +0.000 C 
ENDBRANCH  21  22
ENDBRANCH  19  21
ENDBRANCH   1  19
TORSDOF 5
ENDMDL
MODEL 5
REMARK VINA RESULT:      -7.4      1.997      3.845
REMARK  Name = 
REMARK  5 active torsions:
REMARK  status: ('A' for Active; 'I' for Inactive)
REMARK    1  A    between atoms: S_2  and  C_4
REMARK    2  A    between atoms: S_2  and  N_11
REMARK    3  A    between atoms: C_4  and  C_5
REMARK    4  A    between atoms: C_16  and  C_17
REMARK    5  A    between atoms: N_21  and  C_22
REMARK                            x       y       z     vdW  Elec       q    Type
REMARK                         _______ _______ _______ _____ _____    ______ ____
ROOT
ATOM      1  N   UNL     1       5.223   5.831  18.115  0.00  0.00    +0.000 NA
ATOM      2  C   UNL     1       5.905   4.585  18.601  0.00  0.00    +0.000 C 
ATOM      3  C   UNL     1       5.529   3.345  17.781  0.00  0.00    +0.000 C 
ATOM      4  O   UNL     1       4.115   3.157  17.690  0.00  0.00    +0.000 OA
ATOM      5  C   UNL     1       3.465   4.309  17.136  0.00  0.00    +0.000 C 
ATOM      6  C   UNL     1       3.724   5.592  17.966  0.00  0.00    +0.000 C 
ENDROOT
BRANCH   6   7
ATOM      7  C   UNL     1       2.982   5.524  19.273  0.00  0.00    +0.000 A 
ATOM      8  N   UNL     1       2.888   4.460  20.058  0.00  0.00    +0.000 NA
ATOM      9  C   UNL     1       2.059   4.856  21.049  0.00  0.00    +0.000 A 
ATOM     10  N   UNL     1       1.648   6.114  20.974  0.00  0.00    +0.000 NA
ATOM     11  N   UNL     1       2.207   6.564  19.811  0.00  0.00    +0.000 N 
BRANCH  11  12
ATOM     12  C   UNL     1       1.913   7.903  19.381  0.00  0.00    +0.000 A 
ATOM     13  C   UNL     1       1.213   8.750  20.261  0.00  0.00    +0.000 A 
ATOM     14  C   UNL     1       0.883  10.060  19.901  0.00  0.00    +0.000 A 
ATOM     15  C   UNL     1       1.241  10.554  18.652  0.00  0.00    +0.000 A 
ATOM     16  C   UNL     1       1.928   9.736  17.768  0.00  0.00    +0.000 A 
ATOM     17  C   UNL     1       2.255   8.424  18.127  0.00  0.00    +0.000 A 
ENDBRANCH  11  12
ENDBRANCH   6   7
BRANCH   1  19
ATOM     18  O   UNL     1       6.771   7.601  17.163  0.00  0.00    +0.000 OA
ATOM     19  S   UNL     1       5.862   6.565  16.717  0.00  0.00    +0.000 S 
ATOM     20  O   UNL     1       4.758   6.898  15.844  0.00  0.00    +0.000 OA
BRANCH  19  21
ATOM     21  C   UNL     1       6.839   5.290  15.917  0.00  0.00    +0.000 C 
BRANCH  21  22
ATOM     22  C   UNL     1       6.165   4.934  14.596  0.00  0.00    +0.000 C 
ATOM     23  C   UNL     1       7.046   4.924  13.324  0.00  0.00    +0.000 C 
ATOM     24  C   UNL     1       6.198   3.727  12.825  0.00  0.00    +0.000 C 
ATOM     25  F   UNL     1       6.875   2.767  12.157  0.00  0.00    +0.000 F 
ATOM     26  F   UNL     1       5.123   4.050  12.073  0.00  0.00    +0.000 F 
ATOM     27  C   UNL     1       5.899   3.430  14.313  0.00  0.00    +0.000 C 
ENDBRANCH  21  22
ENDBRANCH  19  21
ENDBRANCH   1  19
TORSDOF 5
ENDMDL
MODEL 6
REMARK VINA RESULT:      -7.4      4.414      6.372
REMARK  Name = 
REMARK  5 active torsions:
REMARK  status: ('A' for Active; 'I' for Inactive)
REMARK    1  A    between atoms: S_2  and  C_4
REMARK    2  A    between atoms: S_2  and  N_11
REMARK    3  A    between atoms: C_4  and  C_5
REMARK    4  A    between atoms: C_16  and  C_17
REMARK    5  A    between atoms: N_21  and  C_22
REMARK                            x       y       z     vdW  Elec       q    Type
REMARK                         _______ _______ _______ _____ _____    ______ ____
ROOT
ATOM      1  N   UNL     1       6.636   6.215  18.167  0.00  0.00    +0.000 NA
ATOM      2  C   UNL     1       7.251   4.860  17.963  0.00  0.00    +0.000 C 
ATOM      3  C   UNL     1       6.949   4.277  16.577  0.00  0.00    +0.000 C 
ATOM      4  O   UNL     1       5.551   4.260  16.282  0.00  0.00    +0.000 OA
ATOM      5  C   UNL     1       4.975   5.569  16.383  0.00  0.00    +0.000 C 
ATOM      6  C   UNL     1       5.159   6.192  17.790  0.00  0.00    +0.000 C 
ENDROOT
BRANCH   6   7
ATOM      7  C   UNL     1       4.284   5.485  18.788  0.00  0.00    +0.000 A 
ATOM      8  N   UNL     1       4.451   4.247  19.231  0.00  0.00    +0.000 NA
ATOM      9  C   UNL     1       3.380   4.035  20.026  0.00  0.00    +0.000 A 
ATOM     10  N   UNL     1       2.558   5.066  20.156  0.00  0.00    +0.000 NA
ATOM     11  N   UNL     1       3.103   6.014  19.336  0.00  0.00    +0.000 N 
BRANCH  11  12
ATOM     12  C   UNL     1       2.419   7.268  19.187  0.00  0.00    +0.000 A 
ATOM     13  C   UNL     1       1.783   7.822  20.315  0.00  0.00    +0.000 A 
ATOM     14  C   UNL     1       1.089   9.033  20.238  0.00  0.00    +0.000 A 
ATOM     15  C   UNL     1       1.010   9.718  19.031  0.00  0.00    +0.000 A 
ATOM     16  C   UNL     1       1.626   9.190  17.906  0.00  0.00    +0.000 A 
ATOM     17  C   UNL     1       2.318   7.976  17.983  0.00  0.00    +0.000 A 
ENDBRANCH  11  12
ENDBRANCH   6   7
BRANCH   1  19
ATOM     18  O   UNL     1       6.429   8.572  17.252  0.00  0.00    +0.000 OA
ATOM     19  S   UNL     1       7.427   7.538  17.441  0.00  0.00    +0.000 S 
ATOM     20  O   UNL     1       8.178   7.042  16.310  0.00  0.00    +0.000 OA
BRANCH  19  21
ATOM     21  C   UNL     1       8.594   8.125  18.671  0.00  0.00    +0.000 C 
BRANCH  21  22
ATOM     22  C   UNL     1       8.543   9.649  18.685  0.00  0.00    +0.000 C 
ATOM     23  C   UNL     1       9.299  10.380  19.821  0.00  0.00    +0.000 C 
ATOM     24  C   UNL     1       9.640  11.487  18.792  0.00  0.00    +0.000 C 
ATOM     25  F   UNL     1      10.871  12.031  18.903  0.00  0.00    +0.000 F 
ATOM     26  F   UNL     1       8.759  12.510  18.727  0.00  0.00    +0.000 F 
ATOM     27  C   UNL     1       9.477  10.404  17.701  0.00  0.00    +0.000 C 
ENDBRANCH  21  22
ENDBRANCH  19  21
ENDBRANCH   1  19
TORSDOF 5
ENDMDL
MODEL 7
REMARK VINA RESULT:      -7.2      3.801      6.739
REMARK  Name = 
REMARK  5 active torsions:
REMARK  status: ('A' for Active; 'I' for Inactive)
REMARK    1  A    between atoms: S_2  and  C_4
REMARK    2  A    between atoms: S_2  and  N_11
REMARK    3  A    between atoms: C_4  and  C_5
REMARK    4  A    between atoms: C_16  and  C_17
REMARK    5  A    between atoms: N_21  and  C_22
REMARK                            x       y       z     vdW  Elec       q    Type
REMARK                         _______ _______ _______ _____ _____    ______ ____
ROOT
ATOM      1  N   UNL     1       3.232   3.779  17.683  0.00  0.00    +0.000 NA
ATOM      2  C   UNL     1       3.617   2.394  18.115  0.00  0.00    +0.000 C 
ATOM      3  C   UNL     1       4.351   2.376  19.462  0.00  0.00    +0.000 C 
ATOM      4  O   UNL     1       5.477   3.257  19.484  0.00  0.00    +0.000 OA
ATOM      5  C   UNL     1       5.099   4.603  19.165  0.00  0.00    +0.000 C 
ATOM      6  C   UNL     1       4.431   4.717  17.771  0.00  0.00    +0.000 C 
ENDROOT
BRANCH   6   7
ATOM      7  C   UNL     1       5.453   4.508  16.687  0.00  0.00    +0.000 A 
ATOM      8  N   UNL     1       5.393   3.595  15.729  0.00  0.00    +0.000 NA
ATOM      9  C   UNL     1       6.563   3.737  15.067  0.00  0.00    +0.000 A 
ATOM     10  N   UNL     1       7.351   4.706  15.512  0.00  0.00    +0.000 NA
ATOM     11  N   UNL     1       6.668   5.205  16.586  0.00  0.00    +0.000 N 
BRANCH  11  12
ATOM     12  C   UNL     1       7.275   6.253  17.358  0.00  0.00    +0.000 A 
ATOM     13  C   UNL     1       7.228   7.568  16.854  0.00  0.00    +0.000 A 
ATOM     14  C   UNL     1       7.810   8.634  17.548  0.00  0.00    +0.000 A 
ATOM     15  C   UNL     1       8.455   8.411  18.759  0.00  0.00    +0.000 A 
ATOM     16  C   UNL     1       8.516   7.124  19.272  0.00  0.00    +0.000 A 
ATOM     17  C   UNL     1       7.937   6.057  18.576  0.00  0.00    +0.000 A 
ENDBRANCH  11  12
ENDBRANCH   6   7
BRANCH   1  19
ATOM     18  O   UNL     1       1.460   3.562  19.486  0.00  0.00    +0.000 OA
ATOM     19  S   UNL     1       1.866   4.470  18.432  0.00  0.00    +0.000 S 
ATOM     20  O   UNL     1       0.929   4.840  17.396  0.00  0.00    +0.000 OA
BRANCH  19  21
ATOM     21  C   UNL     1       2.462   5.974  19.208  0.00  0.00    +0.000 C 
BRANCH  21  22
ATOM     22  C   UNL     1       1.767   7.158  18.545  0.00  0.00    +0.000 C 
ATOM     23  C   UNL     1       1.623   8.458  19.372  0.00  0.00    +0.000 C 
ATOM     24  C   UNL     1       1.836   9.242  18.052  0.00  0.00    +0.000 C 
ATOM     25  F   UNL     1       2.563  10.376  18.155  0.00  0.00    +0.000 F 
ATOM     26  F   UNL     1       0.709   9.554  17.374  0.00  0.00    +0.000 F 
ATOM     27  C   UNL     1       2.595   7.999  17.535  0.00  0.00    +0.000 C 
ENDBRANCH  21  22
ENDBRANCH  19  21
ENDBRANCH   1  19
TORSDOF 5
ENDMDL
MODEL 8
REMARK VINA RESULT:      -7.2      3.823      6.818
REMARK  Name = 
REMARK  5 active torsions:
REMARK  status: ('A' for Active; 'I' for Inactive)
REMARK    1  A    between atoms: S_2  and  C_4
REMARK    2  A    between atoms: S_2  and  N_11
REMARK    3  A    between atoms: C_4  and  C_5
REMARK    4  A    between atoms: C_16  and  C_17
REMARK    5  A    between atoms: N_21  and  C_22
REMARK                            x       y       z     vdW  Elec       q    Type
REMARK                         _______ _______ _______ _____ _____    ______ ____
ROOT
ATOM      1  N   UNL     1       2.536   4.422  18.681  0.00  0.00    +0.000 NA
ATOM      2  C   UNL     1       1.811   3.204  18.186  0.00  0.00    +0.000 C 
ATOM      3  C   UNL     1       2.323   1.908  18.827  0.00  0.00    +0.000 C 
ATOM      4  O   UNL     1       3.739   1.756  18.698  0.00  0.00    +0.000 OA
ATOM      5  C   UNL     1       4.443   2.874  19.255  0.00  0.00    +0.000 C 
ATOM      6  C   UNL     1       4.044   4.216  18.591  0.00  0.00    +0.000 C 
ENDROOT
BRANCH   6   7
ATOM      7  C   UNL     1       4.589   4.284  17.190  0.00  0.00    +0.000 A 
ATOM      8  N   UNL     1       4.135   3.606  16.146  0.00  0.00    +0.000 NA
ATOM      9  C   UNL     1       4.989   3.926  15.150  0.00  0.00    +0.000 A 
ATOM     10  N   UNL     1       5.938   4.794  15.475  0.00  0.00    +0.000 NA
ATOM     11  N   UNL     1       5.721   5.021  16.805  0.00  0.00    +0.000 N 
BRANCH  11  12
ATOM     12  C   UNL     1       6.624   5.888  17.510  0.00  0.00    +0.000 A 
ATOM     13  C   UNL     1       6.787   7.206  17.041  0.00  0.00    +0.000 A 
ATOM     14  C   UNL     1       7.660   8.099  17.672  0.00  0.00    +0.000 A 
ATOM     15  C   UNL     1       8.392   7.695  18.783  0.00  0.00    +0.000 A 
ATOM     16  C   UNL     1       8.249   6.400  19.259  0.00  0.00    +0.000 A 
ATOM     17  C   UNL     1       7.379   5.506  18.625  0.00  0.00    +0.000 A 
ENDBRANCH  11  12
ENDBRANCH   6   7
BRANCH   1  19
ATOM     18  O   UNL     1       2.882   4.281  21.190  0.00  0.00    +0.000 OA
ATOM     19  S   UNL     1       2.095   5.011  20.217  0.00  0.00    +0.000 S 
ATOM     20  O   UNL     1       0.651   5.002  20.300  0.00  0.00    +0.000 OA
BRANCH  19  21
ATOM     21  C   UNL     1       2.644   6.719  20.244  0.00  0.00    +0.000 C 
BRANCH  21  22
ATOM     22  C   UNL     1       1.854   7.489  19.191  0.00  0.00    +0.000 C 
ATOM     23  C   UNL     1       1.470   8.953  19.512  0.00  0.00    +0.000 C 
ATOM     24  C   UNL     1       1.684   9.270  18.011  0.00  0.00    +0.000 C 
ATOM     25  F   UNL     1       2.242  10.469  17.738  0.00  0.00    +0.000 F 
ATOM     26  F   UNL     1       0.585   9.158  17.231  0.00  0.00    +0.000 F 
ATOM     27  C   UNL     1       2.642   8.057  17.979  0.00  0.00    +0.000 C 
ENDBRANCH  21  22
ENDBRANCH  19  21
ENDBRANCH   1  19
TORSDOF 5
ENDMDL
MODEL 9
REMARK VINA RESULT:      -7.2      1.014      1.107
REMARK  Name = 
REMARK  5 active torsions:
REMARK  status: ('A' for Active; 'I' for Inactive)
REMARK    1  A    between atoms: S_2  and  C_4
REMARK    2  A    between atoms: S_2  and  N_11
REMARK    3  A    between atoms: C_4  and  C_5
REMARK    4  A    between atoms: C_16  and  C_17
REMARK    5  A    between atoms: N_21  and  C_22
REMARK                            x       y       z     vdW  Elec       q    Type
REMARK                         _______ _______ _______ _____ _____    ______ ____
ROOT
ATOM      1  N   UNL     1       5.611   5.668  16.839  0.00  0.00    +0.000 NA
ATOM      2  C   UNL     1       6.605   6.608  17.455  0.00  0.00    +0.000 C 
ATOM      3  C   UNL     1       7.256   6.035  18.720  0.00  0.00    +0.000 C 
ATOM      4  O   UNL     1       6.293   5.597  19.682  0.00  0.00    +0.000 OA
ATOM      5  C   UNL     1       5.397   4.626  19.126  0.00  0.00    +0.000 C 
ATOM      6  C   UNL     1       4.629   5.166  17.892  0.00  0.00    +0.000 C 
ENDROOT
BRANCH   6   7
ATOM      7  C   UNL     1       3.613   6.189  18.320  0.00  0.00    +0.000 A 
ATOM      8  N   UNL     1       3.601   7.466  17.967  0.00  0.00    +0.000 NA
ATOM      9  C   UNL     1       2.568   7.989  18.664  0.00  0.00    +0.000 A 
ATOM     10  N   UNL     1       1.893   7.126  19.410  0.00  0.00    +0.000 NA
ATOM     11  N   UNL     1       2.570   5.952  19.230  0.00  0.00    +0.000 N 
BRANCH  11  12
ATOM     12  C   UNL     1       2.135   4.791  19.955  0.00  0.00    +0.000 A 
ATOM     13  C   UNL     1       1.271   3.885  19.310  0.00  0.00    +0.000 A 
ATOM     14  C   UNL     1       0.799   2.740  19.962  0.00  0.00    +0.000 A 
ATOM     15  C   UNL     1       1.176   2.478  21.274  0.00  0.00    +0.000 A 
ATOM     16  C   UNL     1       2.023   3.359  21.930  0.00  0.00    +0.000 A 
ATOM     17  C   UNL     1       2.492   4.505  21.279  0.00  0.00    +0.000 A 
ENDBRANCH  11  12
ENDBRANCH   6   7
BRANCH   1  19
ATOM     18  O   UNL     1       5.819   3.152  16.586  0.00  0.00    +0.000 OA
ATOM     19  S   UNL     1       6.236   4.372  15.926  0.00  0.00    +0.000 S 
ATOM     20  O   UNL     1       7.641   4.626  15.697  0.00  0.00    +0.000 OA
BRANCH  19  21
ATOM     21  C   UNL     1       5.390   4.454  14.346  0.00  0.00    +0.000 C 
BRANCH  21  22
ATOM     22  C   UNL     1       6.258   3.755  13.306  0.00  0.00    +0.000 C 
ATOM     23  C   UNL     1       5.692   3.629  11.870  0.00  0.00    +0.000 C 
ATOM     24  C   UNL     1       7.139   3.827  11.353  0.00  0.00    +0.000 C 
ATOM     25  F   UNL     1       7.264   4.560  10.226  0.00  0.00    +0.000 F 
ATOM     26  F   UNL     1       7.851   2.692  11.168  0.00  0.00    +0.000 F 
ATOM     27  C   UNL     1       7.419   4.574  12.678  0.00  0.00    +0.000 C 
ENDBRANCH  21  22
ENDBRANCH  19  21
ENDBRANCH   1  19
TORSDOF 5
ENDMDL
