MODEL 1
REMARK VINA RESULT:      -7.3      0.000      0.000
REMARK  Name = 
REMARK  4 active torsions:
REMARK  status: ('A' for Active; 'I' for Inactive)
REMARK    1  A    between atoms: C_1  and  N_2
REMARK    2  A    between atoms: C_3  and  N_4
REMARK    3  A    between atoms: C_5  and  C_7
REMARK    4  A    between atoms: C_12  and  C_13
REMARK                            x       y       z     vdW  Elec       q    Type
REMARK                         _______ _______ _______ _____ _____    ______ ____
ROOT
ATOM      1  C   UNL     1       5.249   7.866  17.120  0.00  0.00    +0.000 C 
ATOM      2  N   UNL     1       4.845   6.460  17.226  0.00  0.00    +0.000 N 
ATOM      3  C   UNL     1       4.025   5.980  18.267  0.00  0.00    +0.000 A 
ATOM      4  C   UNL     1       3.718   4.666  18.401  0.00  0.00    +0.000 A 
ATOM      5  C   UNL     1       4.274   3.693  17.417  0.00  0.00    +0.000 A 
ATOM      6  O   UNL     1       4.009   2.492  17.476  0.00  0.00    +0.000 OA
ATOM      7  C   UNL     1       5.143   4.199  16.346  0.00  0.00    +0.000 A 
ATOM      8  C   UNL     1       5.657   3.282  15.414  0.00  0.00    +0.000 A 
ATOM      9  C   UNL     1       6.485   3.721  14.389  0.00  0.00    +0.000 A 
ATOM     10  C   UNL     1       6.801   5.071  14.308  0.00  0.00    +0.000 A 
ATOM     11  C   UNL     1       6.280   5.982  15.242  0.00  0.00    +0.000 A 
ATOM     12  C   UNL     1       5.425   5.571  16.283  0.00  0.00    +0.000 A 
ENDROOT
BRANCH   4  13
ATOM     13  C   UNL     1       2.762   4.110  19.386  0.00  0.00    +0.000 A 
ATOM     14  C   UNL     1       3.233   3.769  20.664  0.00  0.00    +0.000 A 
ATOM     15  C   UNL     1       2.418   3.064  21.551  0.00  0.00    +0.000 A 
ATOM     16  C   UNL     1       1.127   2.699  21.177  0.00  0.00    +0.000 A 
ATOM     17  C   UNL     1       0.635   3.062  19.924  0.00  0.00    +0.000 A 
ATOM     18  C   UNL     1       1.447   3.768  19.031  0.00  0.00    +0.000 A 
ATOM     19 CL   UNL     1       0.782   4.173  17.485  0.00  0.00    +0.000 Cl
ENDBRANCH   4  13
BRANCH   3  20
ATOM     20  N   UNL     1       3.386   6.865  19.118  0.00  0.00    +0.000 N 
ATOM     21  C   UNL     1       2.274   7.619  18.761  0.00  0.00    +0.000 C 
ATOM     22  O   UNL     1       1.808   7.671  17.627  0.00  0.00    +0.000 OA
ATOM     23  H   UNL     1       3.431   6.645  20.106  0.00  0.00    +0.000 HD
BRANCH  21  24
ATOM     24  C   UNL     1       1.691   8.323  19.901  0.00  0.00    +0.000 A 
ATOM     25  C   UNL     1       1.513   7.948  21.220  0.00  0.00    +0.000 A 
ATOM     26  C   UNL     1       0.852   9.026  21.863  0.00  0.00    +0.000 A 
ATOM     27  C   UNL     1       0.679   9.993  20.907  0.00  0.00    +0.000 A 
ATOM     28  O   UNL     1       1.195   9.589  19.720  0.00  0.00    +0.000 OA
ENDBRANCH  21  24
ENDBRANCH   3  20
TORSDOF 3
ENDMDL
MODEL 2
REMARK VINA RESULT:      -7.2      1.958      5.957
REMARK  Name = 
REMARK  4 active torsions:
REMARK  status: ('A' for Active; 'I' for Inactive)
REMARK    1  A    between atoms: C_1  and  N_2
REMARK    2  A    between atoms: C_3  and  N_4
REMARK    3  A    between atoms: C_5  and  C_7
REMARK    4  A    between atoms: C_12  and  C_13
REMARK                            x       y       z     vdW  Elec       q    Type
REMARK                         _______ _______ _______ _____ _____    ______ ____
ROOT
ATOM      1  C   UNL     1       2.772   8.734  17.302  0.00  0.00    +0.000 C 
ATOM      2  N   UNL     1       2.518   7.770  18.378  0.00  0.00    +0.000 N 
ATOM      3  C   UNL     1       2.853   6.405  18.271  0.00  0.00    +0.000 A 
ATOM      4  C   UNL     1       2.547   5.506  19.239  0.00  0.00    +0.000 A 
ATOM      5  C   UNL     1       1.825   5.976  20.456  0.00  0.00    +0.000 A 
ATOM      6  O   UNL     1       1.543   5.209  21.377  0.00  0.00    +0.000 OA
ATOM      7  C   UNL     1       1.464   7.396  20.551  0.00  0.00    +0.000 A 
ATOM      8  C   UNL     1       0.793   7.840  21.703  0.00  0.00    +0.000 A 
ATOM      9  C   UNL     1       0.431   9.174  21.829  0.00  0.00    +0.000 A 
ATOM     10  C   UNL     1       0.734  10.056  20.799  0.00  0.00    +0.000 A 
ATOM     11  C   UNL     1       1.408   9.606  19.652  0.00  0.00    +0.000 A 
ATOM     12  C   UNL     1       1.803   8.262  19.501  0.00  0.00    +0.000 A 
ENDROOT
BRANCH   4  13
ATOM     13  C   UNL     1       2.980   4.089  19.254  0.00  0.00    +0.000 A 
ATOM     14  C   UNL     1       4.263   3.781  19.734  0.00  0.00    +0.000 A 
ATOM     15  C   UNL     1       4.782   2.495  19.583  0.00  0.00    +0.000 A 
ATOM     16  C   UNL     1       4.028   1.503  18.960  0.00  0.00    +0.000 A 
ATOM     17  C   UNL     1       2.739   1.787  18.511  0.00  0.00    +0.000 A 
ATOM     18  C   UNL     1       2.214   3.074  18.659  0.00  0.00    +0.000 A 
ATOM     19 CL   UNL     1       0.614   3.365  18.065  0.00  0.00    +0.000 Cl
ENDBRANCH   4  13
BRANCH   3  20
ATOM     20  N   UNL     1       3.636   5.957  17.221  0.00  0.00    +0.000 N 
ATOM     21  C   UNL     1       5.024   6.043  17.197  0.00  0.00    +0.000 C 
ATOM     22  O   UNL     1       5.696   6.624  18.043  0.00  0.00    +0.000 OA
ATOM     23  H   UNL     1       3.264   5.180  16.687  0.00  0.00    +0.000 HD
BRANCH  21  24
ATOM     24  C   UNL     1       5.605   5.329  16.062  0.00  0.00    +0.000 A 
ATOM     25  C   UNL     1       5.242   4.152  15.434  0.00  0.00    +0.000 A 
ATOM     26  C   UNL     1       6.200   3.924  14.414  0.00  0.00    +0.000 A 
ATOM     27  C   UNL     1       7.077   4.975  14.472  0.00  0.00    +0.000 A 
ATOM     28  O   UNL     1       6.721   5.841  15.453  0.00  0.00    +0.000 OA
ENDBRANCH  21  24
ENDBRANCH   3  20
TORSDOF 3
ENDMDL
MODEL 3
REMARK VINA RESULT:      -6.9      1.094      1.397
REMARK  Name = 
REMARK  4 active torsions:
REMARK  status: ('A' for Active; 'I' for Inactive)
REMARK    1  A    between atoms: C_1  and  N_2
REMARK    2  A    between atoms: C_3  and  N_4
REMARK    3  A    between atoms: C_5  and  C_7
REMARK    4  A    between atoms: C_12  and  C_13
REMARK                            x       y       z     vdW  Elec       q    Type
REMARK                         _______ _______ _______ _____ _____    ______ ____
ROOT
ATOM      1  C   UNL     1       5.182   7.645  17.096  0.00  0.00    +0.000 C 
ATOM      2  N   UNL     1       4.794   6.231  17.147  0.00  0.00    +0.000 N 
ATOM      3  C   UNL     1       4.005   5.696  18.185  0.00  0.00    +0.000 A 
ATOM      4  C   UNL     1       3.713   4.374  18.266  0.00  0.00    +0.000 A 
ATOM      5  C   UNL     1       4.254   3.452  17.226  0.00  0.00    +0.000 A 
ATOM      6  O   UNL     1       4.002   2.247  17.237  0.00  0.00    +0.000 OA
ATOM      7  C   UNL     1       5.091   4.015  16.159  0.00  0.00    +0.000 A 
ATOM      8  C   UNL     1       5.591   3.148  15.173  0.00  0.00    +0.000 A 
ATOM      9  C   UNL     1       6.389   3.641  14.150  0.00  0.00    +0.000 A 
ATOM     10  C   UNL     1       6.690   4.996  14.123  0.00  0.00    +0.000 A 
ATOM     11  C   UNL     1       6.184   5.858  15.109  0.00  0.00    +0.000 A 
ATOM     12  C   UNL     1       5.358   5.392  16.151  0.00  0.00    +0.000 A 
ENDROOT
BRANCH   4  13
ATOM     13  C   UNL     1       2.787   3.764  19.249  0.00  0.00    +0.000 A 
ATOM     14  C   UNL     1       1.426   4.102  19.193  0.00  0.00    +0.000 A 
ATOM     15  C   UNL     1       0.559   3.708  20.213  0.00  0.00    +0.000 A 
ATOM     16  C   UNL     1       1.037   2.971  21.293  0.00  0.00    +0.000 A 
ATOM     17  C   UNL     1       2.380   2.599  21.344  0.00  0.00    +0.000 A 
ATOM     18  C   UNL     1       3.253   2.990  20.324  0.00  0.00    +0.000 A 
ATOM     19 CL   UNL     1       4.911   2.510  20.455  0.00  0.00    +0.000 Cl
ENDBRANCH   4  13
BRANCH   3  20
ATOM     20  N   UNL     1       3.379   6.535  19.091  0.00  0.00    +0.000 N 
ATOM     21  C   UNL     1       2.344   7.402  18.759  0.00  0.00    +0.000 C 
ATOM     22  O   UNL     1       1.951   7.604  17.615  0.00  0.00    +0.000 OA
ATOM     23  H   UNL     1       3.351   6.212  20.052  0.00  0.00    +0.000 HD
BRANCH  21  24
ATOM     24  C   UNL     1       1.745   8.028  19.936  0.00  0.00    +0.000 A 
ATOM     25  C   UNL     1       1.434   7.525  21.186  0.00  0.00    +0.000 A 
ATOM     26  C   UNL     1       0.829   8.584  21.910  0.00  0.00    +0.000 A 
ATOM     27  C   UNL     1       0.820   9.666  21.069  0.00  0.00    +0.000 A 
ATOM     28  O   UNL     1       1.384   9.349  19.877  0.00  0.00    +0.000 OA
ENDBRANCH  21  24
ENDBRANCH   3  20
TORSDOF 3
ENDMDL
MODEL 4
REMARK VINA RESULT:      -6.7      2.230      6.067
REMARK  Name = 
REMARK  4 active torsions:
REMARK  status: ('A' for Active; 'I' for Inactive)
REMARK    1  A    between atoms: C_1  and  N_2
REMARK    2  A    between atoms: C_3  and  N_4
REMARK    3  A    between atoms: C_5  and  C_7
REMARK    4  A    between atoms: C_12  and  C_13
REMARK                            x       y       z     vdW  Elec       q    Type
REMARK                         _______ _______ _______ _____ _____    ______ ____
ROOT
ATOM      1  C   UNL     1       2.882   8.831  17.245  0.00  0.00    +0.000 C 
ATOM      2  N   UNL     1       2.602   7.803  18.253  0.00  0.00    +0.000 N 
ATOM      3  C   UNL     1       2.898   6.440  18.052  0.00  0.00    +0.000 A 
ATOM      4  C   UNL     1       2.568   5.485  18.957  0.00  0.00    +0.000 A 
ATOM      5  C   UNL     1       1.859   5.890  20.205  0.00  0.00    +0.000 A 
ATOM      6  O   UNL     1       1.557   5.070  21.071  0.00  0.00    +0.000 OA
ATOM      7  C   UNL     1       1.538   7.310  20.398  0.00  0.00    +0.000 A 
ATOM      8  C   UNL     1       0.880   7.692  21.579  0.00  0.00    +0.000 A 
ATOM      9  C   UNL     1       0.556   9.024  21.797  0.00  0.00    +0.000 A 
ATOM     10  C   UNL     1       0.883   9.965  20.829  0.00  0.00    +0.000 A 
ATOM     11  C   UNL     1       1.544   9.577  19.653  0.00  0.00    +0.000 A 
ATOM     12  C   UNL     1       1.901   8.236  19.409  0.00  0.00    +0.000 A 
ENDROOT
BRANCH   4  13
ATOM     13  C   UNL     1       2.961   4.059  18.874  0.00  0.00    +0.000 A 
ATOM     14  C   UNL     1       2.006   3.119  18.456  0.00  0.00    +0.000 A 
ATOM     15  C   UNL     1       2.272   1.752  18.552  0.00  0.00    +0.000 A 
ATOM     16  C   UNL     1       3.492   1.310  19.058  0.00  0.00    +0.000 A 
ATOM     17  C   UNL     1       4.463   2.234  19.444  0.00  0.00    +0.000 A 
ATOM     18  C   UNL     1       4.202   3.604  19.350  0.00  0.00    +0.000 A 
ATOM     19 CL   UNL     1       5.442   4.697  19.861  0.00  0.00    +0.000 Cl
ENDBRANCH   4  13
BRANCH   3  20
ATOM     20  N   UNL     1       3.668   6.043  16.972  0.00  0.00    +0.000 N 
ATOM     21  C   UNL     1       5.037   6.263  16.873  0.00  0.00    +0.000 C 
ATOM     22  O   UNL     1       5.690   6.929  17.671  0.00  0.00    +0.000 OA
ATOM     23  H   UNL     1       3.348   5.220  16.475  0.00  0.00    +0.000 HD
BRANCH  21  24
ATOM     24  C   UNL     1       5.628   5.580  15.725  0.00  0.00    +0.000 A 
ATOM     25  C   UNL     1       5.142   4.583  14.898  0.00  0.00    +0.000 A 
ATOM     26  C   UNL     1       6.176   4.281  13.975  0.00  0.00    +0.000 A 
ATOM     27  C   UNL     1       7.218   5.116  14.283  0.00  0.00    +0.000 A 
ATOM     28  O   UNL     1       6.897   5.917  15.328  0.00  0.00    +0.000 OA
ENDBRANCH  21  24
ENDBRANCH   3  20
TORSDOF 3
ENDMDL
MODEL 5
REMARK VINA RESULT:      -6.4      8.553     11.396
REMARK  Name = 
REMARK  4 active torsions:
REMARK  status: ('A' for Active; 'I' for Inactive)
REMARK    1  A    between atoms: C_1  and  N_2
REMARK    2  A    between atoms: C_3  and  N_4
REMARK    3  A    between atoms: C_5  and  C_7
REMARK    4  A    between atoms: C_12  and  C_13
REMARK                            x       y       z     vdW  Elec       q    Type
REMARK                         _______ _______ _______ _____ _____    ______ ____
ROOT
ATOM      1  C   UNL     1      -1.245  11.904  20.434  0.00  0.00    +0.000 C 
ATOM      2  N   UNL     1      -2.545  12.126  19.791  0.00  0.00    +0.000 N 
ATOM      3  C   UNL     1      -3.566  12.895  20.384  0.00  0.00    +0.000 A 
ATOM      4  C   UNL     1      -4.791  13.034  19.818  0.00  0.00    +0.000 A 
ATOM      5  C   UNL     1      -5.071  12.339  18.529  0.00  0.00    +0.000 A 
ATOM      6  O   UNL     1      -6.157  12.449  17.959  0.00  0.00    +0.000 OA
ATOM      7  C   UNL     1      -4.008  11.525  17.927  0.00  0.00    +0.000 A 
ATOM      8  C   UNL     1      -4.269  10.880  16.706  0.00  0.00    +0.000 A 
ATOM      9  C   UNL     1      -3.291  10.097  16.108  0.00  0.00    +0.000 A 
ATOM     10  C   UNL     1      -2.061   9.956  16.737  0.00  0.00    +0.000 A 
ATOM     11  C   UNL     1      -1.806  10.606  17.955  0.00  0.00    +0.000 A 
ATOM     12  C   UNL     1      -2.771  11.420  18.580  0.00  0.00    +0.000 A 
ENDROOT
BRANCH   4  13
ATOM     13  C   UNL     1      -5.863  13.927  20.315  0.00  0.00    +0.000 A 
ATOM     14  C   UNL     1      -5.764  15.304  20.062  0.00  0.00    +0.000 A 
ATOM     15  C   UNL     1      -6.642  16.199  20.676  0.00  0.00    +0.000 A 
ATOM     16  C   UNL     1      -7.628  15.731  21.541  0.00  0.00    +0.000 A 
ATOM     17  C   UNL     1      -7.759  14.362  21.773  0.00  0.00    +0.000 A 
ATOM     18  C   UNL     1      -6.883  13.462  21.160  0.00  0.00    +0.000 A 
ATOM     19 CL   UNL     1      -7.089  11.778  21.505  0.00  0.00    +0.000 Cl
ENDBRANCH   4  13
BRANCH   3  20
ATOM     20  N   UNL     1      -3.304  13.658  21.509  0.00  0.00    +0.000 N 
ATOM     21  C   UNL     1      -3.491  13.209  22.811  0.00  0.00    +0.000 C 
ATOM     22  O   UNL     1      -4.014  12.139  23.106  0.00  0.00    +0.000 OA
ATOM     23  H   UNL     1      -2.572  14.353  21.416  0.00  0.00    +0.000 HD
BRANCH  21  24
ATOM     24  C   UNL     1      -2.961  14.144  23.802  0.00  0.00    +0.000 A 
ATOM     25  C   UNL     1      -3.588  15.052  24.636  0.00  0.00    +0.000 A 
ATOM     26  C   UNL     1      -2.562  15.719  25.354  0.00  0.00    +0.000 A 
ATOM     27  C   UNL     1      -1.380  15.172  24.928  0.00  0.00    +0.000 A 
ATOM     28  O   UNL     1      -1.606  14.208  24.001  0.00  0.00    +0.000 OA
ENDBRANCH  21  24
ENDBRANCH   3  20
TORSDOF 3
ENDMDL
MODEL 6
REMARK VINA RESULT:      -6.4      6.253      9.903
REMARK  Name = 
REMARK  4 active torsions:
REMARK  status: ('A' for Active; 'I' for Inactive)
REMARK    1  A    between atoms: C_1  and  N_2
REMARK    2  A    between atoms: C_3  and  N_4
REMARK    3  A    between atoms: C_5  and  C_7
REMARK    4  A    between atoms: C_12  and  C_13
REMARK                            x       y       z     vdW  Elec       q    Type
REMARK                         _______ _______ _______ _____ _____    ______ ____
ROOT
ATOM      1  C   UNL     1      -1.773  12.074  17.916  0.00  0.00    +0.000 C 
ATOM      2  N   UNL     1      -1.419  11.744  19.301  0.00  0.00    +0.000 N 
ATOM      3  C   UNL     1      -1.924  12.459  20.406  0.00  0.00    +0.000 A 
ATOM      4  C   UNL     1      -1.535  12.197  21.679  0.00  0.00    +0.000 A 
ATOM      5  C   UNL     1      -0.529  11.122  21.916  0.00  0.00    +0.000 A 
ATOM      6  O   UNL     1      -0.157  10.825  23.052  0.00  0.00    +0.000 OA
ATOM      7  C   UNL     1       0.006  10.395  20.758  0.00  0.00    +0.000 A 
ATOM      8  C   UNL     1       0.944   9.374  20.985  0.00  0.00    +0.000 A 
ATOM      9  C   UNL     1       1.477   8.666  19.916  0.00  0.00    +0.000 A 
ATOM     10  C   UNL     1       1.075   8.989  18.626  0.00  0.00    +0.000 A 
ATOM     11  C   UNL     1       0.133  10.008  18.407  0.00  0.00    +0.000 A 
ATOM     12  C   UNL     1      -0.438  10.733  19.472  0.00  0.00    +0.000 A 
ENDROOT
BRANCH   4  13
ATOM     13  C   UNL     1      -2.117  12.815  22.892  0.00  0.00    +0.000 A 
ATOM     14  C   UNL     1      -3.276  12.250  23.447  0.00  0.00    +0.000 A 
ATOM     15  C   UNL     1      -3.966  12.910  24.465  0.00  0.00    +0.000 A 
ATOM     16  C   UNL     1      -3.504  14.134  24.943  0.00  0.00    +0.000 A 
ATOM     17  C   UNL     1      -2.335  14.690  24.425  0.00  0.00    +0.000 A 
ATOM     18  C   UNL     1      -1.640  14.032  23.406  0.00  0.00    +0.000 A 
ATOM     19 CL   UNL     1      -0.205  14.783  22.795  0.00  0.00    +0.000 Cl
ENDBRANCH   4  13
BRANCH   3  20
ATOM     20  N   UNL     1      -2.952  13.371  20.238  0.00  0.00    +0.000 N 
ATOM     21  C   UNL     1      -4.292  13.019  20.134  0.00  0.00    +0.000 C 
ATOM     22  O   UNL     1      -4.701  11.864  20.063  0.00  0.00    +0.000 OA
ATOM     23  H   UNL     1      -2.800  14.292  20.634  0.00  0.00    +0.000 HD
BRANCH  21  24
ATOM     24  C   UNL     1      -5.176  14.183  20.152  0.00  0.00    +0.000 A 
ATOM     25  C   UNL     1      -5.240  15.275  20.999  0.00  0.00    +0.000 A 
ATOM     26  C   UNL     1      -6.329  16.068  20.557  0.00  0.00    +0.000 A 
ATOM     27  C   UNL     1      -6.853  15.424  19.467  0.00  0.00    +0.000 A 
ATOM     28  O   UNL     1      -6.157  14.292  19.200  0.00  0.00    +0.000 OA
ENDBRANCH  21  24
ENDBRANCH   3  20
TORSDOF 3
ENDMDL
MODEL 7
REMARK VINA RESULT:      -6.3      8.340     10.820
REMARK  Name = 
REMARK  4 active torsions:
REMARK  status: ('A' for Active; 'I' for Inactive)
REMARK    1  A    between atoms: C_1  and  N_2
REMARK    2  A    between atoms: C_3  and  N_4
REMARK    3  A    between atoms: C_5  and  C_7
REMARK    4  A    between atoms: C_12  and  C_13
REMARK                            x       y       z     vdW  Elec       q    Type
REMARK                         _______ _______ _______ _____ _____    ______ ____
ROOT
ATOM      1  C   UNL     1      -6.044  12.581  18.060  0.00  0.00    +0.000 C 
ATOM      2  N   UNL     1      -4.684  12.264  18.510  0.00  0.00    +0.000 N 
ATOM      3  C   UNL     1      -4.116  12.827  19.671  0.00  0.00    +0.000 A 
ATOM      4  C   UNL     1      -2.833  12.587  20.040  0.00  0.00    +0.000 A 
ATOM      5  C   UNL     1      -1.991  11.704  19.183  0.00  0.00    +0.000 A 
ATOM      6  O   UNL     1      -0.828  11.433  19.482  0.00  0.00    +0.000 OA
ATOM      7  C   UNL     1      -2.585  11.136  17.966  0.00  0.00    +0.000 A 
ATOM      8  C   UNL     1      -1.793  10.296  17.165  0.00  0.00    +0.000 A 
ATOM      9  C   UNL     1      -2.317   9.743  16.004  0.00  0.00    +0.000 A 
ATOM     10  C   UNL     1      -3.625  10.041  15.646  0.00  0.00    +0.000 A 
ATOM     11  C   UNL     1      -4.412  10.879  16.453  0.00  0.00    +0.000 A 
ATOM     12  C   UNL     1      -3.915  11.442  17.645  0.00  0.00    +0.000 A 
ENDROOT
BRANCH   4  13
ATOM     13  C   UNL     1      -2.213  13.036  21.308  0.00  0.00    +0.000 A 
ATOM     14  C   UNL     1      -2.436  12.283  22.471  0.00  0.00    +0.000 A 
ATOM     15  C   UNL     1      -2.038  12.774  23.716  0.00  0.00    +0.000 A 
ATOM     16  C   UNL     1      -1.410  14.013  23.812  0.00  0.00    +0.000 A 
ATOM     17  C   UNL     1      -1.151  14.755  22.661  0.00  0.00    +0.000 A 
ATOM     18  C   UNL     1      -1.548  14.268  21.411  0.00  0.00    +0.000 A 
ATOM     19 CL   UNL     1      -1.212  15.246  20.023  0.00  0.00    +0.000 Cl
ENDBRANCH   4  13
BRANCH   3  20
ATOM     20  N   UNL     1      -4.902  13.542  20.558  0.00  0.00    +0.000 N 
ATOM     21  C   UNL     1      -5.768  12.956  21.474  0.00  0.00    +0.000 C 
ATOM     22  O   UNL     1      -6.017  11.756  21.521  0.00  0.00    +0.000 OA
ATOM     23  H   UNL     1      -4.535  14.439  20.856  0.00  0.00    +0.000 HD
BRANCH  21  24
ATOM     24  C   UNL     1      -6.330  13.929  22.408  0.00  0.00    +0.000 A 
ATOM     25  C   UNL     1      -5.749  14.971  23.110  0.00  0.00    +0.000 A 
ATOM     26  C   UNL     1      -6.776  15.550  23.899  0.00  0.00    +0.000 A 
ATOM     27  C   UNL     1      -7.916  14.842  23.623  0.00  0.00    +0.000 A 
ATOM     28  O   UNL     1      -7.665  13.869  22.713  0.00  0.00    +0.000 OA
ENDBRANCH  21  24
ENDBRANCH   3  20
TORSDOF 3
ENDMDL
MODEL 8
REMARK VINA RESULT:      -6.2      7.781     11.246
REMARK  Name = 
REMARK  4 active torsions:
REMARK  status: ('A' for Active; 'I' for Inactive)
REMARK    1  A    between atoms: C_1  and  N_2
REMARK    2  A    between atoms: C_3  and  N_4
REMARK    3  A    between atoms: C_5  and  C_7
REMARK    4  A    between atoms: C_12  and  C_13
REMARK                            x       y       z     vdW  Elec       q    Type
REMARK                         _______ _______ _______ _____ _____    ______ ____
ROOT
ATOM      1  C   UNL     1      -3.012  14.304  22.006  0.00  0.00    +0.000 C 
ATOM      2  N   UNL     1      -3.839  13.357  21.250  0.00  0.00    +0.000 N 
ATOM      3  C   UNL     1      -3.428  12.799  20.023  0.00  0.00    +0.000 A 
ATOM      4  C   UNL     1      -4.229  11.983  19.293  0.00  0.00    +0.000 A 
ATOM      5  C   UNL     1      -5.596  11.673  19.802  0.00  0.00    +0.000 A 
ATOM      6  O   UNL     1      -6.356  10.920  19.194  0.00  0.00    +0.000 OA
ATOM      7  C   UNL     1      -6.022  12.273  21.072  0.00  0.00    +0.000 A 
ATOM      8  C   UNL     1      -7.307  11.971  21.557  0.00  0.00    +0.000 A 
ATOM      9  C   UNL     1      -7.749  12.522  22.752  0.00  0.00    +0.000 A 
ATOM     10  C   UNL     1      -6.908  13.379  23.451  0.00  0.00    +0.000 A 
ATOM     11  C   UNL     1      -5.625  13.673  22.963  0.00  0.00    +0.000 A 
ATOM     12  C   UNL     1      -5.141  13.118  21.762  0.00  0.00    +0.000 A 
ENDROOT
BRANCH   4  13
ATOM     13  C   UNL     1      -3.818  11.259  18.067  0.00  0.00    +0.000 A 
ATOM     14  C   UNL     1      -2.757  10.345  18.148  0.00  0.00    +0.000 A 
ATOM     15  C   UNL     1      -2.212   9.792  16.987  0.00  0.00    +0.000 A 
ATOM     16  C   UNL     1      -2.723  10.141  15.739  0.00  0.00    +0.000 A 
ATOM     17  C   UNL     1      -3.800  11.022  15.647  0.00  0.00    +0.000 A 
ATOM     18  C   UNL     1      -4.349  11.578  16.807  0.00  0.00    +0.000 A 
ATOM     19 CL   UNL     1      -5.673  12.678  16.622  0.00  0.00    +0.000 Cl
ENDBRANCH   4  13
BRANCH   3  20
ATOM     20  N   UNL     1      -2.125  12.957  19.584  0.00  0.00    +0.000 N 
ATOM     21  C   UNL     1      -1.034  12.296  20.137  0.00  0.00    +0.000 C 
ATOM     22  O   UNL     1      -1.087  11.593  21.141  0.00  0.00    +0.000 OA
ATOM     23  H   UNL     1      -2.009  13.190  18.604  0.00  0.00    +0.000 HD
BRANCH  21  24
ATOM     24  C   UNL     1       0.190  12.502  19.366  0.00  0.00    +0.000 A 
ATOM     25  C   UNL     1       1.103  11.609  18.835  0.00  0.00    +0.000 A 
ATOM     26  C   UNL     1       2.119  12.384  18.221  0.00  0.00    +0.000 A 
ATOM     27  C   UNL     1       1.761  13.695  18.400  0.00  0.00    +0.000 A 
ATOM     28  O   UNL     1       0.590  13.782  19.078  0.00  0.00    +0.000 OA
ENDBRANCH  21  24
ENDBRANCH   3  20
TORSDOF 3
ENDMDL
MODEL 9
REMARK VINA RESULT:      -6.2      4.513      8.311
REMARK  Name = 
REMARK  4 active torsions:
REMARK  status: ('A' for Active; 'I' for Inactive)
REMARK    1  A    between atoms: C_1  and  N_2
REMARK    2  A    between atoms: C_3  and  N_4
REMARK    3  A    between atoms: C_5  and  C_7
REMARK    4  A    between atoms: C_12  and  C_13
REMARK                            x       y       z     vdW  Elec       q    Type
REMARK                         _______ _______ _______ _____ _____    ______ ____
ROOT
ATOM      1  C   UNL     1      -0.144   9.291  22.835  0.00  0.00    +0.000 C 
ATOM      2  N   UNL     1       0.458   9.755  21.580  0.00  0.00    +0.000 N 
ATOM      3  C   UNL     1       0.353  11.087  21.133  0.00  0.00    +0.000 A 
ATOM      4  C   UNL     1       0.847  11.491  19.936  0.00  0.00    +0.000 A 
ATOM      5  C   UNL     1       1.517  10.488  19.059  0.00  0.00    +0.000 A 
ATOM      6  O   UNL     1       2.005  10.803  17.974  0.00  0.00    +0.000 OA
ATOM      7  C   UNL     1       1.606   9.098  19.525  0.00  0.00    +0.000 A 
ATOM      8  C   UNL     1       2.247   8.157  18.702  0.00  0.00    +0.000 A 
ATOM      9  C   UNL     1       2.348   6.832  19.105  0.00  0.00    +0.000 A 
ATOM     10  C   UNL     1       1.799   6.454  20.324  0.00  0.00    +0.000 A 
ATOM     11  C   UNL     1       1.162   7.402  21.143  0.00  0.00    +0.000 A 
ATOM     12  C   UNL     1       1.058   8.756  20.770  0.00  0.00    +0.000 A 
ENDROOT
BRANCH   4  13
ATOM     13  C   UNL     1       0.890  12.893  19.461  0.00  0.00    +0.000 A 
ATOM     14  C   UNL     1       1.903  13.737  19.940  0.00  0.00    +0.000 A 
ATOM     15  C   UNL     1       1.864  15.107  19.675  0.00  0.00    +0.000 A 
ATOM     16  C   UNL     1       0.821  15.646  18.926  0.00  0.00    +0.000 A 
ATOM     17  C   UNL     1      -0.173  14.813  18.414  0.00  0.00    +0.000 A 
ATOM     18  C   UNL     1      -0.139  13.440  18.677  0.00  0.00    +0.000 A 
ATOM     19 CL   UNL     1      -1.412  12.465  18.027  0.00  0.00    +0.000 Cl
ENDBRANCH   4  13
BRANCH   3  20
ATOM     20  N   UNL     1      -0.143  12.070  21.972  0.00  0.00    +0.000 N 
ATOM     21  C   UNL     1      -1.478  12.458  22.009  0.00  0.00    +0.000 C 
ATOM     22  O   UNL     1      -2.336  12.058  21.229  0.00  0.00    +0.000 OA
ATOM     23  H   UNL     1       0.343  12.192  22.853  0.00  0.00    +0.000 HD
BRANCH  21  24
ATOM     24  C   UNL     1      -1.759  13.377  23.110  0.00  0.00    +0.000 A 
ATOM     25  C   UNL     1      -2.914  13.622  23.830  0.00  0.00    +0.000 A 
ATOM     26  C   UNL     1      -2.606  14.653  24.753  0.00  0.00    +0.000 A 
ATOM     27  C   UNL     1      -1.286  14.963  24.553  0.00  0.00    +0.000 A 
ATOM     28  O   UNL     1      -0.757  14.189  23.573  0.00  0.00    +0.000 OA
ENDBRANCH  21  24
ENDBRANCH   3  20
TORSDOF 3
ENDMDL
