MODEL 1
REMARK VINA RESULT:      -8.1      0.000      0.000
REMARK  Name = 
REMARK  4 active torsions:
REMARK  status: ('A' for Active; 'I' for Inactive)
REMARK    1  A    between atoms: C_2  and  C_3
REMARK    2  A    between atoms: C_3  and  N_4
REMARK    3  A    between atoms: N_15  and  C_16
REMARK    4  A    between atoms: C_18  and  C_19
REMARK                            x       y       z     vdW  Elec       q    Type
REMARK                         _______ _______ _______ _____ _____    ______ ____
ROOT
ATOM      1  O   UNL     1       5.588   6.796  15.404  0.00  0.00    +0.000 OA
ATOM      2  C   UNL     1       5.846   5.863  16.151  0.00  0.00    +0.000 C 
ATOM      3  N   UNL     1       6.065   4.530  15.633  0.00  0.00    +0.000 N 
ATOM      4  H   UNL     1       6.284   3.786  16.295  0.00  0.00    +0.000 HD
ENDROOT
BRANCH   3   5
ATOM      5  C   UNL     1       6.012   4.232  14.276  0.00  0.00    +0.000 A 
ATOM      6  C   UNL     1       4.951   3.752  13.539  0.00  0.00    +0.000 A 
ATOM      7  C   UNL     1       5.470   3.525  12.251  0.00  0.00    +0.000 A 
ATOM      8  N   UNL     1       6.748   3.899  12.149  0.00  0.00    +0.000 NA
ATOM      9  N   UNL     1       7.036   4.375  13.373  0.00  0.00    +0.000 N 
ATOM     10  H   UNL     1       7.974   4.727  13.530  0.00  0.00    +0.000 HD
BRANCH   7  11
ATOM     11  C   UNL     1       4.658   2.893  11.130  0.00  0.00    +0.000 C 
ATOM     12  C   UNL     1       3.148   2.840  11.240  0.00  0.00    +0.000 C 
ATOM     13  C   UNL     1       3.778   3.799  10.289  0.00  0.00    +0.000 C 
ENDBRANCH   7  11
ENDBRANCH   3   5
BRANCH   2  14
ATOM     14  C   UNL     1       6.005   6.036  17.648  0.00  0.00    +0.000 C 
BRANCH  14  15
ATOM     15  N   UNL     1       4.773   5.635  18.298  0.00  0.00    +0.000 N 
ATOM     16  C   UNL     1       3.645   6.417  18.215  0.00  0.00    +0.000 A 
ATOM     17  N   UNL     1       2.517   6.134  18.770  0.00  0.00    +0.000 NA
ATOM     18  C   UNL     1       2.420   4.921  19.474  0.00  0.00    +0.000 A 
ATOM     19  C   UNL     1       1.180   4.539  19.990  0.00  0.00    +0.000 A 
ATOM     20  C   UNL     1       1.036   3.318  20.655  0.00  0.00    +0.000 A 
ATOM     21  C   UNL     1       2.136   2.476  20.822  0.00  0.00    +0.000 A 
ATOM     22  C   UNL     1       3.385   2.856  20.333  0.00  0.00    +0.000 A 
ATOM     23  C   UNL     1       3.516   4.074  19.660  0.00  0.00    +0.000 A 
ATOM     24  C   UNL     1       4.809   4.503  19.098  0.00  0.00    +0.000 A 
ATOM     25  O   UNL     1       5.867   3.927  19.355  0.00  0.00    +0.000 OA
ENDBRANCH  14  15
ENDBRANCH   2  14
TORSDOF 4
ENDMDL
MODEL 2
REMARK VINA RESULT:      -8.1      1.005      1.297
REMARK  Name = 
REMARK  4 active torsions:
REMARK  status: ('A' for Active; 'I' for Inactive)
REMARK    1  A    between atoms: C_2  and  C_3
REMARK    2  A    between atoms: C_3  and  N_4
REMARK    3  A    between atoms: N_15  and  C_16
REMARK    4  A    between atoms: C_18  and  C_19
REMARK                            x       y       z     vdW  Elec       q    Type
REMARK                         _______ _______ _______ _____ _____    ______ ____
ROOT
ATOM      1  O   UNL     1       5.302   6.835  15.525  0.00  0.00    +0.000 OA
ATOM      2  C   UNL     1       5.850   6.063  16.299  0.00  0.00    +0.000 C 
ATOM      3  N   UNL     1       6.525   4.877  15.817  0.00  0.00    +0.000 N 
ATOM      4  H   UNL     1       6.973   4.268  16.500  0.00  0.00    +0.000 HD
ENDROOT
BRANCH   3   5
ATOM      5  C   UNL     1       6.605   4.553  14.467  0.00  0.00    +0.000 A 
ATOM      6  C   UNL     1       5.909   3.590  13.769  0.00  0.00    +0.000 A 
ATOM      7  C   UNL     1       6.451   3.611  12.470  0.00  0.00    +0.000 A 
ATOM      8  N   UNL     1       7.374   4.566  12.326  0.00  0.00    +0.000 NA
ATOM      9  N   UNL     1       7.409   5.158  13.533  0.00  0.00    +0.000 N 
ATOM     10  H   UNL     1       8.051   5.932  13.657  0.00  0.00    +0.000 HD
BRANCH   7  11
ATOM     11  C   UNL     1       6.041   2.628  11.384  0.00  0.00    +0.000 C 
ATOM     12  C   UNL     1       7.096   1.762  10.726  0.00  0.00    +0.000 C 
ATOM     13  C   UNL     1       6.141   1.146  11.690  0.00  0.00    +0.000 C 
ENDBRANCH   7  11
ENDBRANCH   3   5
BRANCH   2  14
ATOM     14  C   UNL     1       5.910   6.309  17.792  0.00  0.00    +0.000 C 
BRANCH  14  15
ATOM     15  N   UNL     1       4.694   5.806  18.398  0.00  0.00    +0.000 N 
ATOM     16  C   UNL     1       3.530   6.537  18.358  0.00  0.00    +0.000 A 
ATOM     17  N   UNL     1       2.413   6.161  18.879  0.00  0.00    +0.000 NA
ATOM     18  C   UNL     1       2.368   4.899  19.493  0.00  0.00    +0.000 A 
ATOM     19  C   UNL     1       1.145   4.422  19.967  0.00  0.00    +0.000 A 
ATOM     20  C   UNL     1       1.054   3.151  20.542  0.00  0.00    +0.000 A 
ATOM     21  C   UNL     1       2.192   2.352  20.662  0.00  0.00    +0.000 A 
ATOM     22  C   UNL     1       3.426   2.825  20.215  0.00  0.00    +0.000 A 
ATOM     23  C   UNL     1       3.503   4.093  19.632  0.00  0.00    +0.000 A 
ATOM     24  C   UNL     1       4.778   4.623  19.116  0.00  0.00    +0.000 A 
ATOM     25  O   UNL     1       5.861   4.080  19.343  0.00  0.00    +0.000 OA
ENDBRANCH  14  15
ENDBRANCH   2  14
TORSDOF 4
ENDMDL
MODEL 3
REMARK VINA RESULT:      -8.1      1.696      2.276
REMARK  Name = 
REMARK  4 active torsions:
REMARK  status: ('A' for Active; 'I' for Inactive)
REMARK    1  A    between atoms: C_2  and  C_3
REMARK    2  A    between atoms: C_3  and  N_4
REMARK    3  A    between atoms: N_15  and  C_16
REMARK    4  A    between atoms: C_18  and  C_19
REMARK                            x       y       z     vdW  Elec       q    Type
REMARK                         _______ _______ _______ _____ _____    ______ ____
ROOT
ATOM      1  O   UNL     1       8.156   4.209  17.345  0.00  0.00    +0.000 OA
ATOM      2  C   UNL     1       7.124   4.820  17.580  0.00  0.00    +0.000 C 
ATOM      3  N   UNL     1       6.265   5.275  16.508  0.00  0.00    +0.000 N 
ATOM      4  H   UNL     1       5.412   5.775  16.755  0.00  0.00    +0.000 HD
ENDROOT
BRANCH   3   5
ATOM      5  C   UNL     1       6.546   5.039  15.167  0.00  0.00    +0.000 A 
ATOM      6  C   UNL     1       5.824   4.307  14.250  0.00  0.00    +0.000 A 
ATOM      7  C   UNL     1       6.609   4.300  13.082  0.00  0.00    +0.000 A 
ATOM      8  N   UNL     1       7.717   5.034  13.216  0.00  0.00    +0.000 NA
ATOM      9  N   UNL     1       7.627   5.516  14.469  0.00  0.00    +0.000 N 
ATOM     10  H   UNL     1       8.376   6.117  14.794  0.00  0.00    +0.000 HD
BRANCH   7  11
ATOM     11  C   UNL     1       6.235   3.513  11.835  0.00  0.00    +0.000 C 
ATOM     12  C   UNL     1       5.607   2.142  11.980  0.00  0.00    +0.000 C 
ATOM     13  C   UNL     1       4.761   3.291  11.549  0.00  0.00    +0.000 C 
ENDBRANCH   7  11
ENDBRANCH   3   5
BRANCH   2  14
ATOM     14  C   UNL     1       6.643   5.099  18.990  0.00  0.00    +0.000 C 
BRANCH  14  15
ATOM     15  N   UNL     1       5.377   4.422  19.194  0.00  0.00    +0.000 N 
ATOM     16  C   UNL     1       5.279   3.056  19.068  0.00  0.00    +0.000 A 
ATOM     17  N   UNL     1       4.191   2.385  19.227  0.00  0.00    +0.000 NA
ATOM     18  C   UNL     1       3.033   3.090  19.595  0.00  0.00    +0.000 A 
ATOM     19  C   UNL     1       1.869   2.374  19.879  0.00  0.00    +0.000 A 
ATOM     20  C   UNL     1       0.712   3.039  20.293  0.00  0.00    +0.000 A 
ATOM     21  C   UNL     1       0.705   4.430  20.411  0.00  0.00    +0.000 A 
ATOM     22  C   UNL     1       1.853   5.160  20.106  0.00  0.00    +0.000 A 
ATOM     23  C   UNL     1       3.009   4.484  19.703  0.00  0.00    +0.000 A 
ATOM     24  C   UNL     1       4.255   5.210  19.402  0.00  0.00    +0.000 A 
ATOM     25  O   UNL     1       4.297   6.436  19.293  0.00  0.00    +0.000 OA
ENDBRANCH  14  15
ENDBRANCH   2  14
TORSDOF 4
ENDMDL
MODEL 4
REMARK VINA RESULT:      -8.0      1.363      1.997
REMARK  Name = 
REMARK  4 active torsions:
REMARK  status: ('A' for Active; 'I' for Inactive)
REMARK    1  A    between atoms: C_2  and  C_3
REMARK    2  A    between atoms: C_3  and  N_4
REMARK    3  A    between atoms: N_15  and  C_16
REMARK    4  A    between atoms: C_18  and  C_19
REMARK                            x       y       z     vdW  Elec       q    Type
REMARK                         _______ _______ _______ _____ _____    ______ ____
ROOT
ATOM      1  O   UNL     1       5.373   6.930  15.838  0.00  0.00    +0.000 OA
ATOM      2  C   UNL     1       6.003   6.173  16.563  0.00  0.00    +0.000 C 
ATOM      3  N   UNL     1       6.789   5.092  16.009  0.00  0.00    +0.000 N 
ATOM      4  H   UNL     1       7.303   4.492  16.653  0.00  0.00    +0.000 HD
ENDROOT
BRANCH   3   5
ATOM      5  C   UNL     1       6.888   4.857  14.642  0.00  0.00    +0.000 A 
ATOM      6  C   UNL     1       6.152   3.993  13.860  0.00  0.00    +0.000 A 
ATOM      7  C   UNL     1       6.733   4.067  12.581  0.00  0.00    +0.000 A 
ATOM      8  N   UNL     1       7.721   4.965  12.527  0.00  0.00    +0.000 NA
ATOM      9  N   UNL     1       7.757   5.469  13.774  0.00  0.00    +0.000 N 
ATOM     10  H   UNL     1       8.445   6.187  13.969  0.00  0.00    +0.000 HD
BRANCH   7  11
ATOM     11  C   UNL     1       6.293   3.191  11.417  0.00  0.00    +0.000 C 
ATOM     12  C   UNL     1       5.857   1.765  11.681  0.00  0.00    +0.000 C 
ATOM     13  C   UNL     1       4.831   2.791  11.341  0.00  0.00    +0.000 C 
ENDBRANCH   7  11
ENDBRANCH   3   5
BRANCH   2  14
ATOM     14  C   UNL     1       6.053   6.337  18.068  0.00  0.00    +0.000 C 
BRANCH  14  15
ATOM     15  N   UNL     1       5.164   5.366  18.673  0.00  0.00    +0.000 N 
ATOM     16  C   UNL     1       5.594   4.089  18.948  0.00  0.00    +0.000 A 
ATOM     17  N   UNL     1       4.863   3.169  19.477  0.00  0.00    +0.000 NA
ATOM     18  C   UNL     1       3.547   3.505  19.837  0.00  0.00    +0.000 A 
ATOM     19  C   UNL     1       2.771   2.560  20.511  0.00  0.00    +0.000 A 
ATOM     20  C   UNL     1       1.474   2.875  20.926  0.00  0.00    +0.000 A 
ATOM     21  C   UNL     1       0.937   4.135  20.656  0.00  0.00    +0.000 A 
ATOM     22  C   UNL     1       1.692   5.080  19.962  0.00  0.00    +0.000 A 
ATOM     23  C   UNL     1       2.992   4.758  19.561  0.00  0.00    +0.000 A 
ATOM     24  C   UNL     1       3.839   5.734  18.854  0.00  0.00    +0.000 A 
ATOM     25  O   UNL     1       3.397   6.794  18.407  0.00  0.00    +0.000 OA
ENDBRANCH  14  15
ENDBRANCH   2  14
TORSDOF 4
ENDMDL
MODEL 5
REMARK VINA RESULT:      -7.9      1.299      1.546
REMARK  Name = 
REMARK  4 active torsions:
REMARK  status: ('A' for Active; 'I' for Inactive)
REMARK    1  A    between atoms: C_2  and  C_3
REMARK    2  A    between atoms: C_3  and  N_4
REMARK    3  A    between atoms: N_15  and  C_16
REMARK    4  A    between atoms: C_18  and  C_19
REMARK                            x       y       z     vdW  Elec       q    Type
REMARK                         _______ _______ _______ _____ _____    ______ ____
ROOT
ATOM      1  O   UNL     1       7.655   6.019  17.310  0.00  0.00    +0.000 OA
ATOM      2  C   UNL     1       6.918   5.115  17.676  0.00  0.00    +0.000 C 
ATOM      3  N   UNL     1       6.279   4.238  16.719  0.00  0.00    +0.000 N 
ATOM      4  H   UNL     1       5.679   3.494  17.074  0.00  0.00    +0.000 HD
ENDROOT
BRANCH   3   5
ATOM      5  C   UNL     1       6.469   4.356  15.346  0.00  0.00    +0.000 A 
ATOM      6  C   UNL     1       5.838   3.677  14.327  0.00  0.00    +0.000 A 
ATOM      7  C   UNL     1       6.483   4.098  13.149  0.00  0.00    +0.000 A 
ATOM      8  N   UNL     1       7.409   5.031  13.387  0.00  0.00    +0.000 NA
ATOM      9  N   UNL     1       7.341   5.210  14.719  0.00  0.00    +0.000 N 
ATOM     10  H   UNL     1       7.967   5.892  15.132  0.00  0.00    +0.000 HD
BRANCH   7  11
ATOM     11  C   UNL     1       6.169   3.518  11.778  0.00  0.00    +0.000 C 
ATOM     12  C   UNL     1       5.654   2.098  11.670  0.00  0.00    +0.000 C 
ATOM     13  C   UNL     1       4.717   3.233  11.441  0.00  0.00    +0.000 C 
ENDBRANCH   7  11
ENDBRANCH   3   5
BRANCH   2  14
ATOM     14  C   UNL     1       6.662   4.813  19.139  0.00  0.00    +0.000 C 
BRANCH  14  15
ATOM     15  N   UNL     1       5.231   4.770  19.363  0.00  0.00    +0.000 N 
ATOM     16  C   UNL     1       4.481   5.923  19.358  0.00  0.00    +0.000 A 
ATOM     17  N   UNL     1       3.208   5.968  19.556  0.00  0.00    +0.000 NA
ATOM     18  C   UNL     1       2.532   4.751  19.749  0.00  0.00    +0.000 A 
ATOM     19  C   UNL     1       1.140   4.763  19.856  0.00  0.00    +0.000 A 
ATOM     20  C   UNL     1       0.431   3.568  20.001  0.00  0.00    +0.000 A 
ATOM     21  C   UNL     1       1.111   2.350  20.056  0.00  0.00    +0.000 A 
ATOM     22  C   UNL     1       2.503   2.325  19.975  0.00  0.00    +0.000 A 
ATOM     23  C   UNL     1       3.202   3.526  19.819  0.00  0.00    +0.000 A 
ATOM     24  C   UNL     1       4.670   3.547  19.697  0.00  0.00    +0.000 A 
ATOM     25  O   UNL     1       5.368   2.556  19.921  0.00  0.00    +0.000 OA
ENDBRANCH  14  15
ENDBRANCH   2  14
TORSDOF 4
ENDMDL
MODEL 6
REMARK VINA RESULT:      -7.9      4.414      7.123
REMARK  Name = 
REMARK  4 active torsions:
REMARK  status: ('A' for Active; 'I' for Inactive)
REMARK    1  A    between atoms: C_2  and  C_3
REMARK    2  A    between atoms: C_3  and  N_4
REMARK    3  A    between atoms: N_15  and  C_16
REMARK    4  A    between atoms: C_18  and  C_19
REMARK                            x       y       z     vdW  Elec       q    Type
REMARK                         _______ _______ _______ _____ _____    ______ ____
ROOT
ATOM      1  O   UNL     1       8.206   6.742  18.778  0.00  0.00    +0.000 OA
ATOM      2  C   UNL     1       7.540   7.195  17.859  0.00  0.00    +0.000 C 
ATOM      3  N   UNL     1       7.609   8.597  17.508  0.00  0.00    +0.000 N 
ATOM      4  H   UNL     1       7.040   8.926  16.729  0.00  0.00    +0.000 HD
ENDROOT
BRANCH   3   5
ATOM      5  C   UNL     1       8.432   9.500  18.173  0.00  0.00    +0.000 A 
ATOM      6  C   UNL     1       8.863  10.741  17.757  0.00  0.00    +0.000 A 
ATOM      7  C   UNL     1       9.756  11.174  18.756  0.00  0.00    +0.000 A 
ATOM      8  N   UNL     1       9.836  10.308  19.770  0.00  0.00    +0.000 NA
ATOM      9  N   UNL     1       8.982   9.330  19.419  0.00  0.00    +0.000 N 
ATOM     10  H   UNL     1       8.875   8.550  20.057  0.00  0.00    +0.000 HD
BRANCH   7  11
ATOM     11  C   UNL     1      10.553  12.466  18.652  0.00  0.00    +0.000 C 
ATOM     12  C   UNL     1      11.933  12.542  19.271  0.00  0.00    +0.000 C 
ATOM     13  C   UNL     1      11.801  12.466  17.789  0.00  0.00    +0.000 C 
ENDBRANCH   7  11
ENDBRANCH   3   5
BRANCH   2  14
ATOM     14  C   UNL     1       6.646   6.330  16.994  0.00  0.00    +0.000 C 
BRANCH  14  15
ATOM     15  N   UNL     1       5.702   5.635  17.847  0.00  0.00    +0.000 N 
ATOM     16  C   UNL     1       5.962   4.361  18.295  0.00  0.00    +0.000 A 
ATOM     17  N   UNL     1       5.171   3.677  19.049  0.00  0.00    +0.000 NA
ATOM     18  C   UNL     1       3.981   4.289  19.477  0.00  0.00    +0.000 A 
ATOM     19  C   UNL     1       3.162   3.611  20.381  0.00  0.00    +0.000 A 
ATOM     20  C   UNL     1       1.995   4.208  20.865  0.00  0.00    +0.000 A 
ATOM     21  C   UNL     1       1.629   5.485  20.435  0.00  0.00    +0.000 A 
ATOM     22  C   UNL     1       2.425   6.164  19.513  0.00  0.00    +0.000 A 
ATOM     23  C   UNL     1       3.597   5.562  19.044  0.00  0.00    +0.000 A 
ATOM     24  C   UNL     1       4.486   6.253  18.095  0.00  0.00    +0.000 A 
ATOM     25  O   UNL     1       4.159   7.291  17.517  0.00  0.00    +0.000 OA
ENDBRANCH  14  15
ENDBRANCH   2  14
TORSDOF 4
ENDMDL
MODEL 7
REMARK VINA RESULT:      -7.8      1.116      1.713
REMARK  Name = 
REMARK  4 active torsions:
REMARK  status: ('A' for Active; 'I' for Inactive)
REMARK    1  A    between atoms: C_2  and  C_3
REMARK    2  A    between atoms: C_3  and  N_4
REMARK    3  A    between atoms: N_15  and  C_16
REMARK    4  A    between atoms: C_18  and  C_19
REMARK                            x       y       z     vdW  Elec       q    Type
REMARK                         _______ _______ _______ _____ _____    ______ ____
ROOT
ATOM      1  O   UNL     1       5.211   6.860  15.296  0.00  0.00    +0.000 OA
ATOM      2  C   UNL     1       5.691   6.044  16.069  0.00  0.00    +0.000 C 
ATOM      3  N   UNL     1       6.148   4.753  15.603  0.00  0.00    +0.000 N 
ATOM      4  H   UNL     1       6.547   4.108  16.285  0.00  0.00    +0.000 HD
ENDROOT
BRANCH   3   5
ATOM      5  C   UNL     1       6.086   4.370  14.267  0.00  0.00    +0.000 A 
ATOM      6  C   UNL     1       5.013   3.871  13.562  0.00  0.00    +0.000 A 
ATOM      7  C   UNL     1       5.524   3.548  12.291  0.00  0.00    +0.000 A 
ATOM      8  N   UNL     1       6.811   3.883  12.166  0.00  0.00    +0.000 NA
ATOM      9  N   UNL     1       7.113   4.429  13.358  0.00  0.00    +0.000 N 
ATOM     10  H   UNL     1       8.059   4.767  13.492  0.00  0.00    +0.000 HD
BRANCH   7  11
ATOM     11  C   UNL     1       4.696   2.866  11.212  0.00  0.00    +0.000 C 
ATOM     12  C   UNL     1       3.185   2.872  11.317  0.00  0.00    +0.000 C 
ATOM     13  C   UNL     1       3.850   3.739  10.305  0.00  0.00    +0.000 C 
ENDBRANCH   7  11
ENDBRANCH   3   5
BRANCH   2  14
ATOM     14  C   UNL     1       5.889   6.333  17.543  0.00  0.00    +0.000 C 
BRANCH  14  15
ATOM     15  N   UNL     1       5.097   5.395  18.314  0.00  0.00    +0.000 N 
ATOM     16  C   UNL     1       5.636   4.206  18.747  0.00  0.00    +0.000 A 
ATOM     17  N   UNL     1       4.995   3.320  19.429  0.00  0.00    +0.000 NA
ATOM     18  C   UNL     1       3.669   3.605  19.792  0.00  0.00    +0.000 A 
ATOM     19  C   UNL     1       2.990   2.712  20.623  0.00  0.00    +0.000 A 
ATOM     20  C   UNL     1       1.686   2.987  21.043  0.00  0.00    +0.000 A 
ATOM     21  C   UNL     1       1.043   4.152  20.622  0.00  0.00    +0.000 A 
ATOM     22  C   UNL     1       1.700   5.042  19.772  0.00  0.00    +0.000 A 
ATOM     23  C   UNL     1       3.008   4.762  19.367  0.00  0.00    +0.000 A 
ATOM     24  C   UNL     1       3.754   5.688  18.496  0.00  0.00    +0.000 A 
ATOM     25  O   UNL     1       3.216   6.637  17.923  0.00  0.00    +0.000 OA
ENDBRANCH  14  15
ENDBRANCH   2  14
TORSDOF 4
ENDMDL
MODEL 8
REMARK VINA RESULT:      -7.8      4.253      6.820
REMARK  Name = 
REMARK  4 active torsions:
REMARK  status: ('A' for Active; 'I' for Inactive)
REMARK    1  A    between atoms: C_2  and  C_3
REMARK    2  A    between atoms: C_3  and  N_4
REMARK    3  A    between atoms: N_15  and  C_16
REMARK    4  A    between atoms: C_18  and  C_19
REMARK                            x       y       z     vdW  Elec       q    Type
REMARK                         _______ _______ _______ _____ _____    ______ ____
ROOT
ATOM      1  O   UNL     1       8.167   6.635  18.780  0.00  0.00    +0.000 OA
ATOM      2  C   UNL     1       7.493   7.036  17.842  0.00  0.00    +0.000 C 
ATOM      3  N   UNL     1       7.523   8.426  17.443  0.00  0.00    +0.000 N 
ATOM      4  H   UNL     1       6.949   8.711  16.650  0.00  0.00    +0.000 HD
ENDROOT
BRANCH   3   5
ATOM      5  C   UNL     1       8.315   9.376  18.079  0.00  0.00    +0.000 A 
ATOM      6  C   UNL     1       8.649  10.644  17.656  0.00  0.00    +0.000 A 
ATOM      7  C   UNL     1       9.556  11.127  18.618  0.00  0.00    +0.000 A 
ATOM      8  N   UNL     1       9.733  10.263  19.622  0.00  0.00    +0.000 NA
ATOM      9  N   UNL     1       8.928   9.235  19.299  0.00  0.00    +0.000 N 
ATOM     10  H   UNL     1       8.897   8.446  19.936  0.00  0.00    +0.000 HD
BRANCH   7  11
ATOM     11  C   UNL     1      10.265  12.467  18.492  0.00  0.00    +0.000 C 
ATOM     12  C   UNL     1      11.434  12.781  19.402  0.00  0.00    +0.000 C 
ATOM     13  C   UNL     1      11.688  12.473  17.966  0.00  0.00    +0.000 C 
ENDBRANCH   7  11
ENDBRANCH   3   5
BRANCH   2  14
ATOM     14  C   UNL     1       6.629   6.115  17.005  0.00  0.00    +0.000 C 
BRANCH  14  15
ATOM     15  N   UNL     1       5.398   5.851  17.721  0.00  0.00    +0.000 N 
ATOM     16  C   UNL     1       4.358   6.750  17.693  0.00  0.00    +0.000 A 
ATOM     17  N   UNL     1       3.237   6.589  18.309  0.00  0.00    +0.000 NA
ATOM     18  C   UNL     1       3.047   5.395  19.024  0.00  0.00    +0.000 A 
ATOM     19  C   UNL     1       1.803   5.149  19.607  0.00  0.00    +0.000 A 
ATOM     20  C   UNL     1       1.563   3.951  20.286  0.00  0.00    +0.000 A 
ATOM     21  C   UNL     1       2.573   2.994  20.400  0.00  0.00    +0.000 A 
ATOM     22  C   UNL     1       3.829   3.237  19.844  0.00  0.00    +0.000 A 
ATOM     23  C   UNL     1       4.054   4.434  19.157  0.00  0.00    +0.000 A 
ATOM     24  C   UNL     1       5.354   4.721  18.525  0.00  0.00    +0.000 A 
ATOM     25  O   UNL     1       6.356   4.034  18.729  0.00  0.00    +0.000 OA
ENDBRANCH  14  15
ENDBRANCH   2  14
TORSDOF 4
ENDMDL
MODEL 9
REMARK VINA RESULT:      -7.6      4.374      6.950
REMARK  Name = 
REMARK  4 active torsions:
REMARK  status: ('A' for Active; 'I' for Inactive)
REMARK    1  A    between atoms: C_2  and  C_3
REMARK    2  A    between atoms: C_3  and  N_4
REMARK    3  A    between atoms: N_15  and  C_16
REMARK    4  A    between atoms: C_18  and  C_19
REMARK                            x       y       z     vdW  Elec       q    Type
REMARK                         _______ _______ _______ _____ _____    ______ ____
ROOT
ATOM      1  O   UNL     1       8.194   6.819  18.899  0.00  0.00    +0.000 OA
ATOM      2  C   UNL     1       7.741   7.177  17.822  0.00  0.00    +0.000 C 
ATOM      3  N   UNL     1       7.838   8.555  17.391  0.00  0.00    +0.000 N 
ATOM      4  H   UNL     1       7.452   8.802  16.481  0.00  0.00    +0.000 HD
ENDROOT
BRANCH   3   5
ATOM      5  C   UNL     1       8.452   9.541  18.156  0.00  0.00    +0.000 A 
ATOM      6  C   UNL     1       8.587  10.884  17.883  0.00  0.00    +0.000 A 
ATOM      7  C   UNL     1       9.381  11.395  18.927  0.00  0.00    +0.000 A 
ATOM      8  N   UNL     1       9.671  10.464  19.841  0.00  0.00    +0.000 NA
ATOM      9  N   UNL     1       9.050   9.364  19.379  0.00  0.00    +0.000 N 
ATOM     10  H   UNL     1       9.131   8.515  19.927  0.00  0.00    +0.000 HD
BRANCH   7  11
ATOM     11  C   UNL     1       9.868  12.835  18.972  0.00  0.00    +0.000 C 
ATOM     12  C   UNL     1       9.341  13.832  17.960  0.00  0.00    +0.000 C 
ATOM     13  C   UNL     1       8.876  13.911  19.374  0.00  0.00    +0.000 C 
ENDBRANCH   7  11
ENDBRANCH   3   5
BRANCH   2  14
ATOM     14  C   UNL     1       7.102   6.212  16.844  0.00  0.00    +0.000 C 
BRANCH  14  15
ATOM     15  N   UNL     1       5.766   5.894  17.307  0.00  0.00    +0.000 N 
ATOM     16  C   UNL     1       4.736   6.794  17.161  0.00  0.00    +0.000 A 
ATOM     17  N   UNL     1       3.526   6.588  17.553  0.00  0.00    +0.000 NA
ATOM     18  C   UNL     1       3.227   5.343  18.130  0.00  0.00    +0.000 A 
ATOM     19  C   UNL     1       1.902   5.054  18.462  0.00  0.00    +0.000 A 
ATOM     20  C   UNL     1       1.560   3.808  18.994  0.00  0.00    +0.000 A 
ATOM     21  C   UNL     1       2.546   2.845  19.215  0.00  0.00    +0.000 A 
ATOM     22  C   UNL     1       3.877   3.128  18.912  0.00  0.00    +0.000 A 
ATOM     23  C   UNL     1       4.206   4.374  18.369  0.00  0.00    +0.000 A 
ATOM     24  C   UNL     1       5.594   4.707  18.002  0.00  0.00    +0.000 A 
ATOM     25  O   UNL     1       6.552   4.005  18.330  0.00  0.00    +0.000 OA
ENDBRANCH  14  15
ENDBRANCH   2  14
TORSDOF 4
ENDMDL
