MODEL 1
REMARK VINA RESULT:      -8.0      0.000      0.000
REMARK  Name = 
REMARK  7 active torsions:
REMARK  status: ('A' for Active; 'I' for Inactive)
REMARK    1  A    between atoms: C_2  and  C_3
REMARK    2  A    between atoms: C_3  and  O_4
REMARK    3  A    between atoms: O_4  and  C_5
REMARK    4  A    between atoms: C_5  and  C_6
REMARK    5  A    between atoms: C_18  and  C_19
REMARK    6  A    between atoms: C_19  and  O_20
REMARK    7  A    between atoms: C_19  and  C_21
REMARK                            x       y       z     vdW  Elec       q    Type
REMARK                         _______ _______ _______ _____ _____    ______ ____
ROOT
ATOM      1  O   UNL     1       1.160   7.810  21.375  0.00  0.00    +0.000 OA
ATOM      2  C   UNL     1       1.565   8.032  20.231  0.00  0.00    +0.000 C 
ATOM      3  N   UNL     1       2.355   7.125  19.516  0.00  0.00    +0.000 N 
ATOM      4  C   UNL     1       2.603   5.811  20.100  0.00  0.00    +0.000 C 
ATOM      5  C   UNL     1       1.854   4.710  19.356  0.00  0.00    +0.000 C 
ATOM      6  C   UNL     1       2.314   4.422  17.926  0.00  0.00    +0.000 C 
ATOM      7  N   UNL     1       3.489   5.127  17.451  0.00  0.00    +0.000 N 
ATOM      8  N   UNL     1       4.413   4.440  16.741  0.00  0.00    +0.000 NA
ATOM      9  C   UNL     1       5.318   5.367  16.390  0.00  0.00    +0.000 A 
ATOM     10  C   UNL     1       4.980   6.634  16.914  0.00  0.00    +0.000 A 
ATOM     11  C   UNL     1       3.783   6.457  17.577  0.00  0.00    +0.000 A 
ATOM     12  C   UNL     1       2.918   7.478  18.217  0.00  0.00    +0.000 C 
ENDROOT
BRANCH   2  13
ATOM     13  C   UNL     1       1.133   9.323  19.512  0.00  0.00    +0.000 C 
BRANCH  13  14
ATOM     14  O   UNL     1      -0.140   9.812  19.912  0.00  0.00    +0.000 OA
BRANCH  14  15
ATOM     15  C   UNL     1      -0.447  11.070  19.303  0.00  0.00    +0.000 C 
BRANCH  15  16
ATOM     16  C   UNL     1      -1.627  10.889  18.387  0.00  0.00    +0.000 A 
ATOM     17  C   UNL     1      -2.803  11.632  18.589  0.00  0.00    +0.000 A 
ATOM     18  C   UNL     1      -3.892  11.482  17.729  0.00  0.00    +0.000 A 
ATOM     19  C   UNL     1      -3.815  10.595  16.657  0.00  0.00    +0.000 A 
ATOM     20  C   UNL     1      -2.651   9.860  16.447  0.00  0.00    +0.000 A 
ATOM     21  C   UNL     1      -1.562  10.007  17.306  0.00  0.00    +0.000 A 
ENDBRANCH  15  16
ENDBRANCH  14  15
ENDBRANCH  13  14
ENDBRANCH   2  13
BRANCH   9  22
ATOM     22  C   UNL     1       6.558   5.007  15.610  0.00  0.00    +0.000 C 
BRANCH  22  23
ATOM     23  C   UNL     1       6.404   3.926  14.567  0.00  0.00    +0.000 C 
ATOM     24  C   UNL     1       5.377   3.966  13.459  0.00  0.00    +0.000 C 
ATOM     25  C   UNL     1       6.825   4.216  13.144  0.00  0.00    +0.000 C 
ENDBRANCH  22  23
BRANCH  22  26
ATOM     26  O   UNL     1       7.589   4.574  16.505  0.00  0.00    +0.000 OA
ATOM     27  H   UNL     1       8.313   4.307  15.906  0.00  0.00    +0.000 HD
ENDBRANCH  22  26
ENDBRANCH   9  22
TORSDOF 7
ENDMDL
MODEL 2
REMARK VINA RESULT:      -7.7      2.199      8.133
REMARK  Name = 
REMARK  7 active torsions:
REMARK  status: ('A' for Active; 'I' for Inactive)
REMARK    1  A    between atoms: C_2  and  C_3
REMARK    2  A    between atoms: C_3  and  O_4
REMARK    3  A    between atoms: O_4  and  C_5
REMARK    4  A    between atoms: C_5  and  C_6
REMARK    5  A    between atoms: C_18  and  C_19
REMARK    6  A    between atoms: C_19  and  O_20
REMARK    7  A    between atoms: C_19  and  C_21
REMARK                            x       y       z     vdW  Elec       q    Type
REMARK                         _______ _______ _______ _____ _____    ______ ____
ROOT
ATOM      1  O   UNL     1       2.727   2.090  17.595  0.00  0.00    +0.000 OA
ATOM      2  C   UNL     1       3.317   3.174  17.609  0.00  0.00    +0.000 C 
ATOM      3  N   UNL     1       2.728   4.353  18.076  0.00  0.00    +0.000 N 
ATOM      4  C   UNL     1       1.408   4.272  18.692  0.00  0.00    +0.000 C 
ATOM      5  C   UNL     1       1.469   4.501  20.199  0.00  0.00    +0.000 C 
ATOM      6  C   UNL     1       1.857   5.907  20.658  0.00  0.00    +0.000 C 
ATOM      7  N   UNL     1       2.008   6.922  19.634  0.00  0.00    +0.000 N 
ATOM      8  N   UNL     1       1.496   8.153  19.862  0.00  0.00    +0.000 NA
ATOM      9  C   UNL     1       1.859   8.867  18.785  0.00  0.00    +0.000 A 
ATOM     10  C   UNL     1       2.569   8.072  17.860  0.00  0.00    +0.000 A 
ATOM     11  C   UNL     1       2.671   6.825  18.441  0.00  0.00    +0.000 A 
ATOM     12  C   UNL     1       3.415   5.635  17.958  0.00  0.00    +0.000 C 
ENDROOT
BRANCH   2  13
ATOM     13  C   UNL     1       4.789   3.238  17.164  0.00  0.00    +0.000 C 
BRANCH  13  14
ATOM     14  O   UNL     1       5.011   4.023  16.001  0.00  0.00    +0.000 OA
BRANCH  14  15
ATOM     15  C   UNL     1       6.405   4.196  15.727  0.00  0.00    +0.000 C 
BRANCH  15  16
ATOM     16  C   UNL     1       6.988   5.128  16.756  0.00  0.00    +0.000 A 
ATOM     17  C   UNL     1       7.005   6.515  16.530  0.00  0.00    +0.000 A 
ATOM     18  C   UNL     1       7.526   7.382  17.491  0.00  0.00    +0.000 A 
ATOM     19  C   UNL     1       8.029   6.876  18.686  0.00  0.00    +0.000 A 
ATOM     20  C   UNL     1       8.011   5.502  18.920  0.00  0.00    +0.000 A 
ATOM     21  C   UNL     1       7.492   4.632  17.962  0.00  0.00    +0.000 A 
ENDBRANCH  15  16
ENDBRANCH  14  15
ENDBRANCH  13  14
ENDBRANCH   2  13
BRANCH   9  22
ATOM     22  C   UNL     1       1.445  10.309  18.616  0.00  0.00    +0.000 C 
BRANCH  22  23
ATOM     23  C   UNL     1       0.008  10.553  18.222  0.00  0.00    +0.000 C 
ATOM     24  C   UNL     1      -1.167  10.322  19.144  0.00  0.00    +0.000 C 
ATOM     25  C   UNL     1      -0.729  11.725  18.831  0.00  0.00    +0.000 C 
ENDBRANCH  22  23
BRANCH  22  26
ATOM     26  O   UNL     1       2.259  10.936  17.618  0.00  0.00    +0.000 OA
ATOM     27  H   UNL     1       1.672  10.979  16.838  0.00  0.00    +0.000 HD
ENDBRANCH  22  26
ENDBRANCH   9  22
TORSDOF 7
ENDMDL
MODEL 3
REMARK VINA RESULT:      -7.6      1.690      2.513
REMARK  Name = 
REMARK  7 active torsions:
REMARK  status: ('A' for Active; 'I' for Inactive)
REMARK    1  A    between atoms: C_2  and  C_3
REMARK    2  A    between atoms: C_3  and  O_4
REMARK    3  A    between atoms: O_4  and  C_5
REMARK    4  A    between atoms: C_5  and  C_6
REMARK    5  A    between atoms: C_18  and  C_19
REMARK    6  A    between atoms: C_19  and  O_20
REMARK    7  A    between atoms: C_19  and  C_21
REMARK                            x       y       z     vdW  Elec       q    Type
REMARK                         _______ _______ _______ _____ _____    ______ ____
ROOT
ATOM      1  O   UNL     1       1.340   7.913  21.150  0.00  0.00    +0.000 OA
ATOM      2  C   UNL     1       1.723   8.088  19.990  0.00  0.00    +0.000 C 
ATOM      3  N   UNL     1       2.514   7.161  19.303  0.00  0.00    +0.000 N 
ATOM      4  C   UNL     1       2.791   5.878  19.941  0.00  0.00    +0.000 C 
ATOM      5  C   UNL     1       2.046   4.734  19.260  0.00  0.00    +0.000 C 
ATOM      6  C   UNL     1       2.486   4.389  17.837  0.00  0.00    +0.000 C 
ATOM      7  N   UNL     1       3.643   5.088  17.311  0.00  0.00    +0.000 N 
ATOM      8  N   UNL     1       4.565   4.382  16.616  0.00  0.00    +0.000 NA
ATOM      9  C   UNL     1       5.450   5.306  16.209  0.00  0.00    +0.000 A 
ATOM     10  C   UNL     1       5.103   6.589  16.681  0.00  0.00    +0.000 A 
ATOM     11  C   UNL     1       3.920   6.426  17.372  0.00  0.00    +0.000 A 
ATOM     12  C   UNL     1       3.050   7.463  17.980  0.00  0.00    +0.000 C 
ENDROOT
BRANCH   2  13
ATOM     13  C   UNL     1       1.260   9.339  19.222  0.00  0.00    +0.000 C 
BRANCH  13  14
ATOM     14  O   UNL     1      -0.068   9.746  19.520  0.00  0.00    +0.000 OA
BRANCH  14  15
ATOM     15  C   UNL     1      -0.178  11.166  19.657  0.00  0.00    +0.000 C 
BRANCH  15  16
ATOM     16  C   UNL     1      -1.012  11.472  20.872  0.00  0.00    +0.000 A 
ATOM     17  C   UNL     1      -0.714  10.872  22.107  0.00  0.00    +0.000 A 
ATOM     18  C   UNL     1      -1.473  11.170  23.240  0.00  0.00    +0.000 A 
ATOM     19  C   UNL     1      -2.530  12.072  23.152  0.00  0.00    +0.000 A 
ATOM     20  C   UNL     1      -2.828  12.675  21.932  0.00  0.00    +0.000 A 
ATOM     21  C   UNL     1      -2.072  12.379  20.798  0.00  0.00    +0.000 A 
ENDBRANCH  15  16
ENDBRANCH  14  15
ENDBRANCH  13  14
ENDBRANCH   2  13
BRANCH   9  22
ATOM     22  C   UNL     1       6.682   4.928  15.425  0.00  0.00    +0.000 C 
BRANCH  22  23
ATOM     23  C   UNL     1       6.504   3.864  14.368  0.00  0.00    +0.000 C 
ATOM     24  C   UNL     1       5.437   3.909  13.299  0.00  0.00    +0.000 C 
ATOM     25  C   UNL     1       6.868   4.187  12.935  0.00  0.00    +0.000 C 
ENDBRANCH  22  23
BRANCH  22  26
ATOM     26  O   UNL     1       7.703   4.460  16.314  0.00  0.00    +0.000 OA
ATOM     27  H   UNL     1       8.364   5.180  16.301  0.00  0.00    +0.000 HD
ENDBRANCH  22  26
ENDBRANCH   9  22
TORSDOF 7
ENDMDL
MODEL 4
REMARK VINA RESULT:      -7.6      2.404      3.346
REMARK  Name = 
REMARK  7 active torsions:
REMARK  status: ('A' for Active; 'I' for Inactive)
REMARK    1  A    between atoms: C_2  and  C_3
REMARK    2  A    between atoms: C_3  and  O_4
REMARK    3  A    between atoms: O_4  and  C_5
REMARK    4  A    between atoms: C_5  and  C_6
REMARK    5  A    between atoms: C_18  and  C_19
REMARK    6  A    between atoms: C_19  and  O_20
REMARK    7  A    between atoms: C_19  and  C_21
REMARK                            x       y       z     vdW  Elec       q    Type
REMARK                         _______ _______ _______ _____ _____    ______ ____
ROOT
ATOM      1  O   UNL     1       2.343   4.138  21.861  0.00  0.00    +0.000 OA
ATOM      2  C   UNL     1       2.296   4.749  20.791  0.00  0.00    +0.000 C 
ATOM      3  N   UNL     1       3.083   4.406  19.686  0.00  0.00    +0.000 N 
ATOM      4  C   UNL     1       3.897   3.198  19.763  0.00  0.00    +0.000 C 
ATOM      5  C   UNL     1       3.351   2.088  18.870  0.00  0.00    +0.000 C 
ATOM      6  C   UNL     1       3.430   2.329  17.362  0.00  0.00    +0.000 C 
ATOM      7  N   UNL     1       4.123   3.522  16.914  0.00  0.00    +0.000 N 
ATOM      8  N   UNL     1       4.961   3.426  15.857  0.00  0.00    +0.000 NA
ATOM      9  C   UNL     1       5.376   4.686  15.649  0.00  0.00    +0.000 A 
ATOM     10  C   UNL     1       4.826   5.569  16.602  0.00  0.00    +0.000 A 
ATOM     11  C   UNL     1       4.003   4.797  17.396  0.00  0.00    +0.000 A 
ATOM     12  C   UNL     1       3.090   5.231  18.482  0.00  0.00    +0.000 C 
ENDROOT
BRANCH   2  13
ATOM     13  C   UNL     1       1.283   5.895  20.617  0.00  0.00    +0.000 C 
BRANCH  13  14
ATOM     14  O   UNL     1       1.729   7.146  21.122  0.00  0.00    +0.000 OA
BRANCH  14  15
ATOM     15  C   UNL     1       1.364   8.232  20.265  0.00  0.00    +0.000 C 
BRANCH  15  16
ATOM     16  C   UNL     1       0.531   9.209  21.051  0.00  0.00    +0.000 A 
ATOM     17  C   UNL     1       0.428   9.092  22.448  0.00  0.00    +0.000 A 
ATOM     18  C   UNL     1      -0.327  10.009  23.181  0.00  0.00    +0.000 A 
ATOM     19  C   UNL     1      -0.980  11.052  22.530  0.00  0.00    +0.000 A 
ATOM     20  C   UNL     1      -0.878  11.178  21.146  0.00  0.00    +0.000 A 
ATOM     21  C   UNL     1      -0.126  10.263  20.410  0.00  0.00    +0.000 A 
ENDBRANCH  15  16
ENDBRANCH  14  15
ENDBRANCH  13  14
ENDBRANCH   2  13
BRANCH   9  22
ATOM     22  C   UNL     1       6.374   5.020  14.568  0.00  0.00    +0.000 C 
BRANCH  22  23
ATOM     23  C   UNL     1       6.708   3.913  13.597  0.00  0.00    +0.000 C 
ATOM     24  C   UNL     1       5.800   3.484  12.468  0.00  0.00    +0.000 C 
ATOM     25  C   UNL     1       7.043   4.272  12.166  0.00  0.00    +0.000 C 
ENDBRANCH  22  23
BRANCH  22  26
ATOM     26  O   UNL     1       7.611   5.438  15.158  0.00  0.00    +0.000 OA
ATOM     27  H   UNL     1       7.586   5.036  16.049  0.00  0.00    +0.000 HD
ENDBRANCH  22  26
ENDBRANCH   9  22
TORSDOF 7
ENDMDL
MODEL 5
REMARK VINA RESULT:      -7.5      1.298      1.767
REMARK  Name = 
REMARK  7 active torsions:
REMARK  status: ('A' for Active; 'I' for Inactive)
REMARK    1  A    between atoms: C_2  and  C_3
REMARK    2  A    between atoms: C_3  and  O_4
REMARK    3  A    between atoms: O_4  and  C_5
REMARK    4  A    between atoms: C_5  and  C_6
REMARK    5  A    between atoms: C_18  and  C_19
REMARK    6  A    between atoms: C_19  and  O_20
REMARK    7  A    between atoms: C_19  and  C_21
REMARK                            x       y       z     vdW  Elec       q    Type
REMARK                         _______ _______ _______ _____ _____    ______ ____
ROOT
ATOM      1  O   UNL     1       0.810   8.512  21.876  0.00  0.00    +0.000 OA
ATOM      2  C   UNL     1       1.116   8.604  20.684  0.00  0.00    +0.000 C 
ATOM      3  N   UNL     1       1.888   7.643  20.022  0.00  0.00    +0.000 N 
ATOM      4  C   UNL     1       2.236   6.420  20.738  0.00  0.00    +0.000 C 
ATOM      5  C   UNL     1       1.481   5.211  20.195  0.00  0.00    +0.000 C 
ATOM      6  C   UNL     1       1.841   4.765  18.777  0.00  0.00    +0.000 C 
ATOM      7  N   UNL     1       2.945   5.444  18.127  0.00  0.00    +0.000 N 
ATOM      8  N   UNL     1       3.841   4.706  17.433  0.00  0.00    +0.000 NA
ATOM      9  C   UNL     1       4.676   5.613  16.901  0.00  0.00    +0.000 A 
ATOM     10  C   UNL     1       4.325   6.922  17.294  0.00  0.00    +0.000 A 
ATOM     11  C   UNL     1       3.191   6.789  18.069  0.00  0.00    +0.000 A 
ATOM     12  C   UNL     1       2.334   7.852  18.649  0.00  0.00    +0.000 C 
ENDROOT
BRANCH   2  13
ATOM     13  C   UNL     1       0.576   9.781  19.854  0.00  0.00    +0.000 C 
BRANCH  13  14
ATOM     14  O   UNL     1      -0.842   9.845  19.789  0.00  0.00    +0.000 OA
BRANCH  14  15
ATOM     15  C   UNL     1      -1.303  11.121  19.334  0.00  0.00    +0.000 C 
BRANCH  15  16
ATOM     16  C   UNL     1      -2.210  10.914  18.151  0.00  0.00    +0.000 A 
ATOM     17  C   UNL     1      -3.446  11.579  18.079  0.00  0.00    +0.000 A 
ATOM     18  C   UNL     1      -4.280  11.405  16.974  0.00  0.00    +0.000 A 
ATOM     19  C   UNL     1      -3.887  10.572  15.929  0.00  0.00    +0.000 A 
ATOM     20  C   UNL     1      -2.661   9.912  15.991  0.00  0.00    +0.000 A 
ATOM     21  C   UNL     1      -1.826  10.084  17.095  0.00  0.00    +0.000 A 
ENDBRANCH  15  16
ENDBRANCH  14  15
ENDBRANCH  13  14
ENDBRANCH   2  13
BRANCH   9  22
ATOM     22  C   UNL     1       5.867   5.201  16.072  0.00  0.00    +0.000 C 
BRANCH  22  23
ATOM     23  C   UNL     1       7.227   5.464  16.674  0.00  0.00    +0.000 C 
ATOM     24  C   UNL     1       7.447   5.848  18.118  0.00  0.00    +0.000 C 
ATOM     25  C   UNL     1       7.800   4.464  17.653  0.00  0.00    +0.000 C 
ENDBRANCH  22  23
BRANCH  22  26
ATOM     26  O   UNL     1       5.838   5.873  14.807  0.00  0.00    +0.000 OA
ATOM     27  H   UNL     1       5.512   6.767  15.031  0.00  0.00    +0.000 HD
ENDBRANCH  22  26
ENDBRANCH   9  22
TORSDOF 7
ENDMDL
MODEL 6
REMARK VINA RESULT:      -7.5      2.916      8.529
REMARK  Name = 
REMARK  7 active torsions:
REMARK  status: ('A' for Active; 'I' for Inactive)
REMARK    1  A    between atoms: C_2  and  C_3
REMARK    2  A    between atoms: C_3  and  O_4
REMARK    3  A    between atoms: O_4  and  C_5
REMARK    4  A    between atoms: C_5  and  C_6
REMARK    5  A    between atoms: C_18  and  C_19
REMARK    6  A    between atoms: C_19  and  O_20
REMARK    7  A    between atoms: C_19  and  C_21
REMARK                            x       y       z     vdW  Elec       q    Type
REMARK                         _______ _______ _______ _____ _____    ______ ____
ROOT
ATOM      1  O   UNL     1       2.793   2.193  17.007  0.00  0.00    +0.000 OA
ATOM      2  C   UNL     1       3.319   3.228  17.423  0.00  0.00    +0.000 C 
ATOM      3  N   UNL     1       2.651   4.144  18.242  0.00  0.00    +0.000 N 
ATOM      4  C   UNL     1       1.320   3.797  18.729  0.00  0.00    +0.000 C 
ATOM      5  C   UNL     1       1.326   3.488  20.223  0.00  0.00    +0.000 C 
ATOM      6  C   UNL     1       1.619   4.662  21.159  0.00  0.00    +0.000 C 
ATOM      7  N   UNL     1       1.742   5.976  20.557  0.00  0.00    +0.000 N 
ATOM      8  N   UNL     1       1.153   7.027  21.174  0.00  0.00    +0.000 NA
ATOM      9  C   UNL     1       1.505   8.087  20.428  0.00  0.00    +0.000 A 
ATOM     10  C   UNL     1       2.285   7.695  19.319  0.00  0.00    +0.000 A 
ATOM     11  C   UNL     1       2.442   6.329  19.436  0.00  0.00    +0.000 A 
ATOM     12  C   UNL     1       3.266   5.416  18.607  0.00  0.00    +0.000 C 
ENDROOT
BRANCH   2  13
ATOM     13  C   UNL     1       4.797   3.508  17.097  0.00  0.00    +0.000 C 
BRANCH  13  14
ATOM     14  O   UNL     1       5.010   4.091  15.819  0.00  0.00    +0.000 OA
BRANCH  14  15
ATOM     15  C   UNL     1       6.397   4.332  15.563  0.00  0.00    +0.000 C 
BRANCH  15  16
ATOM     16  C   UNL     1       6.944   5.216  16.652  0.00  0.00    +0.000 A 
ATOM     17  C   UNL     1       7.573   4.653  17.775  0.00  0.00    +0.000 A 
ATOM     18  C   UNL     1       8.099   5.471  18.776  0.00  0.00    +0.000 A 
ATOM     19  C   UNL     1       8.008   6.856  18.663  0.00  0.00    +0.000 A 
ATOM     20  C   UNL     1       7.390   7.422  17.549  0.00  0.00    +0.000 A 
ATOM     21  C   UNL     1       6.863   6.607  16.548  0.00  0.00    +0.000 A 
ENDBRANCH  15  16
ENDBRANCH  14  15
ENDBRANCH  13  14
ENDBRANCH   2  13
BRANCH   9  22
ATOM     22  C   UNL     1       1.015   9.477  20.750  0.00  0.00    +0.000 C 
BRANCH  22  23
ATOM     23  C   UNL     1      -0.209   9.570  21.629  0.00  0.00    +0.000 C 
ATOM     24  C   UNL     1      -0.165   9.537  23.139  0.00  0.00    +0.000 C 
ATOM     25  C   UNL     1      -0.442  10.833  22.429  0.00  0.00    +0.000 C 
ENDBRANCH  22  23
BRANCH  22  26
ATOM     26  O   UNL     1       0.709  10.179  19.539  0.00  0.00    +0.000 OA
ATOM     27  H   UNL     1       1.428  10.837  19.469  0.00  0.00    +0.000 HD
ENDBRANCH  22  26
ENDBRANCH   9  22
TORSDOF 7
ENDMDL
MODEL 7
REMARK VINA RESULT:      -7.4      1.112      1.648
REMARK  Name = 
REMARK  7 active torsions:
REMARK  status: ('A' for Active; 'I' for Inactive)
REMARK    1  A    between atoms: C_2  and  C_3
REMARK    2  A    between atoms: C_3  and  O_4
REMARK    3  A    between atoms: O_4  and  C_5
REMARK    4  A    between atoms: C_5  and  C_6
REMARK    5  A    between atoms: C_18  and  C_19
REMARK    6  A    between atoms: C_19  and  O_20
REMARK    7  A    between atoms: C_19  and  C_21
REMARK                            x       y       z     vdW  Elec       q    Type
REMARK                         _______ _______ _______ _____ _____    ______ ____
ROOT
ATOM      1  O   UNL     1       0.565   9.401  20.819  0.00  0.00    +0.000 OA
ATOM      2  C   UNL     1       1.014   9.156  19.697  0.00  0.00    +0.000 C 
ATOM      3  N   UNL     1       1.902   8.105  19.447  0.00  0.00    +0.000 N 
ATOM      4  C   UNL     1       2.209   7.183  20.536  0.00  0.00    +0.000 C 
ATOM      5  C   UNL     1       1.579   5.812  20.312  0.00  0.00    +0.000 C 
ATOM      6  C   UNL     1       2.134   4.991  19.146  0.00  0.00    +0.000 C 
ATOM      7  N   UNL     1       3.281   5.530  18.440  0.00  0.00    +0.000 N 
ATOM      8  N   UNL     1       4.287   4.690  18.105  0.00  0.00    +0.000 NA
ATOM      9  C   UNL     1       5.142   5.459  17.413  0.00  0.00    +0.000 A 
ATOM     10  C   UNL     1       4.690   6.794  17.346  0.00  0.00    +0.000 A 
ATOM     11  C   UNL     1       3.475   6.810  17.999  0.00  0.00    +0.000 A 
ATOM     12  C   UNL     1       2.508   7.928  18.131  0.00  0.00    +0.000 C 
ENDROOT
BRANCH   2  13
ATOM     13  C   UNL     1       0.533   9.985  18.493  0.00  0.00    +0.000 C 
BRANCH  13  14
ATOM     14  O   UNL     1      -0.881  10.067  18.371  0.00  0.00    +0.000 OA
BRANCH  14  15
ATOM     15  C   UNL     1      -1.383  11.340  18.790  0.00  0.00    +0.000 C 
BRANCH  15  16
ATOM     16  C   UNL     1      -2.785  11.504  18.264  0.00  0.00    +0.000 A 
ATOM     17  C   UNL     1      -3.097  11.129  16.946  0.00  0.00    +0.000 A 
ATOM     18  C   UNL     1      -4.399  11.260  16.463  0.00  0.00    +0.000 A 
ATOM     19  C   UNL     1      -5.402  11.760  17.290  0.00  0.00    +0.000 A 
ATOM     20  C   UNL     1      -5.101  12.129  18.599  0.00  0.00    +0.000 A 
ATOM     21  C   UNL     1      -3.800  12.000  19.085  0.00  0.00    +0.000 A 
ENDBRANCH  15  16
ENDBRANCH  14  15
ENDBRANCH  13  14
ENDBRANCH   2  13
BRANCH   9  22
ATOM     22  C   UNL     1       6.444   4.912  16.882  0.00  0.00    +0.000 C 
BRANCH  22  23
ATOM     23  C   UNL     1       6.355   4.051  15.644  0.00  0.00    +0.000 C 
ATOM     24  C   UNL     1       5.461   4.360  14.467  0.00  0.00    +0.000 C 
ATOM     25  C   UNL     1       6.945   4.566  14.350  0.00  0.00    +0.000 C 
ENDBRANCH  22  23
BRANCH  22  26
ATOM     26  O   UNL     1       7.090   4.124  17.889  0.00  0.00    +0.000 OA
ATOM     27  H   UNL     1       7.002   3.210  17.554  0.00  0.00    +0.000 HD
ENDBRANCH  22  26
ENDBRANCH   9  22
TORSDOF 7
ENDMDL
MODEL 8
REMARK VINA RESULT:      -7.3      1.769      2.396
REMARK  Name = 
REMARK  7 active torsions:
REMARK  status: ('A' for Active; 'I' for Inactive)
REMARK    1  A    between atoms: C_2  and  C_3
REMARK    2  A    between atoms: C_3  and  O_4
REMARK    3  A    between atoms: O_4  and  C_5
REMARK    4  A    between atoms: C_5  and  C_6
REMARK    5  A    between atoms: C_18  and  C_19
REMARK    6  A    between atoms: C_19  and  O_20
REMARK    7  A    between atoms: C_19  and  C_21
REMARK                            x       y       z     vdW  Elec       q    Type
REMARK                         _______ _______ _______ _____ _____    ______ ____
ROOT
ATOM      1  O   UNL     1       1.047   8.393  20.749  0.00  0.00    +0.000 OA
ATOM      2  C   UNL     1       1.554   8.460  19.626  0.00  0.00    +0.000 C 
ATOM      3  N   UNL     1       2.414   7.479  19.122  0.00  0.00    +0.000 N 
ATOM      4  C   UNL     1       2.617   6.265  19.906  0.00  0.00    +0.000 C 
ATOM      5  C   UNL     1       1.949   5.055  19.260  0.00  0.00    +0.000 C 
ATOM      6  C   UNL     1       2.541   4.579  17.933  0.00  0.00    +0.000 C 
ATOM      7  N   UNL     1       3.749   5.235  17.471  0.00  0.00    +0.000 N 
ATOM      8  N   UNL     1       4.740   4.474  16.952  0.00  0.00    +0.000 NA
ATOM      9  C   UNL     1       5.666   5.362  16.557  0.00  0.00    +0.000 A 
ATOM     10  C   UNL     1       5.272   6.682  16.864  0.00  0.00    +0.000 A 
ATOM     11  C   UNL     1       4.021   6.575  17.434  0.00  0.00    +0.000 A 
ATOM     12  C   UNL     1       3.092   7.658  17.842  0.00  0.00    +0.000 C 
ENDROOT
BRANCH   2  13
ATOM     13  C   UNL     1       1.181   9.628  18.697  0.00  0.00    +0.000 C 
BRANCH  13  14
ATOM     14  O   UNL     1      -0.042  10.270  19.032  0.00  0.00    +0.000 OA
BRANCH  14  15
ATOM     15  C   UNL     1       0.169  11.575  19.580  0.00  0.00    +0.000 C 
BRANCH  15  16
ATOM     16  C   UNL     1      -0.794  11.783  20.719  0.00  0.00    +0.000 A 
ATOM     17  C   UNL     1      -1.969  12.530  20.528  0.00  0.00    +0.000 A 
ATOM     18  C   UNL     1      -2.873  12.707  21.575  0.00  0.00    +0.000 A 
ATOM     19  C   UNL     1      -2.617  12.137  22.820  0.00  0.00    +0.000 A 
ATOM     20  C   UNL     1      -1.457  11.391  23.016  0.00  0.00    +0.000 A 
ATOM     21  C   UNL     1      -0.551  11.213  21.971  0.00  0.00    +0.000 A 
ENDBRANCH  15  16
ENDBRANCH  14  15
ENDBRANCH  13  14
ENDBRANCH   2  13
BRANCH   9  22
ATOM     22  C   UNL     1       6.976   4.921  15.951  0.00  0.00    +0.000 C 
BRANCH  22  23
ATOM     23  C   UNL     1       6.888   4.089  14.694  0.00  0.00    +0.000 C 
ATOM     24  C   UNL     1       5.721   4.135  13.736  0.00  0.00    +0.000 C 
ATOM     25  C   UNL     1       7.026   4.773  13.352  0.00  0.00    +0.000 C 
ENDBRANCH  22  23
BRANCH  22  26
ATOM     26  O   UNL     1       7.721   4.153  16.904  0.00  0.00    +0.000 OA
ATOM     27  H   UNL     1       8.542   4.671  17.022  0.00  0.00    +0.000 HD
ENDBRANCH  22  26
ENDBRANCH   9  22
TORSDOF 7
ENDMDL
MODEL 9
REMARK VINA RESULT:      -7.2      1.798      8.682
REMARK  Name = 
REMARK  7 active torsions:
REMARK  status: ('A' for Active; 'I' for Inactive)
REMARK    1  A    between atoms: C_2  and  C_3
REMARK    2  A    between atoms: C_3  and  O_4
REMARK    3  A    between atoms: O_4  and  C_5
REMARK    4  A    between atoms: C_5  and  C_6
REMARK    5  A    between atoms: C_18  and  C_19
REMARK    6  A    between atoms: C_19  and  O_20
REMARK    7  A    between atoms: C_19  and  C_21
REMARK                            x       y       z     vdW  Elec       q    Type
REMARK                         _______ _______ _______ _____ _____    ______ ____
ROOT
ATOM      1  O   UNL     1       4.325   4.473  17.844  0.00  0.00    +0.000 OA
ATOM      2  C   UNL     1       4.326   5.706  17.811  0.00  0.00    +0.000 C 
ATOM      3  N   UNL     1       3.233   6.477  18.222  0.00  0.00    +0.000 N 
ATOM      4  C   UNL     1       2.097   5.798  18.836  0.00  0.00    +0.000 C 
ATOM      5  C   UNL     1       2.004   6.086  20.331  0.00  0.00    +0.000 C 
ATOM      6  C   UNL     1       1.661   7.523  20.726  0.00  0.00    +0.000 C 
ATOM      7  N   UNL     1       1.334   8.447  19.657  0.00  0.00    +0.000 N 
ATOM      8  N   UNL     1       0.290   9.290  19.827  0.00  0.00    +0.000 NA
ATOM      9  C   UNL     1       0.295  10.049  18.719  0.00  0.00    +0.000 A 
ATOM     10  C   UNL     1       1.321   9.655  17.834  0.00  0.00    +0.000 A 
ATOM     11  C   UNL     1       1.993   8.632  18.472  0.00  0.00    +0.000 A 
ATOM     12  C   UNL     1       3.226   7.926  18.047  0.00  0.00    +0.000 C 
ENDROOT
BRANCH   2  13
ATOM     13  C   UNL     1       5.598   6.450  17.369  0.00  0.00    +0.000 C 
BRANCH  13  14
ATOM     14  O   UNL     1       5.850   6.393  15.972  0.00  0.00    +0.000 OA
BRANCH  14  15
ATOM     15  C   UNL     1       6.952   5.537  15.659  0.00  0.00    +0.000 C 
BRANCH  15  16
ATOM     16  C   UNL     1       6.666   4.835  14.357  0.00  0.00    +0.000 A 
ATOM     17  C   UNL     1       7.556   4.954  13.276  0.00  0.00    +0.000 A 
ATOM     18  C   UNL     1       7.304   4.288  12.076  0.00  0.00    +0.000 A 
ATOM     19  C   UNL     1       6.167   3.495  11.945  0.00  0.00    +0.000 A 
ATOM     20  C   UNL     1       5.282   3.369  13.015  0.00  0.00    +0.000 A 
ATOM     21  C   UNL     1       5.531   4.034  14.215  0.00  0.00    +0.000 A 
ENDBRANCH  15  16
ENDBRANCH  14  15
ENDBRANCH  13  14
ENDBRANCH   2  13
BRANCH   9  22
ATOM     22  C   UNL     1      -0.752  11.109  18.483  0.00  0.00    +0.000 C 
BRANCH  22  23
ATOM     23  C   UNL     1      -1.819  10.783  17.465  0.00  0.00    +0.000 C 
ATOM     24  C   UNL     1      -2.931   9.786  17.701  0.00  0.00    +0.000 C 
ATOM     25  C   UNL     1      -3.234  11.258  17.709  0.00  0.00    +0.000 C 
ENDBRANCH  22  23
BRANCH  22  26
ATOM     26  O   UNL     1      -0.128  12.324  18.053  0.00  0.00    +0.000 OA
ATOM     27  H   UNL     1      -0.376  12.966  18.747  0.00  0.00    +0.000 HD
ENDBRANCH  22  26
ENDBRANCH   9  22
TORSDOF 7
ENDMDL
