MODEL 1
REMARK VINA RESULT:      -8.1      0.000      0.000
REMARK  Name = 
REMARK  5 active torsions:
REMARK  status: ('A' for Active; 'I' for Inactive)
REMARK    1  A    between atoms: C_1  and  C_2
REMARK    2  A    between atoms: C_7  and  C_8
REMARK    3  A    between atoms: N_12  and  C_13
REMARK    4  A    between atoms: C_13  and  C_14
REMARK    5  A    between atoms: C_22  and  C_23
REMARK                            x       y       z     vdW  Elec       q    Type
REMARK                         _______ _______ _______ _____ _____    ______ ____
ROOT
ATOM      1  C   UNL     1       7.695   7.613  16.957  0.00  0.00    +0.000 C 
ATOM      2  C   UNL     1       7.419   6.567  17.971  0.00  0.00    +0.000 A 
ATOM      3  N   UNL     1       8.089   6.565  19.131  0.00  0.00    +0.000 NA
ATOM      4  O   UNL     1       7.562   5.514  19.866  0.00  0.00    +0.000 OA
ATOM      5  C   UNL     1       6.583   4.894  19.151  0.00  0.00    +0.000 A 
ATOM      6  N   UNL     1       5.817   3.899  19.636  0.00  0.00    +0.000 NA
ATOM      7  C   UNL     1       4.868   3.463  18.778  0.00  0.00    +0.000 A 
ATOM      8  C   UNL     1       4.763   3.921  17.459  0.00  0.00    +0.000 A 
ATOM      9  C   UNL     1       5.518   5.016  17.009  0.00  0.00    +0.000 A 
ATOM     10  C   UNL     1       6.475   5.510  17.910  0.00  0.00    +0.000 A 
ENDROOT
BRANCH   7  11
ATOM     11  C   UNL     1       3.728   2.666  19.416  0.00  0.00    +0.000 C 
ATOM     12  C   UNL     1       2.722   2.010  18.459  0.00  0.00    +0.000 C 
ATOM     13  C   UNL     1       1.621   2.957  17.984  0.00  0.00    +0.000 C 
ATOM     14  C   UNL     1       1.043   3.825  19.108  0.00  0.00    +0.000 C 
ATOM     15  N   UNL     1       2.111   4.522  19.838  0.00  0.00    +0.000 NA
ATOM     16  C   UNL     1       3.005   3.535  20.475  0.00  0.00    +0.000 C 
BRANCH  15  17
ATOM     17  C   UNL     1       1.641   5.527  20.801  0.00  0.00    +0.000 C 
BRANCH  17  18
ATOM     18  C   UNL     1       1.667   6.928  20.239  0.00  0.00    +0.000 A 
ATOM     19  C   UNL     1       2.200   7.218  18.977  0.00  0.00    +0.000 A 
ATOM     20  C   UNL     1       2.111   8.515  18.472  0.00  0.00    +0.000 A 
ATOM     21  C   UNL     1       1.494   9.480  19.247  0.00  0.00    +0.000 A 
ATOM     22  N   UNL     1       0.988   9.245  20.478  0.00  0.00    +0.000 NA
ATOM     23  C   UNL     1       1.097   7.980  20.941  0.00  0.00    +0.000 A 
ENDBRANCH  17  18
ENDBRANCH  15  17
ENDBRANCH   7  11
BRANCH   9  24
ATOM     24  C   UNL     1       5.185   5.664  15.699  0.00  0.00    +0.000 C 
ATOM     25  F   UNL     1       4.828   6.971  15.856  0.00  0.00    +0.000 F 
ATOM     26  F   UNL     1       6.230   5.665  14.829  0.00  0.00    +0.000 F 
ENDBRANCH   9  24
TORSDOF 4
ENDMDL
MODEL 2
REMARK VINA RESULT:      -8.1      3.254      6.010
REMARK  Name = 
REMARK  5 active torsions:
REMARK  status: ('A' for Active; 'I' for Inactive)
REMARK    1  A    between atoms: C_1  and  C_2
REMARK    2  A    between atoms: C_7  and  C_8
REMARK    3  A    between atoms: N_12  and  C_13
REMARK    4  A    between atoms: C_13  and  C_14
REMARK    5  A    between atoms: C_22  and  C_23
REMARK                            x       y       z     vdW  Elec       q    Type
REMARK                         _______ _______ _______ _____ _____    ______ ____
ROOT
ATOM      1  C   UNL     1      -0.108  10.299  20.244  0.00  0.00    +0.000 C 
ATOM      2  C   UNL     1       0.821   9.872  19.170  0.00  0.00    +0.000 A 
ATOM      3  N   UNL     1       1.003  10.650  18.094  0.00  0.00    +0.000 NA
ATOM      4  O   UNL     1       1.960  10.005  17.324  0.00  0.00    +0.000 OA
ATOM      5  C   UNL     1       2.348   8.853  17.936  0.00  0.00    +0.000 A 
ATOM      6  N   UNL     1       3.334   8.058  17.481  0.00  0.00    +0.000 NA
ATOM      7  C   UNL     1       3.595   6.993  18.271  0.00  0.00    +0.000 A 
ATOM      8  C   UNL     1       2.831   6.675  19.401  0.00  0.00    +0.000 A 
ATOM      9  C   UNL     1       1.866   7.566  19.898  0.00  0.00    +0.000 A 
ATOM     10  C   UNL     1       1.620   8.702  19.110  0.00  0.00    +0.000 A 
ENDROOT
BRANCH   7  11
ATOM     11  C   UNL     1       4.952   6.325  18.039  0.00  0.00    +0.000 C 
ATOM     12  C   UNL     1       5.509   6.369  16.608  0.00  0.00    +0.000 C 
ATOM     13  C   UNL     1       4.959   5.268  15.703  0.00  0.00    +0.000 C 
ATOM     14  C   UNL     1       4.905   3.896  16.383  0.00  0.00    +0.000 C 
ATOM     15  N   UNL     1       4.200   3.973  17.670  0.00  0.00    +0.000 NA
ATOM     16  C   UNL     1       4.929   4.876  18.583  0.00  0.00    +0.000 C 
BRANCH  15  17
ATOM     17  C   UNL     1       3.927   2.673  18.299  0.00  0.00    +0.000 C 
BRANCH  17  18
ATOM     18  C   UNL     1       3.016   2.787  19.496  0.00  0.00    +0.000 A 
ATOM     19  C   UNL     1       1.672   3.164  19.381  0.00  0.00    +0.000 A 
ATOM     20  C   UNL     1       0.855   3.162  20.512  0.00  0.00    +0.000 A 
ATOM     21  C   UNL     1       1.409   2.784  21.721  0.00  0.00    +0.000 A 
ATOM     22  N   UNL     1       2.706   2.435  21.878  0.00  0.00    +0.000 NA
ATOM     23  C   UNL     1       3.472   2.456  20.764  0.00  0.00    +0.000 A 
ENDBRANCH  17  18
ENDBRANCH  15  17
ENDBRANCH   7  11
BRANCH   9  24
ATOM     24  C   UNL     1       1.270   7.339  21.255  0.00  0.00    +0.000 C 
ATOM     25  F   UNL     1       1.572   8.351  22.117  0.00  0.00    +0.000 F 
ATOM     26  F   UNL     1      -0.088   7.263  21.230  0.00  0.00    +0.000 F 
ENDBRANCH   9  24
TORSDOF 4
ENDMDL
MODEL 3
REMARK VINA RESULT:      -7.8      3.012      5.911
REMARK  Name = 
REMARK  5 active torsions:
REMARK  status: ('A' for Active; 'I' for Inactive)
REMARK    1  A    between atoms: C_1  and  C_2
REMARK    2  A    between atoms: C_7  and  C_8
REMARK    3  A    between atoms: N_12  and  C_13
REMARK    4  A    between atoms: C_13  and  C_14
REMARK    5  A    between atoms: C_22  and  C_23
REMARK                            x       y       z     vdW  Elec       q    Type
REMARK                         _______ _______ _______ _____ _____    ______ ____
ROOT
ATOM      1  C   UNL     1      -0.013   9.953  20.198  0.00  0.00    +0.000 C 
ATOM      2  C   UNL     1       0.955   9.633  19.122  0.00  0.00    +0.000 A 
ATOM      3  N   UNL     1       1.178  10.515  18.137  0.00  0.00    +0.000 NA
ATOM      4  O   UNL     1       2.162   9.947  17.342  0.00  0.00    +0.000 OA
ATOM      5  C   UNL     1       2.525   8.737  17.848  0.00  0.00    +0.000 A 
ATOM      6  N   UNL     1       3.527   7.987  17.350  0.00  0.00    +0.000 NA
ATOM      7  C   UNL     1       3.757   6.846  18.037  0.00  0.00    +0.000 A 
ATOM      8  C   UNL     1       2.951   6.419  19.100  0.00  0.00    +0.000 A 
ATOM      9  C   UNL     1       1.969   7.259  19.649  0.00  0.00    +0.000 A 
ATOM     10  C   UNL     1       1.754   8.471  18.972  0.00  0.00    +0.000 A 
ENDROOT
BRANCH   7  11
ATOM     11  C   UNL     1       5.121   6.198  17.789  0.00  0.00    +0.000 C 
ATOM     12  C   UNL     1       5.681   6.290  16.361  0.00  0.00    +0.000 C 
ATOM     13  C   UNL     1       5.143   5.212  15.422  0.00  0.00    +0.000 C 
ATOM     14  C   UNL     1       5.100   3.819  16.061  0.00  0.00    +0.000 C 
ATOM     15  N   UNL     1       4.392   3.851  17.348  0.00  0.00    +0.000 NA
ATOM     16  C   UNL     1       5.110   4.733  18.290  0.00  0.00    +0.000 C 
BRANCH  15  17
ATOM     17  C   UNL     1       4.130   2.531  17.937  0.00  0.00    +0.000 C 
BRANCH  17  18
ATOM     18  C   UNL     1       3.105   2.581  19.044  0.00  0.00    +0.000 A 
ATOM     19  C   UNL     1       3.458   2.485  20.396  0.00  0.00    +0.000 A 
ATOM     20  C   UNL     1       2.478   2.632  21.377  0.00  0.00    +0.000 A 
ATOM     21  C   UNL     1       1.176   2.869  20.974  0.00  0.00    +0.000 A 
ATOM     22  N   UNL     1       0.792   2.946  19.681  0.00  0.00    +0.000 NA
ATOM     23  C   UNL     1       1.765   2.792  18.755  0.00  0.00    +0.000 A 
ENDBRANCH  17  18
ENDBRANCH  15  17
ENDBRANCH   7  11
BRANCH   9  24
ATOM     24  C   UNL     1       1.323   6.898  20.953  0.00  0.00    +0.000 C 
ATOM     25  F   UNL     1       1.861   5.766  21.489  0.00  0.00    +0.000 F 
ATOM     26  F   UNL     1       1.467   7.864  21.899  0.00  0.00    +0.000 F 
ENDBRANCH   9  24
TORSDOF 4
ENDMDL
MODEL 4
REMARK VINA RESULT:      -7.8      0.671      1.189
REMARK  Name = 
REMARK  5 active torsions:
REMARK  status: ('A' for Active; 'I' for Inactive)
REMARK    1  A    between atoms: C_1  and  C_2
REMARK    2  A    between atoms: C_7  and  C_8
REMARK    3  A    between atoms: N_12  and  C_13
REMARK    4  A    between atoms: C_13  and  C_14
REMARK    5  A    between atoms: C_22  and  C_23
REMARK                            x       y       z     vdW  Elec       q    Type
REMARK                         _______ _______ _______ _____ _____    ______ ____
ROOT
ATOM      1  C   UNL     1       7.864   8.023  17.318  0.00  0.00    +0.000 C 
ATOM      2  C   UNL     1       7.569   6.846  18.171  0.00  0.00    +0.000 A 
ATOM      3  N   UNL     1       8.211   6.687  19.336  0.00  0.00    +0.000 NA
ATOM      4  O   UNL     1       7.672   5.543  19.906  0.00  0.00    +0.000 OA
ATOM      5  C   UNL     1       6.716   5.024  19.088  0.00  0.00    +0.000 A 
ATOM      6  N   UNL     1       5.945   3.969  19.413  0.00  0.00    +0.000 NA
ATOM      7  C   UNL     1       5.020   3.653  18.478  0.00  0.00    +0.000 A 
ATOM      8  C   UNL     1       4.945   4.288  17.233  0.00  0.00    +0.000 A 
ATOM      9  C   UNL     1       5.704   5.437  16.957  0.00  0.00    +0.000 A 
ATOM     10  C   UNL     1       6.635   5.805  17.942  0.00  0.00    +0.000 A 
ENDROOT
BRANCH   7  11
ATOM     11  C   UNL     1       3.869   2.773  18.972  0.00  0.00    +0.000 C 
ATOM     12  C   UNL     1       2.871   2.280  17.913  0.00  0.00    +0.000 C 
ATOM     13  C   UNL     1       1.780   3.297  17.582  0.00  0.00    +0.000 C 
ATOM     14  C   UNL     1       1.193   3.981  18.821  0.00  0.00    +0.000 C 
ATOM     15  N   UNL     1       2.255   4.549  19.663  0.00  0.00    +0.000 NA
ATOM     16  C   UNL     1       3.138   3.468  20.146  0.00  0.00    +0.000 C 
BRANCH  15  17
ATOM     17  C   UNL     1       1.779   5.393  20.766  0.00  0.00    +0.000 C 
BRANCH  17  18
ATOM     18  C   UNL     1       1.593   6.834  20.358  0.00  0.00    +0.000 A 
ATOM     19  C   UNL     1       1.000   7.780  21.203  0.00  0.00    +0.000 A 
ATOM     20  C   UNL     1       0.939   9.116  20.808  0.00  0.00    +0.000 A 
ATOM     21  C   UNL     1       1.473   9.462  19.579  0.00  0.00    +0.000 A 
ATOM     22  N   UNL     1       2.034   8.576  18.727  0.00  0.00    +0.000 NA
ATOM     23  C   UNL     1       2.069   7.288  19.137  0.00  0.00    +0.000 A 
ENDBRANCH  17  18
ENDBRANCH  15  17
ENDBRANCH   7  11
BRANCH   9  24
ATOM     24  C   UNL     1       5.399   6.258  15.740  0.00  0.00    +0.000 C 
ATOM     25  F   UNL     1       4.999   5.481  14.692  0.00  0.00    +0.000 F 
ATOM     26  F   UNL     1       4.396   7.153  15.944  0.00  0.00    +0.000 F 
ENDBRANCH   9  24
TORSDOF 4
ENDMDL
MODEL 5
REMARK VINA RESULT:      -7.5      2.275      5.577
REMARK  Name = 
REMARK  5 active torsions:
REMARK  status: ('A' for Active; 'I' for Inactive)
REMARK    1  A    between atoms: C_1  and  C_2
REMARK    2  A    between atoms: C_7  and  C_8
REMARK    3  A    between atoms: N_12  and  C_13
REMARK    4  A    between atoms: C_13  and  C_14
REMARK    5  A    between atoms: C_22  and  C_23
REMARK                            x       y       z     vdW  Elec       q    Type
REMARK                         _______ _______ _______ _____ _____    ______ ____
ROOT
ATOM      1  C   UNL     1       1.104  11.221  19.930  0.00  0.00    +0.000 C 
ATOM      2  C   UNL     1       0.985   9.916  20.622  0.00  0.00    +0.000 A 
ATOM      3  N   UNL     1       0.372   9.842  21.811  0.00  0.00    +0.000 NA
ATOM      4  O   UNL     1       0.377   8.497  22.152  0.00  0.00    +0.000 OA
ATOM      5  C   UNL     1       0.988   7.774  21.174  0.00  0.00    +0.000 A 
ATOM      6  N   UNL     1       1.062   6.430  21.172  0.00  0.00    +0.000 NA
ATOM      7  C   UNL     1       1.663   5.911  20.078  0.00  0.00    +0.000 A 
ATOM      8  C   UNL     1       2.262   6.701  19.089  0.00  0.00    +0.000 A 
ATOM      9  C   UNL     1       2.096   8.095  19.075  0.00  0.00    +0.000 A 
ATOM     10  C   UNL     1       1.429   8.642  20.183  0.00  0.00    +0.000 A 
ENDROOT
BRANCH   7  11
ATOM     11  C   UNL     1       1.389   4.427  19.825  0.00  0.00    +0.000 C 
ATOM     12  C   UNL     1       1.417   3.500  21.049  0.00  0.00    +0.000 C 
ATOM     13  C   UNL     1       2.822   3.041  21.438  0.00  0.00    +0.000 C 
ATOM     14  C   UNL     1       3.678   2.626  20.235  0.00  0.00    +0.000 C 
ATOM     15  N   UNL     1       3.691   3.679  19.210  0.00  0.00    +0.000 NA
ATOM     16  C   UNL     1       2.321   3.900  18.706  0.00  0.00    +0.000 C 
BRANCH  15  17
ATOM     17  C   UNL     1       4.641   3.454  18.112  0.00  0.00    +0.000 C 
BRANCH  17  18
ATOM     18  C   UNL     1       5.520   4.653  17.850  0.00  0.00    +0.000 A 
ATOM     19  C   UNL     1       6.469   5.102  18.776  0.00  0.00    +0.000 A 
ATOM     20  C   UNL     1       7.317   6.158  18.439  0.00  0.00    +0.000 A 
ATOM     21  C   UNL     1       7.185   6.730  17.187  0.00  0.00    +0.000 A 
ATOM     22  N   UNL     1       6.268   6.341  16.274  0.00  0.00    +0.000 NA
ATOM     23  C   UNL     1       5.458   5.320  16.635  0.00  0.00    +0.000 A 
ENDBRANCH  17  18
ENDBRANCH  15  17
ENDBRANCH   7  11
BRANCH   9  24
ATOM     24  C   UNL     1       2.498   8.882  17.864  0.00  0.00    +0.000 C 
ATOM     25  F   UNL     1       3.111   8.098  16.931  0.00  0.00    +0.000 F 
ATOM     26  F   UNL     1       1.441   9.457  17.231  0.00  0.00    +0.000 F 
ENDBRANCH   9  24
TORSDOF 4
ENDMDL
MODEL 6
REMARK VINA RESULT:      -7.4      2.306      2.671
REMARK  Name = 
REMARK  5 active torsions:
REMARK  status: ('A' for Active; 'I' for Inactive)
REMARK    1  A    between atoms: C_1  and  C_2
REMARK    2  A    between atoms: C_7  and  C_8
REMARK    3  A    between atoms: N_12  and  C_13
REMARK    4  A    between atoms: C_13  and  C_14
REMARK    5  A    between atoms: C_22  and  C_23
REMARK                            x       y       z     vdW  Elec       q    Type
REMARK                         _______ _______ _______ _____ _____    ______ ____
ROOT
ATOM      1  C   UNL     1       7.749   5.499  14.089  0.00  0.00    +0.000 C 
ATOM      2  C   UNL     1       6.549   4.825  14.639  0.00  0.00    +0.000 A 
ATOM      3  N   UNL     1       5.854   3.968  13.878  0.00  0.00    +0.000 NA
ATOM      4  O   UNL     1       4.847   3.475  14.694  0.00  0.00    +0.000 OA
ATOM      5  C   UNL     1       4.940   4.031  15.933  0.00  0.00    +0.000 A 
ATOM      6  N   UNL     1       4.161   3.678  16.973  0.00  0.00    +0.000 NA
ATOM      7  C   UNL     1       4.459   4.316  18.127  0.00  0.00    +0.000 A 
ATOM      8  C   UNL     1       5.411   5.338  18.211  0.00  0.00    +0.000 A 
ATOM      9  C   UNL     1       6.264   5.626  17.133  0.00  0.00    +0.000 A 
ATOM     10  C   UNL     1       5.996   4.933  15.941  0.00  0.00    +0.000 A 
ENDROOT
BRANCH   7  11
ATOM     11  C   UNL     1       3.916   3.654  19.396  0.00  0.00    +0.000 C 
ATOM     12  C   UNL     1       2.872   2.544  19.206  0.00  0.00    +0.000 C 
ATOM     13  C   UNL     1       1.448   3.068  19.026  0.00  0.00    +0.000 C 
ATOM     14  C   UNL     1       1.090   4.195  20.001  0.00  0.00    +0.000 C 
ATOM     15  N   UNL     1       2.094   5.267  19.959  0.00  0.00    +0.000 NA
ATOM     16  C   UNL     1       3.406   4.736  20.380  0.00  0.00    +0.000 C 
BRANCH  15  17
ATOM     17  C   UNL     1       1.734   6.476  20.712  0.00  0.00    +0.000 C 
BRANCH  17  18
ATOM     18  C   UNL     1       1.755   7.720  19.858  0.00  0.00    +0.000 A 
ATOM     19  C   UNL     1       2.416   7.769  18.624  0.00  0.00    +0.000 A 
ATOM     20  C   UNL     1       2.322   8.917  17.836  0.00  0.00    +0.000 A 
ATOM     21  C   UNL     1       1.573   9.978  18.310  0.00  0.00    +0.000 A 
ATOM     22  N   UNL     1       0.940   9.978  19.504  0.00  0.00    +0.000 NA
ATOM     23  C   UNL     1       1.057   8.854  20.246  0.00  0.00    +0.000 A 
ENDBRANCH  17  18
ENDBRANCH  15  17
ENDBRANCH   7  11
BRANCH   9  24
ATOM     24  C   UNL     1       7.452   6.516  17.339  0.00  0.00    +0.000 C 
ATOM     25  F   UNL     1       7.112   7.836  17.285  0.00  0.00    +0.000 F 
ATOM     26  F   UNL     1       8.046   6.333  18.548  0.00  0.00    +0.000 F 
ENDBRANCH   9  24
TORSDOF 4
ENDMDL
MODEL 7
REMARK VINA RESULT:      -7.3      2.455      5.606
REMARK  Name = 
REMARK  5 active torsions:
REMARK  status: ('A' for Active; 'I' for Inactive)
REMARK    1  A    between atoms: C_1  and  C_2
REMARK    2  A    between atoms: C_7  and  C_8
REMARK    3  A    between atoms: N_12  and  C_13
REMARK    4  A    between atoms: C_13  and  C_14
REMARK    5  A    between atoms: C_22  and  C_23
REMARK                            x       y       z     vdW  Elec       q    Type
REMARK                         _______ _______ _______ _____ _____    ______ ____
ROOT
ATOM      1  C   UNL     1       0.892  11.390  20.267  0.00  0.00    +0.000 C 
ATOM      2  C   UNL     1       1.052  10.034  20.844  0.00  0.00    +0.000 A 
ATOM      3  N   UNL     1       0.798   9.825  22.143  0.00  0.00    +0.000 NA
ATOM      4  O   UNL     1       0.982   8.465  22.346  0.00  0.00    +0.000 OA
ATOM      5  C   UNL     1       1.341   7.866  21.178  0.00  0.00    +0.000 A 
ATOM      6  N   UNL     1       1.495   6.537  21.034  0.00  0.00    +0.000 NA
ATOM      7  C   UNL     1       1.802   6.149  19.775  0.00  0.00    +0.000 A 
ATOM      8  C   UNL     1       2.053   7.054  18.738  0.00  0.00    +0.000 A 
ATOM      9  C   UNL     1       1.802   8.427  18.895  0.00  0.00    +0.000 A 
ATOM     10  C   UNL     1       1.436   8.836  20.188  0.00  0.00    +0.000 A 
ENDROOT
BRANCH   7  11
ATOM     11  C   UNL     1       1.562   4.668  19.473  0.00  0.00    +0.000 C 
ATOM     12  C   UNL     1       1.352   3.741  20.680  0.00  0.00    +0.000 C 
ATOM     13  C   UNL     1       2.655   3.265  21.320  0.00  0.00    +0.000 C 
ATOM     14  C   UNL     1       3.714   2.841  20.295  0.00  0.00    +0.000 C 
ATOM     15  N   UNL     1       3.929   3.893  19.293  0.00  0.00    +0.000 NA
ATOM     16  C   UNL     1       2.678   4.130  18.544  0.00  0.00    +0.000 C 
BRANCH  15  17
ATOM     17  C   UNL     1       5.063   3.657  18.389  0.00  0.00    +0.000 C 
BRANCH  17  18
ATOM     18  C   UNL     1       5.832   4.918  18.081  0.00  0.00    +0.000 A 
ATOM     19  C   UNL     1       5.351   5.891  17.195  0.00  0.00    +0.000 A 
ATOM     20  C   UNL     1       6.063   7.078  17.022  0.00  0.00    +0.000 A 
ATOM     21  C   UNL     1       7.233   7.253  17.738  0.00  0.00    +0.000 A 
ATOM     22  N   UNL     1       7.741   6.330  18.584  0.00  0.00    +0.000 NA
ATOM     23  C   UNL     1       7.031   5.188  18.724  0.00  0.00    +0.000 A 
ENDBRANCH  17  18
ENDBRANCH  15  17
ENDBRANCH   7  11
BRANCH   9  24
ATOM     24  C   UNL     1       1.803   9.328  17.697  0.00  0.00    +0.000 C 
ATOM     25  F   UNL     1       0.556   9.809  17.423  0.00  0.00    +0.000 F 
ATOM     26  F   UNL     1       2.597  10.420  17.857  0.00  0.00    +0.000 F 
ENDBRANCH   9  24
TORSDOF 4
ENDMDL
MODEL 8
REMARK VINA RESULT:      -7.0      7.131     10.648
REMARK  Name = 
REMARK  5 active torsions:
REMARK  status: ('A' for Active; 'I' for Inactive)
REMARK    1  A    between atoms: C_1  and  C_2
REMARK    2  A    between atoms: C_7  and  C_8
REMARK    3  A    between atoms: N_12  and  C_13
REMARK    4  A    between atoms: C_13  and  C_14
REMARK    5  A    between atoms: C_22  and  C_23
REMARK                            x       y       z     vdW  Elec       q    Type
REMARK                         _______ _______ _______ _____ _____    ______ ____
ROOT
ATOM      1  C   UNL     1       1.090  10.219  19.030  0.00  0.00    +0.000 C 
ATOM      2  C   UNL     1       0.490  10.539  20.347  0.00  0.00    +0.000 A 
ATOM      3  N   UNL     1       1.136  10.213  21.474  0.00  0.00    +0.000 NA
ATOM      4  O   UNL     1       0.350  10.694  22.510  0.00  0.00    +0.000 OA
ATOM      5  C   UNL     1      -0.757  11.305  22.006  0.00  0.00    +0.000 A 
ATOM      6  N   UNL     1      -1.662  11.957  22.760  0.00  0.00    +0.000 NA
ATOM      7  C   UNL     1      -2.655  12.539  22.050  0.00  0.00    +0.000 A 
ATOM      8  C   UNL     1      -2.800  12.381  20.667  0.00  0.00    +0.000 A 
ATOM      9  C   UNL     1      -1.797  11.768  19.898  0.00  0.00    +0.000 A 
ATOM     10  C   UNL     1      -0.734  11.202  20.620  0.00  0.00    +0.000 A 
ENDROOT
BRANCH   7  11
ATOM     11  C   UNL     1      -3.437  13.625  22.794  0.00  0.00    +0.000 C 
ATOM     12  C   UNL     1      -3.525  13.491  24.321  0.00  0.00    +0.000 C 
ATOM     13  C   UNL     1      -4.636  12.552  24.790  0.00  0.00    +0.000 C 
ATOM     14  C   UNL     1      -5.955  12.750  24.035  0.00  0.00    +0.000 C 
ATOM     15  N   UNL     1      -5.745  12.693  22.582  0.00  0.00    +0.000 NA
ATOM     16  C   UNL     1      -4.844  13.786  22.167  0.00  0.00    +0.000 C 
BRANCH  15  17
ATOM     17  C   UNL     1      -6.977  12.674  21.784  0.00  0.00    +0.000 C 
BRANCH  17  18
ATOM     18  C   UNL     1      -7.008  11.540  20.788  0.00  0.00    +0.000 A 
ATOM     19  C   UNL     1      -6.310  11.591  19.575  0.00  0.00    +0.000 A 
ATOM     20  C   UNL     1      -6.300  10.475  18.738  0.00  0.00    +0.000 A 
ATOM     21  C   UNL     1      -6.991   9.347  19.140  0.00  0.00    +0.000 A 
ATOM     22  N   UNL     1      -7.695   9.266  20.291  0.00  0.00    +0.000 NA
ATOM     23  C   UNL     1      -7.690  10.367  21.076  0.00  0.00    +0.000 A 
ENDBRANCH  17  18
ENDBRANCH  15  17
ENDBRANCH   7  11
BRANCH   9  24
ATOM     24  C   UNL     1      -1.840  11.866  18.403  0.00  0.00    +0.000 C 
ATOM     25  F   UNL     1      -3.114  12.013  17.941  0.00  0.00    +0.000 F 
ATOM     26  F   UNL     1      -1.143  12.930  17.922  0.00  0.00    +0.000 F 
ENDBRANCH   9  24
TORSDOF 4
ENDMDL
MODEL 9
REMARK VINA RESULT:      -6.9      2.456      5.511
REMARK  Name = 
REMARK  5 active torsions:
REMARK  status: ('A' for Active; 'I' for Inactive)
REMARK    1  A    between atoms: C_1  and  C_2
REMARK    2  A    between atoms: C_7  and  C_8
REMARK    3  A    between atoms: N_12  and  C_13
REMARK    4  A    between atoms: C_13  and  C_14
REMARK    5  A    between atoms: C_22  and  C_23
REMARK                            x       y       z     vdW  Elec       q    Type
REMARK                         _______ _______ _______ _____ _____    ______ ____
ROOT
ATOM      1  C   UNL     1       0.887  11.488  20.289  0.00  0.00    +0.000 C 
ATOM      2  C   UNL     1       0.962  10.135  20.891  0.00  0.00    +0.000 A 
ATOM      3  N   UNL     1       0.590   9.947  22.164  0.00  0.00    +0.000 NA
ATOM      4  O   UNL     1       0.721   8.586  22.396  0.00  0.00    +0.000 OA
ATOM      5  C   UNL     1       1.165   7.965  21.269  0.00  0.00    +0.000 A 
ATOM      6  N   UNL     1       1.298   6.630  21.152  0.00  0.00    +0.000 NA
ATOM      7  C   UNL     1       1.702   6.221  19.928  0.00  0.00    +0.000 A 
ATOM      8  C   UNL     1       2.065   7.107  18.908  0.00  0.00    +0.000 A 
ATOM      9  C   UNL     1       1.837   8.487  19.030  0.00  0.00    +0.000 A 
ATOM     10  C   UNL     1       1.370   8.921  20.281  0.00  0.00    +0.000 A 
ENDROOT
BRANCH   7  11
ATOM     11  C   UNL     1       1.451   4.743  19.620  0.00  0.00    +0.000 C 
ATOM     12  C   UNL     1       1.102   3.837  20.811  0.00  0.00    +0.000 C 
ATOM     13  C   UNL     1       2.324   3.336  21.578  0.00  0.00    +0.000 C 
ATOM     14  C   UNL     1       3.464   2.870  20.665  0.00  0.00    +0.000 C 
ATOM     15  N   UNL     1       3.803   3.903  19.676  0.00  0.00    +0.000 NA
ATOM     16  C   UNL     1       2.637   4.163  18.809  0.00  0.00    +0.000 C 
BRANCH  15  17
ATOM     17  C   UNL     1       5.011   3.625  18.889  0.00  0.00    +0.000 C 
BRANCH  17  18
ATOM     18  C   UNL     1       5.191   4.589  17.741  0.00  0.00    +0.000 A 
ATOM     19  C   UNL     1       5.159   4.174  16.404  0.00  0.00    +0.000 A 
ATOM     20  C   UNL     1       5.238   5.123  15.384  0.00  0.00    +0.000 A 
ATOM     21  C   UNL     1       5.347   6.456  15.736  0.00  0.00    +0.000 A 
ATOM     22  N   UNL     1       5.404   6.894  17.013  0.00  0.00    +0.000 NA
ATOM     23  C   UNL     1       5.333   5.948  17.977  0.00  0.00    +0.000 A 
ENDBRANCH  17  18
ENDBRANCH  15  17
ENDBRANCH   7  11
BRANCH   9  24
ATOM     24  C   UNL     1       1.965   9.374  17.828  0.00  0.00    +0.000 C 
ATOM     25  F   UNL     1       2.723  10.477  18.091  0.00  0.00    +0.000 F 
ATOM     26  F   UNL     1       2.562   8.754  16.775  0.00  0.00    +0.000 F 
ENDBRANCH   9  24
TORSDOF 4
ENDMDL
