MODEL 1
REMARK VINA RESULT:      -7.9      0.000      0.000
REMARK  Name = 
REMARK  5 active torsions:
REMARK  status: ('A' for Active; 'I' for Inactive)
REMARK    1  A    between atoms: C_1  and  N_2
REMARK    2  A    between atoms: N_5  and  C_6
REMARK    3  A    between atoms: C_6  and  C_7
REMARK    4  A    between atoms: N_15  and  S_16
REMARK    5  A    between atoms: S_16  and  C_19
REMARK                            x       y       z     vdW  Elec       q    Type
REMARK                         _______ _______ _______ _____ _____    ______ ____
ROOT
ATOM      1  C   UNL     1       1.530   8.265  19.678  0.00  0.00    +0.000 A 
ATOM      2  C   UNL     1       2.099   8.898  18.555  0.00  0.00    +0.000 A 
ATOM      3  C   UNL     1       2.807   8.183  17.599  0.00  0.00    +0.000 A 
ATOM      4  C   UNL     1       3.048   6.814  17.761  0.00  0.00    +0.000 A 
ATOM      5  C   UNL     1       2.668   6.209  18.963  0.00  0.00    +0.000 A 
ATOM      6  C   UNL     1       1.889   6.907  19.912  0.00  0.00    +0.000 A 
ATOM      7  C   UNL     1       1.592   5.992  20.964  0.00  0.00    +0.000 A 
ATOM      8  C   UNL     1       2.246   4.807  20.702  0.00  0.00    +0.000 A 
ATOM      9  N   UNL     1       2.872   4.945  19.483  0.00  0.00    +0.000 N 
ENDROOT
BRANCH   9  10
ATOM     10  S   UNL     1       3.906   3.716  18.868  0.00  0.00    +0.000 S 
ATOM     11  O   UNL     1       4.233   2.891  20.014  0.00  0.00    +0.000 OA
ATOM     12  O   UNL     1       3.251   3.160  17.697  0.00  0.00    +0.000 OA
BRANCH  10  13
ATOM     13  C   UNL     1       5.378   4.545  18.329  0.00  0.00    +0.000 A 
ATOM     14  C   UNL     1       6.159   5.241  19.259  0.00  0.00    +0.000 A 
ATOM     15  C   UNL     1       7.265   5.978  18.824  0.00  0.00    +0.000 A 
ATOM     16  C   UNL     1       7.611   5.985  17.473  0.00  0.00    +0.000 A 
ATOM     17  C   UNL     1       6.882   5.218  16.562  0.00  0.00    +0.000 A 
ATOM     18  C   UNL     1       5.765   4.492  16.986  0.00  0.00    +0.000 A 
ENDBRANCH  10  13
ENDBRANCH   9  10
BRANCH   1  19
ATOM     19  C   UNL     1       0.547   9.045  20.548  0.00  0.00    +0.000 C 
BRANCH  19  24
ATOM     20  C   UNL     1      -2.295  11.861  23.202  0.00  0.00    +0.000 C 
ATOM     21  N   UNL     1      -0.918  11.430  22.996  0.00  0.00    +0.000 NA
ATOM     22  C   UNL     1      -0.423  11.819  21.663  0.00  0.00    +0.000 C 
ATOM     23  C   UNL     1       1.016  11.309  21.391  0.00  0.00    +0.000 C 
ATOM     24  N   UNL     1       1.209   9.854  21.598  0.00  0.00    +0.000 NA
ATOM     25  C   UNL     1       0.694   9.538  22.953  0.00  0.00    +0.000 C 
ATOM     26  C   UNL     1      -0.771   9.978  23.193  0.00  0.00    +0.000 C 
ENDBRANCH  19  24
ENDBRANCH   1  19
TORSDOF 4
ENDMDL
MODEL 2
REMARK VINA RESULT:      -7.9      4.108      8.033
REMARK  Name = 
REMARK  5 active torsions:
REMARK  status: ('A' for Active; 'I' for Inactive)
REMARK    1  A    between atoms: C_1  and  N_2
REMARK    2  A    between atoms: N_5  and  C_6
REMARK    3  A    between atoms: C_6  and  C_7
REMARK    4  A    between atoms: N_15  and  S_16
REMARK    5  A    between atoms: S_16  and  C_19
REMARK                            x       y       z     vdW  Elec       q    Type
REMARK                         _______ _______ _______ _____ _____    ______ ____
ROOT
ATOM      1  C   UNL     1       2.316   6.941  19.604  0.00  0.00    +0.000 A 
ATOM      2  C   UNL     1       2.738   7.037  18.263  0.00  0.00    +0.000 A 
ATOM      3  C   UNL     1       2.622   8.221  17.548  0.00  0.00    +0.000 A 
ATOM      4  C   UNL     1       2.006   9.343  18.114  0.00  0.00    +0.000 A 
ATOM      5  C   UNL     1       1.401   9.209  19.368  0.00  0.00    +0.000 A 
ATOM      6  C   UNL     1       1.571   8.033  20.133  0.00  0.00    +0.000 A 
ATOM      7  C   UNL     1       0.920   8.250  21.383  0.00  0.00    +0.000 A 
ATOM      8  C   UNL     1       0.302   9.482  21.338  0.00  0.00    +0.000 A 
ATOM      9  N   UNL     1       0.619  10.057  20.128  0.00  0.00    +0.000 N 
ENDROOT
BRANCH   9  10
ATOM     10  S   UNL     1      -0.077  11.553  19.643  0.00  0.00    +0.000 S 
ATOM     11  O   UNL     1      -0.489  12.194  20.876  0.00  0.00    +0.000 OA
ATOM     12  O   UNL     1       0.868  12.185  18.739  0.00  0.00    +0.000 OA
BRANCH  10  13
ATOM     13  C   UNL     1      -1.527  11.134  18.712  0.00  0.00    +0.000 A 
ATOM     14  C   UNL     1      -1.452  10.148  17.720  0.00  0.00    +0.000 A 
ATOM     15  C   UNL     1      -2.565   9.884  16.917  0.00  0.00    +0.000 A 
ATOM     16  C   UNL     1      -3.759  10.573  17.131  0.00  0.00    +0.000 A 
ATOM     17  C   UNL     1      -3.857  11.492  18.177  0.00  0.00    +0.000 A 
ATOM     18  C   UNL     1      -2.742  11.774  18.975  0.00  0.00    +0.000 A 
ENDBRANCH  10  13
ENDBRANCH   9  10
BRANCH   1  19
ATOM     19  C   UNL     1       2.707   5.708  20.416  0.00  0.00    +0.000 C 
BRANCH  19  24
ATOM     20  C   UNL     1       3.666   1.359  18.624  0.00  0.00    +0.000 C 
ATOM     21  N   UNL     1       2.651   2.164  19.293  0.00  0.00    +0.000 NA
ATOM     22  C   UNL     1       2.224   3.301  18.456  0.00  0.00    +0.000 C 
ATOM     23  C   UNL     1       1.198   4.214  19.174  0.00  0.00    +0.000 C 
ATOM     24  N   UNL     1       1.625   4.701  20.507  0.00  0.00    +0.000 NA
ATOM     25  C   UNL     1       2.036   3.510  21.291  0.00  0.00    +0.000 C 
ATOM     26  C   UNL     1       3.120   2.643  20.605  0.00  0.00    +0.000 C 
ENDBRANCH  19  24
ENDBRANCH   1  19
TORSDOF 4
ENDMDL
MODEL 3
REMARK VINA RESULT:      -7.9      1.090      1.773
REMARK  Name = 
REMARK  5 active torsions:
REMARK  status: ('A' for Active; 'I' for Inactive)
REMARK    1  A    between atoms: C_1  and  N_2
REMARK    2  A    between atoms: N_5  and  C_6
REMARK    3  A    between atoms: C_6  and  C_7
REMARK    4  A    between atoms: N_15  and  S_16
REMARK    5  A    between atoms: S_16  and  C_19
REMARK                            x       y       z     vdW  Elec       q    Type
REMARK                         _______ _______ _______ _____ _____    ______ ____
ROOT
ATOM      1  C   UNL     1       1.908   7.922  20.041  0.00  0.00    +0.000 A 
ATOM      2  C   UNL     1       2.295   8.648  18.896  0.00  0.00    +0.000 A 
ATOM      3  C   UNL     1       2.623   8.009  17.708  0.00  0.00    +0.000 A 
ATOM      4  C   UNL     1       2.659   6.612  17.631  0.00  0.00    +0.000 A 
ATOM      5  C   UNL     1       2.477   5.876  18.806  0.00  0.00    +0.000 A 
ATOM      6  C   UNL     1       2.075   6.508  20.004  0.00  0.00    +0.000 A 
ATOM      7  C   UNL     1       1.885   5.482  20.975  0.00  0.00    +0.000 A 
ATOM      8  C   UNL     1       2.246   4.280  20.407  0.00  0.00    +0.000 A 
ATOM      9  N   UNL     1       2.579   4.529  19.094  0.00  0.00    +0.000 N 
ENDROOT
BRANCH   9  10
ATOM     10  S   UNL     1       3.214   3.288  18.085  0.00  0.00    +0.000 S 
ATOM     11  O   UNL     1       3.472   2.174  18.975  0.00  0.00    +0.000 OA
ATOM     12  O   UNL     1       2.311   3.162  16.955  0.00  0.00    +0.000 OA
BRANCH  10  13
ATOM     13  C   UNL     1       4.764   3.900  17.481  0.00  0.00    +0.000 A 
ATOM     14  C   UNL     1       5.002   3.938  16.101  0.00  0.00    +0.000 A 
ATOM     15  C   UNL     1       6.258   4.326  15.623  0.00  0.00    +0.000 A 
ATOM     16  C   UNL     1       7.255   4.713  16.518  0.00  0.00    +0.000 A 
ATOM     17  C   UNL     1       6.987   4.759  17.887  0.00  0.00    +0.000 A 
ATOM     18  C   UNL     1       5.738   4.357  18.374  0.00  0.00    +0.000 A 
ENDBRANCH  10  13
ENDBRANCH   9  10
BRANCH   1  19
ATOM     19  C   UNL     1       1.307   8.675  21.226  0.00  0.00    +0.000 C 
BRANCH  19  24
ATOM     20  C   UNL     1      -0.737  12.803  22.578  0.00  0.00    +0.000 C 
ATOM     21  N   UNL     1      -1.005  11.453  22.097  0.00  0.00    +0.000 NA
ATOM     22  C   UNL     1      -0.543  10.434  23.058  0.00  0.00    +0.000 C 
ATOM     23  C   UNL     1      -0.751   8.989  22.537  0.00  0.00    +0.000 C 
ATOM     24  N   UNL     1      -0.174   8.721  21.199  0.00  0.00    +0.000 NA
ATOM     25  C   UNL     1      -0.682   9.778  20.289  0.00  0.00    +0.000 C 
ATOM     26  C   UNL     1      -0.401  11.221  20.775  0.00  0.00    +0.000 C 
ENDBRANCH  19  24
ENDBRANCH   1  19
TORSDOF 4
ENDMDL
MODEL 4
REMARK VINA RESULT:      -7.3      4.195      8.175
REMARK  Name = 
REMARK  5 active torsions:
REMARK  status: ('A' for Active; 'I' for Inactive)
REMARK    1  A    between atoms: C_1  and  N_2
REMARK    2  A    between atoms: N_5  and  C_6
REMARK    3  A    between atoms: C_6  and  C_7
REMARK    4  A    between atoms: N_15  and  S_16
REMARK    5  A    between atoms: S_16  and  C_19
REMARK                            x       y       z     vdW  Elec       q    Type
REMARK                         _______ _______ _______ _____ _____    ______ ____
ROOT
ATOM      1  C   UNL     1       2.196   7.284  19.373  0.00  0.00    +0.000 A 
ATOM      2  C   UNL     1       2.613   7.619  18.069  0.00  0.00    +0.000 A 
ATOM      3  C   UNL     1       2.420   8.891  17.549  0.00  0.00    +0.000 A 
ATOM      4  C   UNL     1       1.729   9.866  18.276  0.00  0.00    +0.000 A 
ATOM      5  C   UNL     1       1.131   9.495  19.485  0.00  0.00    +0.000 A 
ATOM      6  C   UNL     1       1.377   8.227  20.057  0.00  0.00    +0.000 A 
ATOM      7  C   UNL     1       0.709   8.200  21.317  0.00  0.00    +0.000 A 
ATOM      8  C   UNL     1       0.010   9.379  21.459  0.00  0.00    +0.000 A 
ATOM      9  N   UNL     1       0.291  10.159  20.359  0.00  0.00    +0.000 N 
ENDROOT
BRANCH   9  10
ATOM     10  S   UNL     1      -0.503  11.663  20.106  0.00  0.00    +0.000 S 
ATOM     11  O   UNL     1      -1.024  12.037  21.407  0.00  0.00    +0.000 OA
ATOM     12  O   UNL     1       0.427  12.516  19.389  0.00  0.00    +0.000 OA
BRANCH  10  13
ATOM     13  C   UNL     1      -1.869  11.317  19.030  0.00  0.00    +0.000 A 
ATOM     14  C   UNL     1      -3.083  11.990  19.214  0.00  0.00    +0.000 A 
ATOM     15  C   UNL     1      -4.192  11.650  18.432  0.00  0.00    +0.000 A 
ATOM     16  C   UNL     1      -4.076  10.671  17.446  0.00  0.00    +0.000 A 
ATOM     17  C   UNL     1      -2.842  10.064  17.206  0.00  0.00    +0.000 A 
ATOM     18  C   UNL     1      -1.732  10.387  17.995  0.00  0.00    +0.000 A 
ENDBRANCH  10  13
ENDBRANCH   9  10
BRANCH   1  19
ATOM     19  C   UNL     1       2.667   5.967  19.986  0.00  0.00    +0.000 C 
BRANCH  19  24
ATOM     20  C   UNL     1       4.705   1.654  20.524  0.00  0.00    +0.000 C 
ATOM     21  N   UNL     1       3.505   2.346  20.068  0.00  0.00    +0.000 NA
ATOM     22  C   UNL     1       3.793   3.232  18.925  0.00  0.00    +0.000 C 
ATOM     23  C   UNL     1       2.549   4.035  18.467  0.00  0.00    +0.000 C 
ATOM     24  N   UNL     1       1.872   4.798  19.542  0.00  0.00    +0.000 NA
ATOM     25  C   UNL     1       1.612   3.847  20.650  0.00  0.00    +0.000 C 
ATOM     26  C   UNL     1       2.872   3.106  21.159  0.00  0.00    +0.000 C 
ENDBRANCH  19  24
ENDBRANCH   1  19
TORSDOF 4
ENDMDL
MODEL 5
REMARK VINA RESULT:      -7.3      4.042      7.595
REMARK  Name = 
REMARK  5 active torsions:
REMARK  status: ('A' for Active; 'I' for Inactive)
REMARK    1  A    between atoms: C_1  and  N_2
REMARK    2  A    between atoms: N_5  and  C_6
REMARK    3  A    between atoms: C_6  and  C_7
REMARK    4  A    between atoms: N_15  and  S_16
REMARK    5  A    between atoms: S_16  and  C_19
REMARK                            x       y       z     vdW  Elec       q    Type
REMARK                         _______ _______ _______ _____ _____    ______ ____
ROOT
ATOM      1  C   UNL     1       2.378   6.929  19.544  0.00  0.00    +0.000 A 
ATOM      2  C   UNL     1       2.737   7.054  18.187  0.00  0.00    +0.000 A 
ATOM      3  C   UNL     1       2.575   8.250  17.500  0.00  0.00    +0.000 A 
ATOM      4  C   UNL     1       1.971   9.353  18.114  0.00  0.00    +0.000 A 
ATOM      5  C   UNL     1       1.425   9.188  19.391  0.00  0.00    +0.000 A 
ATOM      6  C   UNL     1       1.644   8.001  20.126  0.00  0.00    +0.000 A 
ATOM      7  C   UNL     1       1.047   8.187  21.408  0.00  0.00    +0.000 A 
ATOM      8  C   UNL     1       0.413   9.411  21.414  0.00  0.00    +0.000 A 
ATOM      9  N   UNL     1       0.668  10.012  20.201  0.00  0.00    +0.000 N 
ENDROOT
BRANCH   9  10
ATOM     10  S   UNL     1      -0.068  11.507  19.776  0.00  0.00    +0.000 S 
ATOM     11  O   UNL     1      -0.683  11.270  18.484  0.00  0.00    +0.000 OA
ATOM     12  O   UNL     1      -0.853  11.932  20.921  0.00  0.00    +0.000 OA
BRANCH  10  13
ATOM     13  C   UNL     1       1.262  12.660  19.566  0.00  0.00    +0.000 A 
ATOM     14  C   UNL     1       1.970  13.111  20.686  0.00  0.00    +0.000 A 
ATOM     15  C   UNL     1       2.954  14.094  20.538  0.00  0.00    +0.000 A 
ATOM     16  C   UNL     1       3.255  14.593  19.271  0.00  0.00    +0.000 A 
ATOM     17  C   UNL     1       2.608  14.079  18.146  0.00  0.00    +0.000 A 
ATOM     18  C   UNL     1       1.612  13.107  18.288  0.00  0.00    +0.000 A 
ENDBRANCH  10  13
ENDBRANCH   9  10
BRANCH   1  19
ATOM     19  C   UNL     1       2.821   5.687  20.315  0.00  0.00    +0.000 C 
BRANCH  19  24
ATOM     20  C   UNL     1       3.663   1.297  18.565  0.00  0.00    +0.000 C 
ATOM     21  N   UNL     1       2.689   2.121  19.270  0.00  0.00    +0.000 NA
ATOM     22  C   UNL     1       2.222   3.242  18.433  0.00  0.00    +0.000 C 
ATOM     23  C   UNL     1       1.240   4.177  19.186  0.00  0.00    +0.000 C 
ATOM     24  N   UNL     1       1.740   4.688  20.484  0.00  0.00    +0.000 NA
ATOM     25  C   UNL     1       2.186   3.511  21.269  0.00  0.00    +0.000 C 
ATOM     26  C   UNL     1       3.228   2.624  20.545  0.00  0.00    +0.000 C 
ENDBRANCH  19  24
ENDBRANCH   1  19
TORSDOF 4
ENDMDL
MODEL 6
REMARK VINA RESULT:      -7.3      3.258      8.340
REMARK  Name = 
REMARK  5 active torsions:
REMARK  status: ('A' for Active; 'I' for Inactive)
REMARK    1  A    between atoms: C_1  and  N_2
REMARK    2  A    between atoms: N_5  and  C_6
REMARK    3  A    between atoms: C_6  and  C_7
REMARK    4  A    between atoms: N_15  and  S_16
REMARK    5  A    between atoms: S_16  and  C_19
REMARK                            x       y       z     vdW  Elec       q    Type
REMARK                         _______ _______ _______ _____ _____    ______ ____
ROOT
ATOM      1  C   UNL     1       3.236   5.429  18.742  0.00  0.00    +0.000 A 
ATOM      2  C   UNL     1       3.105   4.517  19.808  0.00  0.00    +0.000 A 
ATOM      3  C   UNL     1       2.264   4.771  20.883  0.00  0.00    +0.000 A 
ATOM      4  C   UNL     1       1.576   5.985  20.983  0.00  0.00    +0.000 A 
ATOM      5  C   UNL     1       1.847   6.984  20.042  0.00  0.00    +0.000 A 
ATOM      6  C   UNL     1       2.645   6.715  18.908  0.00  0.00    +0.000 A 
ATOM      7  C   UNL     1       2.647   7.895  18.108  0.00  0.00    +0.000 A 
ATOM      8  C   UNL     1       1.946   8.872  18.781  0.00  0.00    +0.000 A 
ATOM      9  N   UNL     1       1.451   8.303  19.933  0.00  0.00    +0.000 N 
ENDROOT
BRANCH   9  10
ATOM     10  S   UNL     1       0.626   9.248  21.110  0.00  0.00    +0.000 S 
ATOM     11  O   UNL     1      -0.528   8.455  21.488  0.00  0.00    +0.000 OA
ATOM     12  O   UNL     1       1.616   9.660  22.090  0.00  0.00    +0.000 OA
BRANCH  10  13
ATOM     13  C   UNL     1       0.062  10.698  20.260  0.00  0.00    +0.000 A 
ATOM     14  C   UNL     1      -1.054  10.616  19.418  0.00  0.00    +0.000 A 
ATOM     15  C   UNL     1      -1.443  11.732  18.670  0.00  0.00    +0.000 A 
ATOM     16  C   UNL     1      -0.745  12.932  18.794  0.00  0.00    +0.000 A 
ATOM     17  C   UNL     1       0.312  13.036  19.700  0.00  0.00    +0.000 A 
ATOM     18  C   UNL     1       0.718  11.920  20.440  0.00  0.00    +0.000 A 
ENDBRANCH  10  13
ENDBRANCH   9  10
BRANCH   1  19
ATOM     19  C   UNL     1       3.959   4.985  17.473  0.00  0.00    +0.000 C 
BRANCH  19  24
ATOM     20  C   UNL     1       6.367   3.932  13.455  0.00  0.00    +0.000 C 
ATOM     21  N   UNL     1       6.441   4.646  14.725  0.00  0.00    +0.000 NA
ATOM     22  C   UNL     1       6.349   3.722  15.871  0.00  0.00    +0.000 C 
ATOM     23  C   UNL     1       6.351   4.463  17.232  0.00  0.00    +0.000 C 
ATOM     24  N   UNL     1       5.332   5.531  17.360  0.00  0.00    +0.000 NA
ATOM     25  C   UNL     1       5.485   6.419  16.182  0.00  0.00    +0.000 C 
ATOM     26  C   UNL     1       5.401   5.685  14.821  0.00  0.00    +0.000 C 
ENDBRANCH  19  24
ENDBRANCH   1  19
TORSDOF 4
ENDMDL
MODEL 7
REMARK VINA RESULT:      -7.2      2.644      4.416
REMARK  Name = 
REMARK  5 active torsions:
REMARK  status: ('A' for Active; 'I' for Inactive)
REMARK    1  A    between atoms: C_1  and  N_2
REMARK    2  A    between atoms: N_5  and  C_6
REMARK    3  A    between atoms: C_6  and  C_7
REMARK    4  A    between atoms: N_15  and  S_16
REMARK    5  A    between atoms: S_16  and  C_19
REMARK                            x       y       z     vdW  Elec       q    Type
REMARK                         _______ _______ _______ _____ _____    ______ ____
ROOT
ATOM      1  C   UNL     1       0.694   9.517  19.614  0.00  0.00    +0.000 A 
ATOM      2  C   UNL     1       0.218   9.006  20.839  0.00  0.00    +0.000 A 
ATOM      3  C   UNL     1       0.804   7.901  21.442  0.00  0.00    +0.000 A 
ATOM      4  C   UNL     1       1.841   7.205  20.810  0.00  0.00    +0.000 A 
ATOM      5  C   UNL     1       2.191   7.572  19.506  0.00  0.00    +0.000 A 
ATOM      6  C   UNL     1       1.653   8.734  18.910  0.00  0.00    +0.000 A 
ATOM      7  C   UNL     1       2.277   8.878  17.636  0.00  0.00    +0.000 A 
ATOM      8  C   UNL     1       3.099   7.790  17.434  0.00  0.00    +0.000 A 
ATOM      9  N   UNL     1       3.054   7.023  18.577  0.00  0.00    +0.000 N 
ENDROOT
BRANCH   9  10
ATOM     10  S   UNL     1       3.852   5.502  18.662  0.00  0.00    +0.000 S 
ATOM     11  O   UNL     1       4.223   5.195  17.294  0.00  0.00    +0.000 OA
ATOM     12  O   UNL     1       4.850   5.607  19.712  0.00  0.00    +0.000 OA
BRANCH  10  13
ATOM     13  C   UNL     1       2.623   4.338  19.190  0.00  0.00    +0.000 A 
ATOM     14  C   UNL     1       1.743   3.787  18.250  0.00  0.00    +0.000 A 
ATOM     15  C   UNL     1       0.710   2.946  18.675  0.00  0.00    +0.000 A 
ATOM     16  C   UNL     1       0.583   2.625  20.026  0.00  0.00    +0.000 A 
ATOM     17  C   UNL     1       1.515   3.106  20.949  0.00  0.00    +0.000 A 
ATOM     18  C   UNL     1       2.541   3.961  20.534  0.00  0.00    +0.000 A 
ENDBRANCH  10  13
ENDBRANCH   9  10
BRANCH   1  19
ATOM     19  C   UNL     1       0.192  10.877  19.135  0.00  0.00    +0.000 C 
BRANCH  19  24
ATOM     20  C   UNL     1       1.707  15.400  18.591  0.00  0.00    +0.000 C 
ATOM     21  N   UNL     1       0.997  14.490  19.482  0.00  0.00    +0.000 NA
ATOM     22  C   UNL     1       1.873  13.402  19.955  0.00  0.00    +0.000 C 
ATOM     23  C   UNL     1       1.122  12.380  20.846  0.00  0.00    +0.000 C 
ATOM     24  N   UNL     1      -0.108  11.814  20.243  0.00  0.00    +0.000 NA
ATOM     25  C   UNL     1      -0.937  12.960  19.795  0.00  0.00    +0.000 C 
ATOM     26  C   UNL     1      -0.207  13.936  18.840  0.00  0.00    +0.000 C 
ENDBRANCH  19  24
ENDBRANCH   1  19
TORSDOF 4
ENDMDL
MODEL 8
REMARK VINA RESULT:      -7.2      2.770      4.130
REMARK  Name = 
REMARK  5 active torsions:
REMARK  status: ('A' for Active; 'I' for Inactive)
REMARK    1  A    between atoms: C_1  and  N_2
REMARK    2  A    between atoms: N_5  and  C_6
REMARK    3  A    between atoms: C_6  and  C_7
REMARK    4  A    between atoms: N_15  and  S_16
REMARK    5  A    between atoms: S_16  and  C_19
REMARK                            x       y       z     vdW  Elec       q    Type
REMARK                         _______ _______ _______ _____ _____    ______ ____
ROOT
ATOM      1  C   UNL     1       0.652   9.671  19.677  0.00  0.00    +0.000 A 
ATOM      2  C   UNL     1       0.187   9.161  20.906  0.00  0.00    +0.000 A 
ATOM      3  C   UNL     1       0.768   8.047  21.497  0.00  0.00    +0.000 A 
ATOM      4  C   UNL     1       1.789   7.343  20.849  0.00  0.00    +0.000 A 
ATOM      5  C   UNL     1       2.127   7.711  19.543  0.00  0.00    +0.000 A 
ATOM      6  C   UNL     1       1.593   8.880  18.957  0.00  0.00    +0.000 A 
ATOM      7  C   UNL     1       2.203   9.023  17.677  0.00  0.00    +0.000 A 
ATOM      8  C   UNL     1       3.010   7.927  17.460  0.00  0.00    +0.000 A 
ATOM      9  N   UNL     1       2.972   7.157  18.600  0.00  0.00    +0.000 N 
ENDROOT
BRANCH   9  10
ATOM     10  S   UNL     1       3.754   5.626  18.669  0.00  0.00    +0.000 S 
ATOM     11  O   UNL     1       4.133   5.335  17.300  0.00  0.00    +0.000 OA
ATOM     12  O   UNL     1       4.745   5.706  19.728  0.00  0.00    +0.000 OA
BRANCH  10  13
ATOM     13  C   UNL     1       2.510   4.467  19.171  0.00  0.00    +0.000 A 
ATOM     14  C   UNL     1       2.421   4.086  20.515  0.00  0.00    +0.000 A 
ATOM     15  C   UNL     1       1.508   3.099  20.899  0.00  0.00    +0.000 A 
ATOM     16  C   UNL     1       0.661   2.527  19.951  0.00  0.00    +0.000 A 
ATOM     17  C   UNL     1       0.691   2.971  18.628  0.00  0.00    +0.000 A 
ATOM     18  C   UNL     1       1.613   3.946  18.233  0.00  0.00    +0.000 A 
ENDBRANCH  10  13
ENDBRANCH   9  10
BRANCH   1  19
ATOM     19  C   UNL     1       0.159  11.039  19.210  0.00  0.00    +0.000 C 
BRANCH  19  24
ATOM     20  C   UNL     1      -1.378  15.355  20.643  0.00  0.00    +0.000 C 
ATOM     21  N   UNL     1      -0.201  14.590  20.248  0.00  0.00    +0.000 NA
ATOM     22  C   UNL     1      -0.300  14.126  18.852  0.00  0.00    +0.000 C 
ATOM     23  C   UNL     1       0.907  13.249  18.431  0.00  0.00    +0.000 C 
ATOM     24  N   UNL     1       1.184  12.102  19.327  0.00  0.00    +0.000 NA
ATOM     25  C   UNL     1       1.273  12.641  20.706  0.00  0.00    +0.000 C 
ATOM     26  C   UNL     1       0.030  13.450  21.151  0.00  0.00    +0.000 C 
ENDBRANCH  19  24
ENDBRANCH   1  19
TORSDOF 4
ENDMDL
MODEL 9
REMARK VINA RESULT:      -7.2      1.131      1.653
REMARK  Name = 
REMARK  5 active torsions:
REMARK  status: ('A' for Active; 'I' for Inactive)
REMARK    1  A    between atoms: C_1  and  N_2
REMARK    2  A    between atoms: N_5  and  C_6
REMARK    3  A    between atoms: C_6  and  C_7
REMARK    4  A    between atoms: N_15  and  S_16
REMARK    5  A    between atoms: S_16  and  C_19
REMARK                            x       y       z     vdW  Elec       q    Type
REMARK                         _______ _______ _______ _____ _____    ______ ____
ROOT
ATOM      1  C   UNL     1       1.701   8.506  19.402  0.00  0.00    +0.000 A 
ATOM      2  C   UNL     1       2.340   8.955  18.229  0.00  0.00    +0.000 A 
ATOM      3  C   UNL     1       2.951   8.071  17.351  0.00  0.00    +0.000 A 
ATOM      4  C   UNL     1       3.022   6.704  17.643  0.00  0.00    +0.000 A 
ATOM      5  C   UNL     1       2.574   6.267  18.894  0.00  0.00    +0.000 A 
ATOM      6  C   UNL     1       1.890   7.142  19.766  0.00  0.00    +0.000 A 
ATOM      7  C   UNL     1       1.486   6.374  20.897  0.00  0.00    +0.000 A 
ATOM      8  C   UNL     1       1.988   5.098  20.753  0.00  0.00    +0.000 A 
ATOM      9  N   UNL     1       2.622   5.042  19.532  0.00  0.00    +0.000 N 
ENDROOT
BRANCH   9  10
ATOM     10  S   UNL     1       3.494   3.642  19.044  0.00  0.00    +0.000 S 
ATOM     11  O   UNL     1       3.779   2.929  20.273  0.00  0.00    +0.000 OA
ATOM     12  O   UNL     1       2.737   3.026  17.969  0.00  0.00    +0.000 OA
BRANCH  10  13
ATOM     13  C   UNL     1       5.022   4.234  18.367  0.00  0.00    +0.000 A 
ATOM     14  C   UNL     1       5.321   3.994  17.020  0.00  0.00    +0.000 A 
ATOM     15  C   UNL     1       6.565   4.372  16.506  0.00  0.00    +0.000 A 
ATOM     16  C   UNL     1       7.489   5.021  17.324  0.00  0.00    +0.000 A 
ATOM     17  C   UNL     1       7.155   5.337  18.642  0.00  0.00    +0.000 A 
ATOM     18  C   UNL     1       5.918   4.949  19.168  0.00  0.00    +0.000 A 
ENDBRANCH  10  13
ENDBRANCH   9  10
BRANCH   1  19
ATOM     19  C   UNL     1       0.824   9.480  20.187  0.00  0.00    +0.000 C 
BRANCH  19  24
ATOM     20  C   UNL     1      -2.567  12.516  21.711  0.00  0.00    +0.000 C 
ATOM     21  N   UNL     1      -1.367  12.399  20.892  0.00  0.00    +0.000 NA
ATOM     22  C   UNL     1      -1.570  11.470  19.764  0.00  0.00    +0.000 C 
ATOM     23  C   UNL     1      -0.286  11.272  18.919  0.00  0.00    +0.000 C 
ATOM     24  N   UNL     1       0.913  10.874  19.694  0.00  0.00    +0.000 NA
ATOM     25  C   UNL     1       1.055  11.849  20.803  0.00  0.00    +0.000 C 
ATOM     26  C   UNL     1      -0.204  11.984  21.694  0.00  0.00    +0.000 C 
ENDBRANCH  19  24
ENDBRANCH   1  19
TORSDOF 4
ENDMDL
