MODEL 1
REMARK VINA RESULT:      -7.7      0.000      0.000
REMARK  Name = 
REMARK  0 active torsions:
REMARK  status: ('A' for Active; 'I' for Inactive)
REMARK                            x       y       z     vdW  Elec       q    Type
REMARK                         _______ _______ _______ _____ _____    ______ ____
ROOT
ATOM      1  O   UNL     1       5.818   4.331  15.737  0.00  0.00    +0.000 OA
ATOM      2  C   UNL     1       4.971   4.938  16.388  0.00  0.00    +0.000 C 
ATOM      3  C   UNL     1       4.781   6.427  16.175  0.00  0.00    +0.000 C 
ATOM      4  O   UNL     1       5.344   7.011  15.244  0.00  0.00    +0.000 OA
ATOM      5  C   UNL     1       3.884   7.007  17.115  0.00  0.00    +0.000 A 
ATOM      6  O   UNL     1       3.565   8.324  17.025  0.00  0.00    +0.000 OA
ATOM      7  C   UNL     1       2.653   8.573  17.994  0.00  0.00    +0.000 A 
ATOM      8  C   UNL     1       2.377   7.419  18.693  0.00  0.00    +0.000 A 
ATOM      9  C   UNL     1       3.205   6.396  18.152  0.00  0.00    +0.000 A 
ATOM     10  C   UNL     1       3.343   4.942  18.341  0.00  0.00    +0.000 A 
ATOM     11  C   UNL     1       4.138   4.244  17.404  0.00  0.00    +0.000 A 
ATOM     12  C   UNL     1       4.203   2.846  17.400  0.00  0.00    +0.000 A 
ATOM     13  C   UNL     1       3.353   2.127  18.226  0.00  0.00    +0.000 A 
ATOM     14  C   UNL     1       2.584   2.793  19.187  0.00  0.00    +0.000 A 
ATOM     15  C   UNL     1       1.794   1.995  20.017  0.00  0.00    +0.000 A 
ATOM     16  C   UNL     1       1.466   2.452  21.279  0.00  0.00    +0.000 A 
ATOM     17  C   UNL     1       1.670   3.790  21.583  0.00  0.00    +0.000 A 
ATOM     18  C   UNL     1       2.153   4.671  20.600  0.00  0.00    +0.000 A 
ATOM     19  C   UNL     1       2.679   4.189  19.370  0.00  0.00    +0.000 A 
ENDROOT
TORSDOF 0
ENDMDL
MODEL 2
REMARK VINA RESULT:      -7.5      2.369      5.640
REMARK  Name = 
REMARK  0 active torsions:
REMARK  status: ('A' for Active; 'I' for Inactive)
REMARK                            x       y       z     vdW  Elec       q    Type
REMARK                         _______ _______ _______ _____ _____    ______ ____
ROOT
ATOM      1  O   UNL     1       2.401   7.210  19.990  0.00  0.00    +0.000 OA
ATOM      2  C   UNL     1       2.505   6.130  19.412  0.00  0.00    +0.000 C 
ATOM      3  C   UNL     1       1.739   4.925  19.920  0.00  0.00    +0.000 C 
ATOM      4  O   UNL     1       0.884   5.045  20.803  0.00  0.00    +0.000 OA
ATOM      5  C   UNL     1       2.093   3.724  19.247  0.00  0.00    +0.000 A 
ATOM      6  O   UNL     1       1.455   2.563  19.549  0.00  0.00    +0.000 OA
ATOM      7  C   UNL     1       1.946   1.617  18.714  0.00  0.00    +0.000 A 
ATOM      8  C   UNL     1       2.884   2.172  17.870  0.00  0.00    +0.000 A 
ATOM      9  C   UNL     1       3.016   3.541  18.235  0.00  0.00    +0.000 A 
ATOM     10  C   UNL     1       3.734   4.709  17.699  0.00  0.00    +0.000 A 
ATOM     11  C   UNL     1       3.392   5.974  18.230  0.00  0.00    +0.000 A 
ATOM     12  C   UNL     1       3.896   7.157  17.679  0.00  0.00    +0.000 A 
ATOM     13  C   UNL     1       4.618   7.100  16.497  0.00  0.00    +0.000 A 
ATOM     14  C   UNL     1       5.000   5.860  15.972  0.00  0.00    +0.000 A 
ATOM     15  C   UNL     1       5.771   5.886  14.808  0.00  0.00    +0.000 A 
ATOM     16  C   UNL     1       6.628   4.836  14.542  0.00  0.00    +0.000 A 
ATOM     17  C   UNL     1       6.493   3.659  15.265  0.00  0.00    +0.000 A 
ATOM     18  C   UNL     1       5.463   3.528  16.213  0.00  0.00    +0.000 A 
ATOM     19  C   UNL     1       4.704   4.652  16.639  0.00  0.00    +0.000 A 
ENDROOT
TORSDOF 0
ENDMDL
MODEL 3
REMARK VINA RESULT:      -7.5      2.447      2.773
REMARK  Name = 
REMARK  0 active torsions:
REMARK  status: ('A' for Active; 'I' for Inactive)
REMARK                            x       y       z     vdW  Elec       q    Type
REMARK                         _______ _______ _______ _____ _____    ______ ____
ROOT
ATOM      1  O   UNL     1       5.156   4.003  14.497  0.00  0.00    +0.000 OA
ATOM      2  C   UNL     1       5.370   4.321  15.665  0.00  0.00    +0.000 C 
ATOM      3  C   UNL     1       6.674   4.999  16.036  0.00  0.00    +0.000 C 
ATOM      4  O   UNL     1       7.456   5.388  15.163  0.00  0.00    +0.000 OA
ATOM      5  C   UNL     1       6.835   5.152  17.440  0.00  0.00    +0.000 A 
ATOM      6  O   UNL     1       7.928   5.791  17.932  0.00  0.00    +0.000 OA
ATOM      7  C   UNL     1       7.778   5.845  19.277  0.00  0.00    +0.000 A 
ATOM      8  C   UNL     1       6.588   5.255  19.645  0.00  0.00    +0.000 A 
ATOM      9  C   UNL     1       5.981   4.764  18.455  0.00  0.00    +0.000 A 
ATOM     10  C   UNL     1       4.690   4.147  18.109  0.00  0.00    +0.000 A 
ATOM     11  C   UNL     1       4.380   4.031  16.735  0.00  0.00    +0.000 A 
ATOM     12  C   UNL     1       3.117   3.610  16.304  0.00  0.00    +0.000 A 
ATOM     13  C   UNL     1       2.102   3.451  17.236  0.00  0.00    +0.000 A 
ATOM     14  C   UNL     1       2.392   3.525  18.603  0.00  0.00    +0.000 A 
ATOM     15  C   UNL     1       1.328   3.302  19.480  0.00  0.00    +0.000 A 
ATOM     16  C   UNL     1       1.587   2.811  20.745  0.00  0.00    +0.000 A 
ATOM     17  C   UNL     1       2.891   2.831  21.219  0.00  0.00    +0.000 A 
ATOM     18  C   UNL     1       3.917   3.391  20.438  0.00  0.00    +0.000 A 
ATOM     19  C   UNL     1       3.710   3.716  19.069  0.00  0.00    +0.000 A 
ENDROOT
TORSDOF 0
ENDMDL
MODEL 4
REMARK VINA RESULT:      -7.1      2.731      4.702
REMARK  Name = 
REMARK  0 active torsions:
REMARK  status: ('A' for Active; 'I' for Inactive)
REMARK                            x       y       z     vdW  Elec       q    Type
REMARK                         _______ _______ _______ _____ _____    ______ ____
ROOT
ATOM      1  O   UNL     1       2.229   4.655  21.227  0.00  0.00    +0.000 OA
ATOM      2  C   UNL     1       2.518   5.507  20.391  0.00  0.00    +0.000 C 
ATOM      3  C   UNL     1       1.750   6.813  20.348  0.00  0.00    +0.000 C 
ATOM      4  O   UNL     1       0.949   7.107  21.241  0.00  0.00    +0.000 OA
ATOM      5  C   UNL     1       2.095   7.618  19.227  0.00  0.00    +0.000 A 
ATOM      6  O   UNL     1       1.533   8.845  19.075  0.00  0.00    +0.000 OA
ATOM      7  C   UNL     1       2.094   9.398  17.973  0.00  0.00    +0.000 A 
ATOM      8  C   UNL     1       3.022   8.536  17.430  0.00  0.00    +0.000 A 
ATOM      9  C   UNL     1       3.003   7.352  18.220  0.00  0.00    +0.000 A 
ATOM     10  C   UNL     1       3.790   6.110  18.273  0.00  0.00    +0.000 A 
ATOM     11  C   UNL     1       3.599   5.274  19.398  0.00  0.00    +0.000 A 
ATOM     12  C   UNL     1       4.410   4.157  19.624  0.00  0.00    +0.000 A 
ATOM     13  C   UNL     1       5.520   3.953  18.818  0.00  0.00    +0.000 A 
ATOM     14  C   UNL     1       5.711   4.743  17.679  0.00  0.00    +0.000 A 
ATOM     15  C   UNL     1       6.822   4.441  16.889  0.00  0.00    +0.000 A 
ATOM     16  C   UNL     1       6.795   4.743  15.542  0.00  0.00    +0.000 A 
ATOM     17  C   UNL     1       5.808   5.593  15.064  0.00  0.00    +0.000 A 
ATOM     18  C   UNL     1       4.887   6.175  15.953  0.00  0.00    +0.000 A 
ATOM     19  C   UNL     1       4.774   5.727  17.298  0.00  0.00    +0.000 A 
ENDROOT
TORSDOF 0
ENDMDL
MODEL 5
REMARK VINA RESULT:      -6.8      2.429      5.497
REMARK  Name = 
REMARK  0 active torsions:
REMARK  status: ('A' for Active; 'I' for Inactive)
REMARK                            x       y       z     vdW  Elec       q    Type
REMARK                         _______ _______ _______ _____ _____    ______ ____
ROOT
ATOM      1  O   UNL     1       1.915   8.297  19.471  0.00  0.00    +0.000 OA
ATOM      2  C   UNL     1       2.338   7.144  19.431  0.00  0.00    +0.000 C 
ATOM      3  C   UNL     1       1.879   6.135  20.465  0.00  0.00    +0.000 C 
ATOM      4  O   UNL     1       0.962   6.403  21.247  0.00  0.00    +0.000 OA
ATOM      5  C   UNL     1       2.580   4.901  20.380  0.00  0.00    +0.000 A 
ATOM      6  O   UNL     1       2.248   3.873  21.202  0.00  0.00    +0.000 OA
ATOM      7  C   UNL     1       3.027   2.823  20.851  0.00  0.00    +0.000 A 
ATOM      8  C   UNL     1       3.845   3.170  19.798  0.00  0.00    +0.000 A 
ATOM      9  C   UNL     1       3.589   4.540  19.506  0.00  0.00    +0.000 A 
ATOM     10  C   UNL     1       4.013   5.492  18.466  0.00  0.00    +0.000 A 
ATOM     11  C   UNL     1       3.316   6.720  18.396  0.00  0.00    +0.000 A 
ATOM     12  C   UNL     1       3.532   7.621  17.348  0.00  0.00    +0.000 A 
ATOM     13  C   UNL     1       4.326   7.239  16.278  0.00  0.00    +0.000 A 
ATOM     14  C   UNL     1       5.054   6.045  16.340  0.00  0.00    +0.000 A 
ATOM     15  C   UNL     1       5.872   5.755  15.246  0.00  0.00    +0.000 A 
ATOM     16  C   UNL     1       6.990   4.964  15.431  0.00  0.00    +0.000 A 
ATOM     17  C   UNL     1       7.115   4.242  16.608  0.00  0.00    +0.000 A 
ATOM     18  C   UNL     1       6.091   4.279  17.570  0.00  0.00    +0.000 A 
ATOM     19  C   UNL     1       5.037   5.229  17.492  0.00  0.00    +0.000 A 
ENDROOT
TORSDOF 0
ENDMDL
MODEL 6
REMARK VINA RESULT:      -6.8      2.167      2.675
REMARK  Name = 
REMARK  0 active torsions:
REMARK  status: ('A' for Active; 'I' for Inactive)
REMARK                            x       y       z     vdW  Elec       q    Type
REMARK                         _______ _______ _______ _____ _____    ______ ____
ROOT
ATOM      1  O   UNL     1       5.926   3.109  14.527  0.00  0.00    +0.000 OA
ATOM      2  C   UNL     1       5.882   4.037  15.331  0.00  0.00    +0.000 C 
ATOM      3  C   UNL     1       6.968   5.094  15.324  0.00  0.00    +0.000 C 
ATOM      4  O   UNL     1       7.807   5.134  14.419  0.00  0.00    +0.000 OA
ATOM      5  C   UNL     1       6.861   6.000  16.415  0.00  0.00    +0.000 A 
ATOM      6  O   UNL     1       7.728   7.040  16.521  0.00  0.00    +0.000 OA
ATOM      7  C   UNL     1       7.347   7.760  17.602  0.00  0.00    +0.000 A 
ATOM      8  C   UNL     1       6.231   7.194  18.179  0.00  0.00    +0.000 A 
ATOM      9  C   UNL     1       5.927   6.020  17.434  0.00  0.00    +0.000 A 
ATOM     10  C   UNL     1       4.839   5.028  17.428  0.00  0.00    +0.000 A 
ATOM     11  C   UNL     1       4.790   4.133  16.335  0.00  0.00    +0.000 A 
ATOM     12  C   UNL     1       3.710   3.263  16.152  0.00  0.00    +0.000 A 
ATOM     13  C   UNL     1       2.595   3.387  16.967  0.00  0.00    +0.000 A 
ATOM     14  C   UNL     1       2.633   4.240  18.077  0.00  0.00    +0.000 A 
ATOM     15  C   UNL     1       1.490   4.271  18.879  0.00  0.00    +0.000 A 
ATOM     16  C   UNL     1       1.613   4.602  20.215  0.00  0.00    +0.000 A 
ATOM     17  C   UNL     1       2.794   5.177  20.659  0.00  0.00    +0.000 A 
ATOM     18  C   UNL     1       3.825   5.463  19.747  0.00  0.00    +0.000 A 
ATOM     19  C   UNL     1       3.800   4.954  18.419  0.00  0.00    +0.000 A 
ENDROOT
TORSDOF 0
ENDMDL
MODEL 7
REMARK VINA RESULT:      -6.8      0.688      3.293
REMARK  Name = 
REMARK  0 active torsions:
REMARK  status: ('A' for Active; 'I' for Inactive)
REMARK                            x       y       z     vdW  Elec       q    Type
REMARK                         _______ _______ _______ _____ _____    ______ ____
ROOT
ATOM      1  O   UNL     1       3.381   8.439  17.465  0.00  0.00    +0.000 OA
ATOM      2  C   UNL     1       3.734   7.262  17.442  0.00  0.00    +0.000 C 
ATOM      3  C   UNL     1       4.718   6.789  16.391  0.00  0.00    +0.000 C 
ATOM      4  O   UNL     1       5.301   7.596  15.660  0.00  0.00    +0.000 OA
ATOM      5  C   UNL     1       4.895   5.378  16.397  0.00  0.00    +0.000 A 
ATOM      6  O   UNL     1       5.787   4.802  15.550  0.00  0.00    +0.000 OA
ATOM      7  C   UNL     1       5.789   3.476  15.826  0.00  0.00    +0.000 A 
ATOM      8  C   UNL     1       4.913   3.205  16.855  0.00  0.00    +0.000 A 
ATOM      9  C   UNL     1       4.294   4.436  17.210  0.00  0.00    +0.000 A 
ATOM     10  C   UNL     1       3.371   4.884  18.267  0.00  0.00    +0.000 A 
ATOM     11  C   UNL     1       3.192   6.279  18.416  0.00  0.00    +0.000 A 
ATOM     12  C   UNL     1       2.467   6.811  19.487  0.00  0.00    +0.000 A 
ATOM     13  C   UNL     1       2.048   5.969  20.506  0.00  0.00    +0.000 A 
ATOM     14  C   UNL     1       2.181   4.582  20.365  0.00  0.00    +0.000 A 
ATOM     15  C   UNL     1       1.687   3.799  21.410  0.00  0.00    +0.000 A 
ATOM     16  C   UNL     1       1.268   2.509  21.146  0.00  0.00    +0.000 A 
ATOM     17  C   UNL     1       1.615   1.924  19.937  0.00  0.00    +0.000 A 
ATOM     18  C   UNL     1       2.424   2.621  19.023  0.00  0.00    +0.000 A 
ATOM     19  C   UNL     1       2.698   4.007  19.185  0.00  0.00    +0.000 A 
ENDROOT
TORSDOF 0
ENDMDL
MODEL 8
REMARK VINA RESULT:      -6.7      1.705      2.808
REMARK  Name = 
REMARK  0 active torsions:
REMARK  status: ('A' for Active; 'I' for Inactive)
REMARK                            x       y       z     vdW  Elec       q    Type
REMARK                         _______ _______ _______ _____ _____    ______ ____
ROOT
ATOM      1  O   UNL     1       3.756   7.750  16.508  0.00  0.00    +0.000 OA
ATOM      2  C   UNL     1       3.063   7.636  17.516  0.00  0.00    +0.000 C 
ATOM      3  C   UNL     1       2.428   8.864  18.138  0.00  0.00    +0.000 C 
ATOM      4  O   UNL     1       2.456   9.954  17.559  0.00  0.00    +0.000 OA
ATOM      5  C   UNL     1       1.798   8.587  19.383  0.00  0.00    +0.000 A 
ATOM      6  O   UNL     1       1.135   9.572  20.042  0.00  0.00    +0.000 OA
ATOM      7  C   UNL     1       0.588   9.007  21.144  0.00  0.00    +0.000 A 
ATOM      8  C   UNL     1       0.887   7.663  21.185  0.00  0.00    +0.000 A 
ATOM      9  C   UNL     1       1.711   7.385  20.058  0.00  0.00    +0.000 A 
ATOM     10  C   UNL     1       2.282   6.174  19.445  0.00  0.00    +0.000 A 
ATOM     11  C   UNL     1       2.852   6.312  18.159  0.00  0.00    +0.000 A 
ATOM     12  C   UNL     1       3.274   5.199  17.425  0.00  0.00    +0.000 A 
ATOM     13  C   UNL     1       2.988   3.928  17.898  0.00  0.00    +0.000 A 
ATOM     14  C   UNL     1       2.458   3.763  19.183  0.00  0.00    +0.000 A 
ATOM     15  C   UNL     1       2.246   2.450  19.608  0.00  0.00    +0.000 A 
ATOM     16  C   UNL     1       2.274   2.166  20.959  0.00  0.00    +0.000 A 
ATOM     17  C   UNL     1       2.213   3.213  21.867  0.00  0.00    +0.000 A 
ATOM     18  C   UNL     1       2.073   4.535  21.411  0.00  0.00    +0.000 A 
ATOM     19  C   UNL     1       2.242   4.865  20.038  0.00  0.00    +0.000 A 
ENDROOT
TORSDOF 0
ENDMDL
MODEL 9
REMARK VINA RESULT:      -6.5      2.630      4.836
REMARK  Name = 
REMARK  0 active torsions:
REMARK  status: ('A' for Active; 'I' for Inactive)
REMARK                            x       y       z     vdW  Elec       q    Type
REMARK                         _______ _______ _______ _____ _____    ______ ____
ROOT
ATOM      1  O   UNL     1       1.779   1.577  19.263  0.00  0.00    +0.000 OA
ATOM      2  C   UNL     1       2.112   2.759  19.291  0.00  0.00    +0.000 C 
ATOM      3  C   UNL     1       1.453   3.706  20.274  0.00  0.00    +0.000 C 
ATOM      4  O   UNL     1       0.706   3.280  21.161  0.00  0.00    +0.000 OA
ATOM      5  C   UNL     1       1.828   5.062  20.069  0.00  0.00    +0.000 A 
ATOM      6  O   UNL     1       1.366   6.029  20.904  0.00  0.00    +0.000 OA
ATOM      7  C   UNL     1       1.936   7.192  20.511  0.00  0.00    +0.000 A 
ATOM      8  C   UNL     1       2.773   6.971  19.438  0.00  0.00    +0.000 A 
ATOM      9  C   UNL     1       2.680   5.588  19.116  0.00  0.00    +0.000 A 
ATOM     10  C   UNL     1       3.365   4.676  18.185  0.00  0.00    +0.000 A 
ATOM     11  C   UNL     1       3.139   3.291  18.358  0.00  0.00    +0.000 A 
ATOM     12  C   UNL     1       3.863   2.338  17.633  0.00  0.00    +0.000 A 
ATOM     13  C   UNL     1       4.927   2.750  16.846  0.00  0.00    +0.000 A 
ATOM     14  C   UNL     1       5.148   4.115  16.630  0.00  0.00    +0.000 A 
ATOM     15  C   UNL     1       6.206   4.450  15.783  0.00  0.00    +0.000 A 
ATOM     16  C   UNL     1       6.162   5.643  15.087  0.00  0.00    +0.000 A 
ATOM     17  C   UNL     1       5.235   6.604  15.460  0.00  0.00    +0.000 A 
ATOM     18  C   UNL     1       4.392   6.381  16.563  0.00  0.00    +0.000 A 
ATOM     19  C   UNL     1       4.284   5.096  17.162  0.00  0.00    +0.000 A 
ENDROOT
TORSDOF 0
ENDMDL
