MODEL 1
REMARK VINA RESULT:      -7.1      0.000      0.000
REMARK  Name = 
REMARK  6 active torsions:
REMARK  status: ('A' for Active; 'I' for Inactive)
REMARK    1  A    between atoms: C_2  and  C_3
REMARK    2  A    between atoms: C_3  and  O_4
REMARK    3  A    between atoms: O_4  and  C_5
REMARK    4  A    between atoms: C_5  and  C_7
REMARK    5  A    between atoms: N_13  and  C_14
REMARK    6  A    between atoms: C_14  and  C_15
REMARK                            x       y       z     vdW  Elec       q    Type
REMARK                         _______ _______ _______ _____ _____    ______ ____
ROOT
ATOM      1  O   UNL     1       4.675   7.243  16.082  0.00  0.00    +0.000 OA
ATOM      2  C   UNL     1       5.201   6.842  17.116  0.00  0.00    +0.000 C 
ATOM      3  N   UNL     1       4.508   6.170  18.102  0.00  0.00    +0.000 N 
ATOM      4  H   UNL     1       5.031   5.776  18.878  0.00  0.00    +0.000 HD
ENDROOT
BRANCH   2   5
ATOM      5  C   UNL     1       6.698   6.984  17.383  0.00  0.00    +0.000 C 
BRANCH   5   6
ATOM      6  O   UNL     1       7.512   6.518  16.309  0.00  0.00    +0.000 OA
BRANCH   6   7
ATOM      7  C   UNL     1       7.505   5.167  16.140  0.00  0.00    +0.000 C 
ATOM      8  O   UNL     1       7.645   4.341  17.028  0.00  0.00    +0.000 OA
BRANCH   7   9
ATOM      9  C   UNL     1       7.256   4.812  14.711  0.00  0.00    +0.000 A 
ATOM     10  C   UNL     1       6.253   3.893  14.412  0.00  0.00    +0.000 A 
ATOM     11  C   UNL     1       5.994   3.604  13.073  0.00  0.00    +0.000 A 
ATOM     12  C   UNL     1       6.744   4.233  12.085  0.00  0.00    +0.000 A 
ATOM     13  C   UNL     1       7.731   5.126  12.473  0.00  0.00    +0.000 A 
ATOM     14  N   UNL     1       8.003   5.435  13.759  0.00  0.00    +0.000 NA
ENDBRANCH   7   9
ENDBRANCH   6   7
ENDBRANCH   5   6
ENDBRANCH   2   5
BRANCH   3  15
ATOM     15  C   UNL     1       3.079   5.950  18.044  0.00  0.00    +0.000 C 
BRANCH  15  16
ATOM     16  C   UNL     1       2.337   6.967  18.879  0.00  0.00    +0.000 A 
ATOM     17  C   UNL     1       2.088   8.242  18.336  0.00  0.00    +0.000 A 
ATOM     18  C   UNL     1       1.451   9.231  19.090  0.00  0.00    +0.000 A 
ATOM     19  C   UNL     1       1.065   8.962  20.399  0.00  0.00    +0.000 A 
ATOM     20 CL   UNL     1       0.317  10.190  21.342  0.00  0.00    +0.000 Cl
ATOM     21  C   UNL     1       1.290   7.704  20.954  0.00  0.00    +0.000 A 
ATOM     22  C   UNL     1       1.920   6.713  20.196  0.00  0.00    +0.000 A 
ATOM     23 CL   UNL     1       2.164   5.176  20.948  0.00  0.00    +0.000 Cl
ENDBRANCH  15  16
ENDBRANCH   3  15
TORSDOF 6
ENDMDL
MODEL 2
REMARK VINA RESULT:      -6.9      3.377      5.187
REMARK  Name = 
REMARK  6 active torsions:
REMARK  status: ('A' for Active; 'I' for Inactive)
REMARK    1  A    between atoms: C_2  and  C_3
REMARK    2  A    between atoms: C_3  and  O_4
REMARK    3  A    between atoms: O_4  and  C_5
REMARK    4  A    between atoms: C_5  and  C_7
REMARK    5  A    between atoms: N_13  and  C_14
REMARK    6  A    between atoms: C_14  and  C_15
REMARK                            x       y       z     vdW  Elec       q    Type
REMARK                         _______ _______ _______ _____ _____    ______ ____
ROOT
ATOM      1  O   UNL     1       6.128   6.831  18.048  0.00  0.00    +0.000 OA
ATOM      2  C   UNL     1       5.389   5.878  18.276  0.00  0.00    +0.000 C 
ATOM      3  N   UNL     1       4.017   5.939  18.137  0.00  0.00    +0.000 N 
ATOM      4  H   UNL     1       3.482   5.082  18.241  0.00  0.00    +0.000 HD
ENDROOT
BRANCH   2   5
ATOM      5  C   UNL     1       5.922   4.502  18.670  0.00  0.00    +0.000 C 
BRANCH   5   6
ATOM      6  O   UNL     1       5.007   3.442  18.402  0.00  0.00    +0.000 OA
BRANCH   6   7
ATOM      7  C   UNL     1       4.573   2.777  19.508  0.00  0.00    +0.000 C 
ATOM      8  O   UNL     1       5.276   2.130  20.267  0.00  0.00    +0.000 OA
BRANCH   7   9
ATOM      9  C   UNL     1       3.107   2.978  19.707  0.00  0.00    +0.000 A 
ATOM     10  C   UNL     1       2.578   2.844  20.989  0.00  0.00    +0.000 A 
ATOM     11  C   UNL     1       1.217   3.080  21.175  0.00  0.00    +0.000 A 
ATOM     12  C   UNL     1       0.434   3.434  20.081  0.00  0.00    +0.000 A 
ATOM     13  C   UNL     1       1.040   3.533  18.839  0.00  0.00    +0.000 A 
ATOM     14  N   UNL     1       2.357   3.319  18.624  0.00  0.00    +0.000 NA
ENDBRANCH   7   9
ENDBRANCH   6   7
ENDBRANCH   5   6
ENDBRANCH   2   5
BRANCH   3  15
ATOM     15  C   UNL     1       3.318   7.158  17.788  0.00  0.00    +0.000 C 
BRANCH  15  16
ATOM     16  C   UNL     1       2.444   7.628  18.926  0.00  0.00    +0.000 A 
ATOM     17  C   UNL     1       2.183   6.747  19.993  0.00  0.00    +0.000 A 
ATOM     18  C   UNL     1       1.339   7.120  21.042  0.00  0.00    +0.000 A 
ATOM     19  C   UNL     1       0.735   8.374  21.032  0.00  0.00    +0.000 A 
ATOM     20 CL   UNL     1      -0.335   8.821  22.301  0.00  0.00    +0.000 Cl
ATOM     21  C   UNL     1       0.988   9.267  19.993  0.00  0.00    +0.000 A 
ATOM     22  C   UNL     1       1.839   8.896  18.949  0.00  0.00    +0.000 A 
ATOM     23 CL   UNL     1       2.108  10.055  17.696  0.00  0.00    +0.000 Cl
ENDBRANCH  15  16
ENDBRANCH   3  15
TORSDOF 6
ENDMDL
MODEL 3
REMARK VINA RESULT:      -6.8      1.517      2.105
REMARK  Name = 
REMARK  6 active torsions:
REMARK  status: ('A' for Active; 'I' for Inactive)
REMARK    1  A    between atoms: C_2  and  C_3
REMARK    2  A    between atoms: C_3  and  O_4
REMARK    3  A    between atoms: O_4  and  C_5
REMARK    4  A    between atoms: C_5  and  C_7
REMARK    5  A    between atoms: N_13  and  C_14
REMARK    6  A    between atoms: C_14  and  C_15
REMARK                            x       y       z     vdW  Elec       q    Type
REMARK                         _______ _______ _______ _____ _____    ______ ____
ROOT
ATOM      1  O   UNL     1       3.613   4.522  17.385  0.00  0.00    +0.000 OA
ATOM      2  C   UNL     1       4.377   5.350  17.874  0.00  0.00    +0.000 C 
ATOM      3  N   UNL     1       3.995   6.641  18.175  0.00  0.00    +0.000 N 
ATOM      4  H   UNL     1       4.649   7.235  18.675  0.00  0.00    +0.000 HD
ENDROOT
BRANCH   2   5
ATOM      5  C   UNL     1       5.812   5.010  18.267  0.00  0.00    +0.000 C 
BRANCH   5   6
ATOM      6  O   UNL     1       6.594   4.512  17.184  0.00  0.00    +0.000 OA
BRANCH   6   7
ATOM      7  C   UNL     1       7.017   5.464  16.307  0.00  0.00    +0.000 C 
ATOM      8  O   UNL     1       7.413   6.579  16.609  0.00  0.00    +0.000 OA
BRANCH   7   9
ATOM      9  C   UNL     1       6.975   4.952  14.906  0.00  0.00    +0.000 A 
ATOM     10  C   UNL     1       5.974   4.051  14.549  0.00  0.00    +0.000 A 
ATOM     11  C   UNL     1       5.913   3.615  13.227  0.00  0.00    +0.000 A 
ATOM     12  C   UNL     1       6.850   4.085  12.312  0.00  0.00    +0.000 A 
ATOM     13  C   UNL     1       7.819   4.971  12.756  0.00  0.00    +0.000 A 
ATOM     14  N   UNL     1       7.903   5.421  14.027  0.00  0.00    +0.000 NA
ENDBRANCH   7   9
ENDBRANCH   6   7
ENDBRANCH   5   6
ENDBRANCH   2   5
BRANCH   3  15
ATOM     15  C   UNL     1       2.680   7.162  17.863  0.00  0.00    +0.000 C 
BRANCH  15  16
ATOM     16  C   UNL     1       2.025   7.755  19.088  0.00  0.00    +0.000 A 
ATOM     17  C   UNL     1       1.782   6.925  20.199  0.00  0.00    +0.000 A 
ATOM     18  C   UNL     1       1.132   7.416  21.334  0.00  0.00    +0.000 A 
ATOM     19  C   UNL     1       0.706   8.741  21.368  0.00  0.00    +0.000 A 
ATOM     20 CL   UNL     1      -0.129   9.338  22.748  0.00  0.00    +0.000 Cl
ATOM     21  C   UNL     1       0.946   9.584  20.286  0.00  0.00    +0.000 A 
ATOM     22  C   UNL     1       1.604   9.094  19.154  0.00  0.00    +0.000 A 
ATOM     23 CL   UNL     1       1.869  10.197  17.852  0.00  0.00    +0.000 Cl
ENDBRANCH  15  16
ENDBRANCH   3  15
TORSDOF 6
ENDMDL
MODEL 4
REMARK VINA RESULT:      -6.8      4.538      7.960
REMARK  Name = 
REMARK  6 active torsions:
REMARK  status: ('A' for Active; 'I' for Inactive)
REMARK    1  A    between atoms: C_2  and  C_3
REMARK    2  A    between atoms: C_3  and  O_4
REMARK    3  A    between atoms: O_4  and  C_5
REMARK    4  A    between atoms: C_5  and  C_7
REMARK    5  A    between atoms: N_13  and  C_14
REMARK    6  A    between atoms: C_14  and  C_15
REMARK                            x       y       z     vdW  Elec       q    Type
REMARK                         _______ _______ _______ _____ _____    ______ ____
ROOT
ATOM      1  O   UNL     1       8.232   4.181  17.718  0.00  0.00    +0.000 OA
ATOM      2  C   UNL     1       7.191   4.826  17.801  0.00  0.00    +0.000 C 
ATOM      3  N   UNL     1       6.718   5.627  16.782  0.00  0.00    +0.000 N 
ATOM      4  H   UNL     1       5.799   6.046  16.883  0.00  0.00    +0.000 HD
ENDROOT
BRANCH   2   5
ATOM      5  C   UNL     1       6.275   4.751  19.021  0.00  0.00    +0.000 C 
BRANCH   5   6
ATOM      6  O   UNL     1       5.331   3.685  18.955  0.00  0.00    +0.000 OA
BRANCH   6   7
ATOM      7  C   UNL     1       4.091   4.053  18.529  0.00  0.00    +0.000 C 
ATOM      8  O   UNL     1       3.841   4.613  17.474  0.00  0.00    +0.000 OA
BRANCH   7   9
ATOM      9  C   UNL     1       3.047   3.639  19.513  0.00  0.00    +0.000 A 
ATOM     10  C   UNL     1       3.416   2.823  20.580  0.00  0.00    +0.000 A 
ATOM     11  C   UNL     1       2.446   2.481  21.521  0.00  0.00    +0.000 A 
ATOM     12  C   UNL     1       1.149   2.957  21.364  0.00  0.00    +0.000 A 
ATOM     13  C   UNL     1       0.867   3.754  20.266  0.00  0.00    +0.000 A 
ATOM     14  N   UNL     1       1.783   4.112  19.339  0.00  0.00    +0.000 NA
ENDBRANCH   7   9
ENDBRANCH   6   7
ENDBRANCH   5   6
ENDBRANCH   2   5
BRANCH   3  15
ATOM     15  C   UNL     1       7.450   5.844  15.552  0.00  0.00    +0.000 C 
BRANCH  15  16
ATOM     16  C   UNL     1       6.894   4.997  14.431  0.00  0.00    +0.000 A 
ATOM     17  C   UNL     1       5.769   4.190  14.683  0.00  0.00    +0.000 A 
ATOM     18  C   UNL     1       5.250   3.352  13.691  0.00  0.00    +0.000 A 
ATOM     19  C   UNL     1       5.858   3.302  12.441  0.00  0.00    +0.000 A 
ATOM     20 CL   UNL     1       5.247   2.243  11.232  0.00  0.00    +0.000 Cl
ATOM     21  C   UNL     1       6.966   4.101  12.165  0.00  0.00    +0.000 A 
ATOM     22  C   UNL     1       7.477   4.945  13.154  0.00  0.00    +0.000 A 
ATOM     23 CL   UNL     1       8.851   5.908  12.741  0.00  0.00    +0.000 Cl
ENDBRANCH  15  16
ENDBRANCH   3  15
TORSDOF 6
ENDMDL
MODEL 5
REMARK VINA RESULT:      -6.8      1.088      1.197
REMARK  Name = 
REMARK  6 active torsions:
REMARK  status: ('A' for Active; 'I' for Inactive)
REMARK    1  A    between atoms: C_2  and  C_3
REMARK    2  A    between atoms: C_3  and  O_4
REMARK    3  A    between atoms: O_4  and  C_5
REMARK    4  A    between atoms: C_5  and  C_7
REMARK    5  A    between atoms: N_13  and  C_14
REMARK    6  A    between atoms: C_14  and  C_15
REMARK                            x       y       z     vdW  Elec       q    Type
REMARK                         _______ _______ _______ _____ _____    ______ ____
ROOT
ATOM      1  O   UNL     1       4.533   4.982  18.051  0.00  0.00    +0.000 OA
ATOM      2  C   UNL     1       4.887   6.137  17.833  0.00  0.00    +0.000 C 
ATOM      3  N   UNL     1       4.005   7.196  17.772  0.00  0.00    +0.000 N 
ATOM      4  H   UNL     1       4.382   8.136  17.693  0.00  0.00    +0.000 HD
ENDROOT
BRANCH   2   5
ATOM      5  C   UNL     1       6.355   6.529  17.679  0.00  0.00    +0.000 C 
BRANCH   5   6
ATOM      6  O   UNL     1       6.848   6.368  16.351  0.00  0.00    +0.000 OA
BRANCH   6   7
ATOM      7  C   UNL     1       7.360   5.135  16.084  0.00  0.00    +0.000 C 
ATOM      8  O   UNL     1       7.862   4.383  16.905  0.00  0.00    +0.000 OA
BRANCH   7   9
ATOM      9  C   UNL     1       7.188   4.790  14.642  0.00  0.00    +0.000 A 
ATOM     10  C   UNL     1       6.244   3.828  14.289  0.00  0.00    +0.000 A 
ATOM     11  C   UNL     1       6.055   3.546  12.937  0.00  0.00    +0.000 A 
ATOM     12  C   UNL     1       6.814   4.225  11.990  0.00  0.00    +0.000 A 
ATOM     13  C   UNL     1       7.739   5.159  12.430  0.00  0.00    +0.000 A 
ATOM     14  N   UNL     1       7.942   5.462  13.730  0.00  0.00    +0.000 NA
ENDBRANCH   7   9
ENDBRANCH   6   7
ENDBRANCH   5   6
ENDBRANCH   2   5
BRANCH   3  15
ATOM     15  C   UNL     1       2.571   7.028  17.876  0.00  0.00    +0.000 C 
BRANCH  15  16
ATOM     16  C   UNL     1       1.940   8.184  18.616  0.00  0.00    +0.000 A 
ATOM     17  C   UNL     1       1.814   9.424  17.962  0.00  0.00    +0.000 A 
ATOM     18  C   UNL     1       1.284  10.535  18.623  0.00  0.00    +0.000 A 
ATOM     19  C   UNL     1       0.883  10.422  19.951  0.00  0.00    +0.000 A 
ATOM     20 CL   UNL     1       0.267  11.797  20.780  0.00  0.00    +0.000 Cl
ATOM     21  C   UNL     1       0.987   9.202  20.616  0.00  0.00    +0.000 A 
ATOM     22  C   UNL     1       1.510   8.091  19.950  0.00  0.00    +0.000 A 
ATOM     23 CL   UNL     1       1.606   6.610  20.836  0.00  0.00    +0.000 Cl
ENDBRANCH  15  16
ENDBRANCH   3  15
TORSDOF 6
ENDMDL
MODEL 6
REMARK VINA RESULT:      -6.7      3.066      4.044
REMARK  Name = 
REMARK  6 active torsions:
REMARK  status: ('A' for Active; 'I' for Inactive)
REMARK    1  A    between atoms: C_2  and  C_3
REMARK    2  A    between atoms: C_3  and  O_4
REMARK    3  A    between atoms: O_4  and  C_5
REMARK    4  A    between atoms: C_5  and  C_7
REMARK    5  A    between atoms: N_13  and  C_14
REMARK    6  A    between atoms: C_14  and  C_15
REMARK                            x       y       z     vdW  Elec       q    Type
REMARK                         _______ _______ _______ _____ _____    ______ ____
ROOT
ATOM      1  O   UNL     1       1.903   5.470  18.231  0.00  0.00    +0.000 OA
ATOM      2  C   UNL     1       2.318   5.593  19.380  0.00  0.00    +0.000 C 
ATOM      3  N   UNL     1       2.341   6.801  20.047  0.00  0.00    +0.000 N 
ATOM      4  H   UNL     1       2.599   6.806  21.029  0.00  0.00    +0.000 HD
ENDROOT
BRANCH   2   5
ATOM      5  C   UNL     1       2.787   4.403  20.215  0.00  0.00    +0.000 C 
BRANCH   5   6
ATOM      6  O   UNL     1       4.093   3.948  19.870  0.00  0.00    +0.000 OA
BRANCH   6   7
ATOM      7  C   UNL     1       4.169   3.300  18.675  0.00  0.00    +0.000 C 
ATOM      8  O   UNL     1       3.492   2.338  18.347  0.00  0.00    +0.000 OA
BRANCH   7   9
ATOM      9  C   UNL     1       5.172   3.951  17.781  0.00  0.00    +0.000 A 
ATOM     10  C   UNL     1       4.846   4.153  16.442  0.00  0.00    +0.000 A 
ATOM     11  C   UNL     1       5.768   4.805  15.625  0.00  0.00    +0.000 A 
ATOM     12  C   UNL     1       6.978   5.224  16.166  0.00  0.00    +0.000 A 
ATOM     13  C   UNL     1       7.225   4.971  17.507  0.00  0.00    +0.000 A 
ATOM     14  N   UNL     1       6.352   4.350  18.329  0.00  0.00    +0.000 NA
ENDBRANCH   7   9
ENDBRANCH   6   7
ENDBRANCH   5   6
ENDBRANCH   2   5
BRANCH   3  15
ATOM     15  C   UNL     1       1.954   8.048  19.422  0.00  0.00    +0.000 C 
BRANCH  15  16
ATOM     16  C   UNL     1       1.128   8.895  20.361  0.00  0.00    +0.000 A 
ATOM     17  C   UNL     1       1.236   8.676  21.747  0.00  0.00    +0.000 A 
ATOM     18  C   UNL     1       0.454   9.400  22.652  0.00  0.00    +0.000 A 
ATOM     19  C   UNL     1      -0.454  10.343  22.180  0.00  0.00    +0.000 A 
ATOM     20 CL   UNL     1      -1.446  11.207  23.288  0.00  0.00    +0.000 Cl
ATOM     21  C   UNL     1      -0.570  10.585  20.813  0.00  0.00    +0.000 A 
ATOM     22  C   UNL     1       0.219   9.866  19.911  0.00  0.00    +0.000 A 
ATOM     23 CL   UNL     1       0.023  10.221  18.231  0.00  0.00    +0.000 Cl
ENDBRANCH  15  16
ENDBRANCH   3  15
TORSDOF 6
ENDMDL
MODEL 7
REMARK VINA RESULT:      -6.7      4.075      7.635
REMARK  Name = 
REMARK  6 active torsions:
REMARK  status: ('A' for Active; 'I' for Inactive)
REMARK    1  A    between atoms: C_2  and  C_3
REMARK    2  A    between atoms: C_3  and  O_4
REMARK    3  A    between atoms: O_4  and  C_5
REMARK    4  A    between atoms: C_5  and  C_7
REMARK    5  A    between atoms: N_13  and  C_14
REMARK    6  A    between atoms: C_14  and  C_15
REMARK                            x       y       z     vdW  Elec       q    Type
REMARK                         _______ _______ _______ _____ _____    ______ ____
ROOT
ATOM      1  O   UNL     1       4.720   2.741  20.198  0.00  0.00    +0.000 OA
ATOM      2  C   UNL     1       4.228   2.535  19.093  0.00  0.00    +0.000 C 
ATOM      3  N   UNL     1       4.699   3.124  17.937  0.00  0.00    +0.000 N 
ATOM      4  H   UNL     1       4.310   2.824  17.049  0.00  0.00    +0.000 HD
ENDROOT
BRANCH   2   5
ATOM      5  C   UNL     1       3.086   1.544  18.876  0.00  0.00    +0.000 C 
BRANCH   5   6
ATOM      6  O   UNL     1       1.909   1.866  19.613  0.00  0.00    +0.000 OA
BRANCH   6   7
ATOM      7  C   UNL     1       1.069   2.735  18.984  0.00  0.00    +0.000 C 
ATOM      8  O   UNL     1       0.066   2.425  18.361  0.00  0.00    +0.000 OA
BRANCH   7   9
ATOM      9  C   UNL     1       1.512   4.146  19.192  0.00  0.00    +0.000 A 
ATOM     10  C   UNL     1       1.910   4.894  18.087  0.00  0.00    +0.000 A 
ATOM     11  C   UNL     1       2.275   6.225  18.283  0.00  0.00    +0.000 A 
ATOM     12  C   UNL     1       2.237   6.758  19.566  0.00  0.00    +0.000 A 
ATOM     13  C   UNL     1       1.838   5.938  20.611  0.00  0.00    +0.000 A 
ATOM     14  N   UNL     1       1.470   4.648  20.456  0.00  0.00    +0.000 NA
ENDBRANCH   7   9
ENDBRANCH   6   7
ENDBRANCH   5   6
ENDBRANCH   2   5
BRANCH   3  15
ATOM     15  C   UNL     1       5.763   4.105  17.935  0.00  0.00    +0.000 C 
BRANCH  15  16
ATOM     16  C   UNL     1       6.201   4.431  16.527  0.00  0.00    +0.000 A 
ATOM     17  C   UNL     1       5.827   3.566  15.481  0.00  0.00    +0.000 A 
ATOM     18  C   UNL     1       6.252   3.800  14.170  0.00  0.00    +0.000 A 
ATOM     19  C   UNL     1       7.064   4.895  13.891  0.00  0.00    +0.000 A 
ATOM     20 CL   UNL     1       7.620   5.162  12.286  0.00  0.00    +0.000 Cl
ATOM     21  C   UNL     1       7.437   5.771  14.908  0.00  0.00    +0.000 A 
ATOM     22  C   UNL     1       7.005   5.541  16.217  0.00  0.00    +0.000 A 
ATOM     23 CL   UNL     1       7.503   6.670  17.426  0.00  0.00    +0.000 Cl
ENDBRANCH  15  16
ENDBRANCH   3  15
TORSDOF 6
ENDMDL
MODEL 8
REMARK VINA RESULT:      -6.7      5.025      6.901
REMARK  Name = 
REMARK  6 active torsions:
REMARK  status: ('A' for Active; 'I' for Inactive)
REMARK    1  A    between atoms: C_2  and  C_3
REMARK    2  A    between atoms: C_3  and  O_4
REMARK    3  A    between atoms: O_4  and  C_5
REMARK    4  A    between atoms: C_5  and  C_7
REMARK    5  A    between atoms: N_13  and  C_14
REMARK    6  A    between atoms: C_14  and  C_15
REMARK                            x       y       z     vdW  Elec       q    Type
REMARK                         _______ _______ _______ _____ _____    ______ ____
ROOT
ATOM      1  O   UNL     1       7.652   7.491  16.712  0.00  0.00    +0.000 OA
ATOM      2  C   UNL     1       7.997   7.563  17.888  0.00  0.00    +0.000 C 
ATOM      3  N   UNL     1       8.428   8.735  18.476  0.00  0.00    +0.000 N 
ATOM      4  H   UNL     1       8.595   8.741  19.477  0.00  0.00    +0.000 HD
ENDROOT
BRANCH   2   5
ATOM      5  C   UNL     1       7.915   6.373  18.842  0.00  0.00    +0.000 C 
BRANCH   5   6
ATOM      6  O   UNL     1       6.644   5.726  18.832  0.00  0.00    +0.000 OA
BRANCH   6   7
ATOM      7  C   UNL     1       6.578   4.624  18.035  0.00  0.00    +0.000 C 
ATOM      8  O   UNL     1       7.463   4.234  17.290  0.00  0.00    +0.000 OA
BRANCH   7   9
ATOM      9  C   UNL     1       5.279   3.912  18.221  0.00  0.00    +0.000 A 
ATOM     10  C   UNL     1       4.335   3.958  17.198  0.00  0.00    +0.000 A 
ATOM     11  C   UNL     1       3.145   3.251  17.359  0.00  0.00    +0.000 A 
ATOM     12  C   UNL     1       2.936   2.531  18.530  0.00  0.00    +0.000 A 
ATOM     13  C   UNL     1       3.925   2.548  19.502  0.00  0.00    +0.000 A 
ATOM     14  N   UNL     1       5.093   3.216  19.376  0.00  0.00    +0.000 NA
ENDBRANCH   7   9
ENDBRANCH   6   7
ENDBRANCH   5   6
ENDBRANCH   2   5
BRANCH   3  15
ATOM     15  C   UNL     1       8.592   9.968  17.735  0.00  0.00    +0.000 C 
BRANCH  15  16
ATOM     16  C   UNL     1       9.056  11.087  18.637  0.00  0.00    +0.000 A 
ATOM     17  C   UNL     1       9.815  10.770  19.780  0.00  0.00    +0.000 A 
ATOM     18  C   UNL     1      10.223  11.767  20.670  0.00  0.00    +0.000 A 
ATOM     19  C   UNL     1       9.867  13.092  20.436  0.00  0.00    +0.000 A 
ATOM     20 CL   UNL     1      10.333  14.315  21.551  0.00  0.00    +0.000 Cl
ATOM     21  C   UNL     1       9.126  13.431  19.306  0.00  0.00    +0.000 A 
ATOM     22  C   UNL     1       8.726  12.434  18.412  0.00  0.00    +0.000 A 
ATOM     23 CL   UNL     1       7.813  12.929  17.031  0.00  0.00    +0.000 Cl
ENDBRANCH  15  16
ENDBRANCH   3  15
TORSDOF 6
ENDMDL
MODEL 9
REMARK VINA RESULT:      -6.7      4.198      6.359
REMARK  Name = 
REMARK  6 active torsions:
REMARK  status: ('A' for Active; 'I' for Inactive)
REMARK    1  A    between atoms: C_2  and  C_3
REMARK    2  A    between atoms: C_3  and  O_4
REMARK    3  A    between atoms: O_4  and  C_5
REMARK    4  A    between atoms: C_5  and  C_7
REMARK    5  A    between atoms: N_13  and  C_14
REMARK    6  A    between atoms: C_14  and  C_15
REMARK                            x       y       z     vdW  Elec       q    Type
REMARK                         _______ _______ _______ _____ _____    ______ ____
ROOT
ATOM      1  O   UNL     1       7.722   6.399  16.355  0.00  0.00    +0.000 OA
ATOM      2  C   UNL     1       7.262   7.172  17.191  0.00  0.00    +0.000 C 
ATOM      3  N   UNL     1       5.909   7.389  17.352  0.00  0.00    +0.000 N 
ATOM      4  H   UNL     1       5.600   7.960  18.132  0.00  0.00    +0.000 HD
ENDROOT
BRANCH   2   5
ATOM      5  C   UNL     1       8.143   7.921  18.189  0.00  0.00    +0.000 C 
BRANCH   5   6
ATOM      6  O   UNL     1       8.317   9.299  17.868  0.00  0.00    +0.000 OA
BRANCH   6   7
ATOM      7  C   UNL     1       8.945  10.028  18.832  0.00  0.00    +0.000 C 
ATOM      8  O   UNL     1       9.047   9.711  20.007  0.00  0.00    +0.000 OA
BRANCH   7   9
ATOM      9  C   UNL     1       9.543  11.268  18.255  0.00  0.00    +0.000 A 
ATOM     10  C   UNL     1      10.917  11.311  18.033  0.00  0.00    +0.000 A 
ATOM     11  C   UNL     1      11.461  12.454  17.449  0.00  0.00    +0.000 A 
ATOM     12  C   UNL     1      10.622  13.510  17.113  0.00  0.00    +0.000 A 
ATOM     13  C   UNL     1       9.267  13.387  17.379  0.00  0.00    +0.000 A 
ATOM     14  N   UNL     1       8.705  12.293  17.936  0.00  0.00    +0.000 NA
ENDBRANCH   7   9
ENDBRANCH   6   7
ENDBRANCH   5   6
ENDBRANCH   2   5
BRANCH   3  15
ATOM     15  C   UNL     1       4.912   6.786  16.493  0.00  0.00    +0.000 C 
BRANCH  15  16
ATOM     16  C   UNL     1       4.172   5.681  17.210  0.00  0.00    +0.000 A 
ATOM     17  C   UNL     1       4.589   4.350  17.023  0.00  0.00    +0.000 A 
ATOM     18  C   UNL     1       3.903   3.291  17.624  0.00  0.00    +0.000 A 
ATOM     19  C   UNL     1       2.785   3.550  18.411  0.00  0.00    +0.000 A 
ATOM     20 CL   UNL     1       1.915   2.247  19.120  0.00  0.00    +0.000 Cl
ATOM     21  C   UNL     1       2.360   4.860  18.620  0.00  0.00    +0.000 A 
ATOM     22  C   UNL     1       3.052   5.918  18.025  0.00  0.00    +0.000 A 
ATOM     23 CL   UNL     1       2.470   7.516  18.330  0.00  0.00    +0.000 Cl
ENDBRANCH  15  16
ENDBRANCH   3  15
TORSDOF 6
ENDMDL
