MODEL 1
REMARK VINA RESULT:      -6.6      0.000      0.000
REMARK  Name = 
REMARK  7 active torsions:
REMARK  status: ('A' for Active; 'I' for Inactive)
REMARK    1  A    between atoms: O_1  and  C_2
REMARK    2  A    between atoms: C_2  and  C_3
REMARK    3  A    between atoms: C_3  and  N_4
REMARK    4  A    between atoms: N_4  and  C_5
REMARK    5  A    between atoms: C_5  and  C_6
REMARK    6  A    between atoms: C_6  and  O_7
REMARK    7  A    between atoms: N_15  and  C_16
REMARK                            x       y       z     vdW  Elec       q    Type
REMARK                         _______ _______ _______ _____ _____    ______ ____
ROOT
ATOM      1  N   UNL     1       3.494   5.387  18.512  0.00  0.00    +0.000 N 
ATOM      2  C   UNL     1       2.717   6.524  18.661  0.00  0.00    +0.000 A 
ATOM      3  C   UNL     1       2.218   6.907  19.903  0.00  0.00    +0.000 A 
ATOM      4  C   UNL     1       1.667   8.158  20.106  0.00  0.00    +0.000 A 
ATOM      5  N   UNL     1       1.323   8.506  21.350  0.00  0.00    +0.000 NA
ATOM      6  C   UNL     1       0.910   9.763  21.529  0.00  0.00    +0.000 A 
ATOM      7  N   UNL     1       0.800  10.692  20.577  0.00  0.00    +0.000 NA
ATOM      8  C   UNL     1       1.129  10.325  19.324  0.00  0.00    +0.000 A 
ATOM      9  N   UNL     1       1.050  11.300  18.298  0.00  0.00    +0.000 N 
ATOM     10  C   UNL     1       1.562   9.025  19.028  0.00  0.00    +0.000 A 
ATOM     11  C   UNL     1       1.972   8.540  17.783  0.00  0.00    +0.000 A 
ATOM     12  N   UNL     1       2.521   7.319  17.592  0.00  0.00    +0.000 NA
ATOM     13  H   UNL     1       0.257  11.099  17.697  0.00  0.00    +0.000 HD
ENDROOT
BRANCH   9  14
ATOM     14  C   UNL     1       1.261  12.685  18.494  0.00  0.00    +0.000 A 
ATOM     15  C   UNL     1       0.180  13.536  18.760  0.00  0.00    +0.000 A 
ATOM     16  C   UNL     1       0.377  14.914  18.909  0.00  0.00    +0.000 A 
ATOM     17  C   UNL     1       1.651  15.463  18.766  0.00  0.00    +0.000 A 
ATOM     18  C   UNL     1       2.724  14.630  18.470  0.00  0.00    +0.000 A 
ATOM     19 BR   UNL     1       4.452  15.361  18.240  0.00  0.00    +0.000 Br
ATOM     20  C   UNL     1       2.536  13.257  18.327  0.00  0.00    +0.000 A 
ENDBRANCH   9  14
BRANCH   1  21
ATOM     21  C   UNL     1       4.245   4.836  19.651  0.00  0.00    +0.000 C 
BRANCH  21  22
ATOM     22  C   UNL     1       4.047   3.321  19.821  0.00  0.00    +0.000 C 
BRANCH  22  23
ATOM     23  O   UNL     1       5.243   2.620  19.500  0.00  0.00    +0.000 OA
ATOM     24  H   UNL     1       5.912   2.901  20.148  0.00  0.00    +0.000 HD
ENDBRANCH  22  23
ENDBRANCH  21  22
ENDBRANCH   1  21
BRANCH   1  25
ATOM     25  C   UNL     1       3.771   4.858  17.166  0.00  0.00    +0.000 C 
BRANCH  25  26
ATOM     26  C   UNL     1       5.227   4.974  16.697  0.00  0.00    +0.000 C 
BRANCH  26  27
ATOM     27  O   UNL     1       5.925   3.734  16.787  0.00  0.00    +0.000 OA
ATOM     28  H   UNL     1       5.647   3.237  15.998  0.00  0.00    +0.000 HD
ENDBRANCH  26  27
ENDBRANCH  25  26
ENDBRANCH   1  25
TORSDOF 7
ENDMDL
MODEL 2
REMARK VINA RESULT:      -6.5      1.037      1.189
REMARK  Name = 
REMARK  7 active torsions:
REMARK  status: ('A' for Active; 'I' for Inactive)
REMARK    1  A    between atoms: O_1  and  C_2
REMARK    2  A    between atoms: C_2  and  C_3
REMARK    3  A    between atoms: C_3  and  N_4
REMARK    4  A    between atoms: N_4  and  C_5
REMARK    5  A    between atoms: C_5  and  C_6
REMARK    6  A    between atoms: C_6  and  O_7
REMARK    7  A    between atoms: N_15  and  C_16
REMARK                            x       y       z     vdW  Elec       q    Type
REMARK                         _______ _______ _______ _____ _____    ______ ____
ROOT
ATOM      1  N   UNL     1       4.258   5.687  18.154  0.00  0.00    +0.000 N 
ATOM      2  C   UNL     1       3.284   6.651  18.360  0.00  0.00    +0.000 A 
ATOM      3  C   UNL     1       2.644   6.788  19.589  0.00  0.00    +0.000 A 
ATOM      4  C   UNL     1       1.871   7.894  19.882  0.00  0.00    +0.000 A 
ATOM      5  N   UNL     1       1.389   8.022  21.123  0.00  0.00    +0.000 NA
ATOM      6  C   UNL     1       0.750   9.160  21.404  0.00  0.00    +0.000 A 
ATOM      7  N   UNL     1       0.541  10.169  20.556  0.00  0.00    +0.000 NA
ATOM      8  C   UNL     1       1.012  10.021  19.302  0.00  0.00    +0.000 A 
ATOM      9  N   UNL     1       0.830  11.089  18.388  0.00  0.00    +0.000 N 
ATOM     10  C   UNL     1       1.685   8.858  18.902  0.00  0.00    +0.000 A 
ATOM     11  C   UNL     1       2.256   8.608  17.652  0.00  0.00    +0.000 A 
ATOM     12  N   UNL     1       3.022   7.528  17.373  0.00  0.00    +0.000 NA
ATOM     13  H   UNL     1       0.127  10.835  17.703  0.00  0.00    +0.000 HD
ENDROOT
BRANCH   9  14
ATOM     14  C   UNL     1       0.781  12.455  18.755  0.00  0.00    +0.000 A 
ATOM     15  C   UNL     1      -0.440  13.142  18.766  0.00  0.00    +0.000 A 
ATOM     16  C   UNL     1      -0.489  14.505  19.082  0.00  0.00    +0.000 A 
ATOM     17  C   UNL     1       0.684  15.205  19.365  0.00  0.00    +0.000 A 
ATOM     18  C   UNL     1       1.904  14.538  19.325  0.00  0.00    +0.000 A 
ATOM     19 BR   UNL     1       3.506  15.478  19.673  0.00  0.00    +0.000 Br
ATOM     20  C   UNL     1       1.958  13.180  19.016  0.00  0.00    +0.000 A 
ENDBRANCH   9  14
BRANCH   1  21
ATOM     21  C   UNL     1       5.017   5.131  19.285  0.00  0.00    +0.000 C 
BRANCH  21  22
ATOM     22  C   UNL     1       6.500   5.539  19.268  0.00  0.00    +0.000 C 
BRANCH  22  23
ATOM     23  O   UNL     1       7.304   4.482  18.755  0.00  0.00    +0.000 OA
ATOM     24  H   UNL     1       7.290   3.774  19.423  0.00  0.00    +0.000 HD
ENDBRANCH  22  23
ENDBRANCH  21  22
ENDBRANCH   1  21
BRANCH   1  25
ATOM     25  C   UNL     1       4.711   5.383  16.786  0.00  0.00    +0.000 C 
BRANCH  25  26
ATOM     26  C   UNL     1       4.747   3.894  16.418  0.00  0.00    +0.000 C 
BRANCH  26  27
ATOM     27  O   UNL     1       6.077   3.414  16.235  0.00  0.00    +0.000 OA
ATOM     28  H   UNL     1       6.003   2.447  16.308  0.00  0.00    +0.000 HD
ENDBRANCH  26  27
ENDBRANCH  25  26
ENDBRANCH   1  25
TORSDOF 7
ENDMDL
MODEL 3
REMARK VINA RESULT:      -6.4      1.079      1.228
REMARK  Name = 
REMARK  7 active torsions:
REMARK  status: ('A' for Active; 'I' for Inactive)
REMARK    1  A    between atoms: O_1  and  C_2
REMARK    2  A    between atoms: C_2  and  C_3
REMARK    3  A    between atoms: C_3  and  N_4
REMARK    4  A    between atoms: N_4  and  C_5
REMARK    5  A    between atoms: C_5  and  C_6
REMARK    6  A    between atoms: C_6  and  O_7
REMARK    7  A    between atoms: N_15  and  C_16
REMARK                            x       y       z     vdW  Elec       q    Type
REMARK                         _______ _______ _______ _____ _____    ______ ____
ROOT
ATOM      1  N   UNL     1       3.356   5.677  18.639  0.00  0.00    +0.000 N 
ATOM      2  C   UNL     1       2.548   6.788  18.813  0.00  0.00    +0.000 A 
ATOM      3  C   UNL     1       2.126   7.191  20.077  0.00  0.00    +0.000 A 
ATOM      4  C   UNL     1       1.544   8.426  20.285  0.00  0.00    +0.000 A 
ATOM      5  N   UNL     1       1.279   8.800  21.541  0.00  0.00    +0.000 NA
ATOM      6  C   UNL     1       0.830  10.046  21.715  0.00  0.00    +0.000 A 
ATOM      7  N   UNL     1       0.614  10.940  20.748  0.00  0.00    +0.000 NA
ATOM      8  C   UNL     1       0.865  10.547  19.484  0.00  0.00    +0.000 A 
ATOM      9  N   UNL     1       0.672  11.486  18.440  0.00  0.00    +0.000 N 
ATOM     10  C   UNL     1       1.325   9.255  19.194  0.00  0.00    +0.000 A 
ATOM     11  C   UNL     1       1.662   8.747  17.937  0.00  0.00    +0.000 A 
ATOM     12  N   UNL     1       2.242   7.541  17.739  0.00  0.00    +0.000 NA
ATOM     13  H   UNL     1      -0.154  11.237  17.906  0.00  0.00    +0.000 HD
ENDROOT
BRANCH   9  14
ATOM     14  C   UNL     1       0.843  12.883  18.581  0.00  0.00    +0.000 A 
ATOM     15  C   UNL     1      -0.267  13.717  18.771  0.00  0.00    +0.000 A 
ATOM     16  C   UNL     1      -0.109  15.105  18.864  0.00  0.00    +0.000 A 
ATOM     17  C   UNL     1       1.156  15.679  18.740  0.00  0.00    +0.000 A 
ATOM     18  C   UNL     1       2.259  14.862  18.519  0.00  0.00    +0.000 A 
ATOM     19 BR   UNL     1       3.976  15.626  18.316  0.00  0.00    +0.000 Br
ATOM     20  C   UNL     1       2.108  13.479  18.432  0.00  0.00    +0.000 A 
ENDBRANCH   9  14
BRANCH   1  21
ATOM     21  C   UNL     1       4.210   5.189  19.734  0.00  0.00    +0.000 C 
BRANCH  21  22
ATOM     22  C   UNL     1       5.694   5.109  19.344  0.00  0.00    +0.000 C 
BRANCH  22  23
ATOM     23  O   UNL     1       6.043   3.779  18.974  0.00  0.00    +0.000 OA
ATOM     24  H   UNL     1       5.742   3.658  18.056  0.00  0.00    +0.000 HD
ENDBRANCH  22  23
ENDBRANCH  21  22
ENDBRANCH   1  21
BRANCH   1  25
ATOM     25  C   UNL     1       3.553   5.117  17.291  0.00  0.00    +0.000 C 
BRANCH  25  26
ATOM     26  C   UNL     1       3.018   3.693  17.083  0.00  0.00    +0.000 C 
BRANCH  26  27
ATOM     27  O   UNL     1       1.606   3.614  17.264  0.00  0.00    +0.000 OA
ATOM     28  H   UNL     1       1.491   3.315  18.183  0.00  0.00    +0.000 HD
ENDBRANCH  26  27
ENDBRANCH  25  26
ENDBRANCH   1  25
TORSDOF 7
ENDMDL
MODEL 4
REMARK VINA RESULT:      -6.4      1.143      1.494
REMARK  Name = 
REMARK  7 active torsions:
REMARK  status: ('A' for Active; 'I' for Inactive)
REMARK    1  A    between atoms: O_1  and  C_2
REMARK    2  A    between atoms: C_2  and  C_3
REMARK    3  A    between atoms: C_3  and  N_4
REMARK    4  A    between atoms: N_4  and  C_5
REMARK    5  A    between atoms: C_5  and  C_6
REMARK    6  A    between atoms: C_6  and  O_7
REMARK    7  A    between atoms: N_15  and  C_16
REMARK                            x       y       z     vdW  Elec       q    Type
REMARK                         _______ _______ _______ _____ _____    ______ ____
ROOT
ATOM      1  N   UNL     1       3.596   5.511  18.454  0.00  0.00    +0.000 N 
ATOM      2  C   UNL     1       2.815   6.647  18.585  0.00  0.00    +0.000 A 
ATOM      3  C   UNL     1       2.227   6.991  19.799  0.00  0.00    +0.000 A 
ATOM      4  C   UNL     1       1.669   8.237  20.006  0.00  0.00    +0.000 A 
ATOM      5  N   UNL     1       1.236   8.544  21.233  0.00  0.00    +0.000 NA
ATOM      6  C   UNL     1       0.816   9.797  21.425  0.00  0.00    +0.000 A 
ATOM      7  N   UNL     1       0.780  10.760  20.501  0.00  0.00    +0.000 NA
ATOM      8  C   UNL     1       1.200  10.434  19.263  0.00  0.00    +0.000 A 
ATOM      9  N   UNL     1       1.201  11.445  18.269  0.00  0.00    +0.000 N 
ATOM     10  C   UNL     1       1.647   9.142  18.954  0.00  0.00    +0.000 A 
ATOM     11  C   UNL     1       2.146   8.698  17.727  0.00  0.00    +0.000 A 
ATOM     12  N   UNL     1       2.701   7.480  17.533  0.00  0.00    +0.000 NA
ATOM     13  H   UNL     1       0.454  11.271  17.605  0.00  0.00    +0.000 HD
ENDROOT
BRANCH   9  14
ATOM     14  C   UNL     1       1.403  12.821  18.529  0.00  0.00    +0.000 A 
ATOM     15  C   UNL     1       2.697  13.356  18.550  0.00  0.00    +0.000 A 
ATOM     16  C   UNL     1       2.907  14.707  18.853  0.00  0.00    +0.000 A 
ATOM     17  C   UNL     1       1.828  15.533  19.168  0.00  0.00    +0.000 A 
ATOM     18  C   UNL     1       0.543  15.002  19.181  0.00  0.00    +0.000 A 
ATOM     19 BR   UNL     1      -0.928  16.099  19.638  0.00  0.00    +0.000 Br
ATOM     20  C   UNL     1       0.328  13.660  18.874  0.00  0.00    +0.000 A 
ENDBRANCH   9  14
BRANCH   1  21
ATOM     21  C   UNL     1       4.258   4.914  19.625  0.00  0.00    +0.000 C 
BRANCH  21  22
ATOM     22  C   UNL     1       3.984   3.408  19.765  0.00  0.00    +0.000 C 
BRANCH  22  23
ATOM     23  O   UNL     1       5.167   2.658  19.516  0.00  0.00    +0.000 OA
ATOM     24  H   UNL     1       4.989   1.750  19.820  0.00  0.00    +0.000 HD
ENDBRANCH  22  23
ENDBRANCH  21  22
ENDBRANCH   1  21
BRANCH   1  25
ATOM     25  C   UNL     1       3.968   5.027  17.113  0.00  0.00    +0.000 C 
BRANCH  25  26
ATOM     26  C   UNL     1       5.474   4.986  16.821  0.00  0.00    +0.000 C 
BRANCH  26  27
ATOM     27  O   UNL     1       5.974   3.654  16.740  0.00  0.00    +0.000 OA
ATOM     28  H   UNL     1       6.765   3.652  17.307  0.00  0.00    +0.000 HD
ENDBRANCH  26  27
ENDBRANCH  25  26
ENDBRANCH   1  25
TORSDOF 7
ENDMDL
MODEL 5
REMARK VINA RESULT:      -6.3      1.534      1.905
REMARK  Name = 
REMARK  7 active torsions:
REMARK  status: ('A' for Active; 'I' for Inactive)
REMARK    1  A    between atoms: O_1  and  C_2
REMARK    2  A    between atoms: C_2  and  C_3
REMARK    3  A    between atoms: C_3  and  N_4
REMARK    4  A    between atoms: N_4  and  C_5
REMARK    5  A    between atoms: C_5  and  C_6
REMARK    6  A    between atoms: C_6  and  O_7
REMARK    7  A    between atoms: N_15  and  C_16
REMARK                            x       y       z     vdW  Elec       q    Type
REMARK                         _______ _______ _______ _____ _____    ______ ____
ROOT
ATOM      1  N   UNL     1       3.217   5.648  18.660  0.00  0.00    +0.000 N 
ATOM      2  C   UNL     1       2.482   6.816  18.785  0.00  0.00    +0.000 A 
ATOM      3  C   UNL     1       2.030   7.262  20.024  0.00  0.00    +0.000 A 
ATOM      4  C   UNL     1       1.528   8.538  20.193  0.00  0.00    +0.000 A 
ATOM      5  N   UNL     1       1.230   8.944  21.432  0.00  0.00    +0.000 NA
ATOM      6  C   UNL     1       0.864  10.221  21.573  0.00  0.00    +0.000 A 
ATOM      7  N   UNL     1       0.758  11.116  20.589  0.00  0.00    +0.000 NA
ATOM      8  C   UNL     1       1.040  10.691  19.342  0.00  0.00    +0.000 A 
ATOM      9  N   UNL     1       0.965  11.629  18.282  0.00  0.00    +0.000 N 
ATOM     10  C   UNL     1       1.421   9.366  19.085  0.00  0.00    +0.000 A 
ATOM     11  C   UNL     1       1.780   8.821  17.850  0.00  0.00    +0.000 A 
ATOM     12  N   UNL     1       2.282   7.575  17.692  0.00  0.00    +0.000 NA
ATOM     13  H   UNL     1       0.149  11.432  17.711  0.00  0.00    +0.000 HD
ENDROOT
BRANCH   9  14
ATOM     14  C   UNL     1       1.227  13.012  18.419  0.00  0.00    +0.000 A 
ATOM     15  C   UNL     1       2.539  13.496  18.345  0.00  0.00    +0.000 A 
ATOM     16  C   UNL     1       2.809  14.858  18.526  0.00  0.00    +0.000 A 
ATOM     17  C   UNL     1       1.774  15.748  18.812  0.00  0.00    +0.000 A 
ATOM     18  C   UNL     1       0.473  15.272  18.920  0.00  0.00    +0.000 A 
ATOM     19 BR   UNL     1      -0.937  16.459  19.340  0.00  0.00    +0.000 Br
ATOM     20  C   UNL     1       0.197  13.918  18.734  0.00  0.00    +0.000 A 
ENDBRANCH   9  14
BRANCH   1  21
ATOM     21  C   UNL     1       3.981   5.114  19.799  0.00  0.00    +0.000 C 
BRANCH  21  22
ATOM     22  C   UNL     1       5.403   4.678  19.413  0.00  0.00    +0.000 C 
BRANCH  22  23
ATOM     23  O   UNL     1       5.504   3.258  19.399  0.00  0.00    +0.000 OA
ATOM     24  H   UNL     1       5.213   2.968  18.516  0.00  0.00    +0.000 HD
ENDBRANCH  22  23
ENDBRANCH  21  22
ENDBRANCH   1  21
BRANCH   1  25
ATOM     25  C   UNL     1       3.437   5.059  17.328  0.00  0.00    +0.000 C 
BRANCH  25  26
ATOM     26  C   UNL     1       2.764   3.701  17.087  0.00  0.00    +0.000 C 
BRANCH  26  27
ATOM     27  O   UNL     1       1.387   3.707  17.455  0.00  0.00    +0.000 OA
ATOM     28  H   UNL     1       0.934   4.139  16.709  0.00  0.00    +0.000 HD
ENDBRANCH  26  27
ENDBRANCH  25  26
ENDBRANCH   1  25
TORSDOF 7
ENDMDL
MODEL 6
REMARK VINA RESULT:      -6.2      1.995      2.783
REMARK  Name = 
REMARK  7 active torsions:
REMARK  status: ('A' for Active; 'I' for Inactive)
REMARK    1  A    between atoms: O_1  and  C_2
REMARK    2  A    between atoms: C_2  and  C_3
REMARK    3  A    between atoms: C_3  and  N_4
REMARK    4  A    between atoms: N_4  and  C_5
REMARK    5  A    between atoms: C_5  and  C_6
REMARK    6  A    between atoms: C_6  and  O_7
REMARK    7  A    between atoms: N_15  and  C_16
REMARK                            x       y       z     vdW  Elec       q    Type
REMARK                         _______ _______ _______ _____ _____    ______ ____
ROOT
ATOM      1  N   UNL     1       6.363   5.199  17.248  0.00  0.00    +0.000 N 
ATOM      2  C   UNL     1       5.150   5.828  17.475  0.00  0.00    +0.000 A 
ATOM      3  C   UNL     1       4.411   5.587  18.630  0.00  0.00    +0.000 A 
ATOM      4  C   UNL     1       3.344   6.389  18.985  0.00  0.00    +0.000 A 
ATOM      5  N   UNL     1       2.758   6.179  20.169  0.00  0.00    +0.000 NA
ATOM      6  C   UNL     1       1.811   7.048  20.533  0.00  0.00    +0.000 A 
ATOM      7  N   UNL     1       1.395   8.095  19.817  0.00  0.00    +0.000 NA
ATOM      8  C   UNL     1       1.978   8.285  18.617  0.00  0.00    +0.000 A 
ATOM      9  N   UNL     1       1.575   9.406  17.848  0.00  0.00    +0.000 N 
ATOM     10  C   UNL     1       2.972   7.421  18.136  0.00  0.00    +0.000 A 
ATOM     11  C   UNL     1       3.677   7.540  16.937  0.00  0.00    +0.000 A 
ATOM     12  N   UNL     1       4.729   6.759  16.598  0.00  0.00    +0.000 NA
ATOM     13  H   UNL     1       1.020   9.095  17.058  0.00  0.00    +0.000 HD
ENDROOT
BRANCH   9  14
ATOM     14  C   UNL     1       1.126  10.631  18.396  0.00  0.00    +0.000 A 
ATOM     15  C   UNL     1      -0.231  10.823  18.682  0.00  0.00    +0.000 A 
ATOM     16  C   UNL     1      -0.689  12.049  19.180  0.00  0.00    +0.000 A 
ATOM     17  C   UNL     1       0.200  13.107  19.371  0.00  0.00    +0.000 A 
ATOM     18  C   UNL     1       1.543  12.935  19.058  0.00  0.00    +0.000 A 
ATOM     19 BR   UNL     1       2.756  14.368  19.279  0.00  0.00    +0.000 Br
ATOM     20  C   UNL     1       2.005  11.715  18.568  0.00  0.00    +0.000 A 
ENDBRANCH   9  14
BRANCH   1  21
ATOM     21  C   UNL     1       7.163   4.680  18.369  0.00  0.00    +0.000 C 
BRANCH  21  22
ATOM     22  C   UNL     1       7.901   5.786  19.140  0.00  0.00    +0.000 C 
BRANCH  22  23
ATOM     23  O   UNL     1       8.007   5.451  20.519  0.00  0.00    +0.000 OA
ATOM     24  H   UNL     1       8.956   5.348  20.707  0.00  0.00    +0.000 HD
ENDBRANCH  22  23
ENDBRANCH  21  22
ENDBRANCH   1  21
BRANCH   1  25
ATOM     25  C   UNL     1       6.980   5.256  15.911  0.00  0.00    +0.000 C 
BRANCH  25  26
ATOM     26  C   UNL     1       6.481   4.207  14.909  0.00  0.00    +0.000 C 
BRANCH  26  27
ATOM     27  O   UNL     1       6.044   3.011  15.550  0.00  0.00    +0.000 OA
ATOM     28  H   UNL     1       5.154   2.849  15.191  0.00  0.00    +0.000 HD
ENDBRANCH  26  27
ENDBRANCH  25  26
ENDBRANCH   1  25
TORSDOF 7
ENDMDL
MODEL 7
REMARK VINA RESULT:      -6.1      2.126      2.486
REMARK  Name = 
REMARK  7 active torsions:
REMARK  status: ('A' for Active; 'I' for Inactive)
REMARK    1  A    between atoms: O_1  and  C_2
REMARK    2  A    between atoms: C_2  and  C_3
REMARK    3  A    between atoms: C_3  and  N_4
REMARK    4  A    between atoms: N_4  and  C_5
REMARK    5  A    between atoms: C_5  and  C_6
REMARK    6  A    between atoms: C_6  and  O_7
REMARK    7  A    between atoms: N_15  and  C_16
REMARK                            x       y       z     vdW  Elec       q    Type
REMARK                         _______ _______ _______ _____ _____    ______ ____
ROOT
ATOM      1  N   UNL     1       5.026   5.463  17.853  0.00  0.00    +0.000 N 
ATOM      2  C   UNL     1       3.937   6.289  18.081  0.00  0.00    +0.000 A 
ATOM      3  C   UNL     1       3.241   6.259  19.286  0.00  0.00    +0.000 A 
ATOM      4  C   UNL     1       2.330   7.243  19.619  0.00  0.00    +0.000 A 
ATOM      5  N   UNL     1       1.792   7.223  20.843  0.00  0.00    +0.000 NA
ATOM      6  C   UNL     1       1.011   8.255  21.172  0.00  0.00    +0.000 A 
ATOM      7  N   UNL     1       0.714   9.292  20.386  0.00  0.00    +0.000 NA
ATOM      8  C   UNL     1       1.245   9.292  19.148  0.00  0.00    +0.000 A 
ATOM      9  N   UNL     1       0.970  10.396  18.302  0.00  0.00    +0.000 N 
ATOM     10  C   UNL     1       2.067   8.248  18.700  0.00  0.00    +0.000 A 
ATOM     11  C   UNL     1       2.708   8.158  17.462  0.00  0.00    +0.000 A 
ATOM     12  N   UNL     1       3.608   7.199  17.145  0.00  0.00    +0.000 NA
ATOM     13  H   UNL     1       0.328  10.112  17.570  0.00  0.00    +0.000 HD
ENDROOT
BRANCH   9  14
ATOM     14  C   UNL     1       0.744  11.715  18.759  0.00  0.00    +0.000 A 
ATOM     15  C   UNL     1       1.771  12.666  18.715  0.00  0.00    +0.000 A 
ATOM     16  C   UNL     1       1.567  13.961  19.209  0.00  0.00    +0.000 A 
ATOM     17  C   UNL     1       0.343  14.312  19.779  0.00  0.00    +0.000 A 
ATOM     18  C   UNL     1      -0.671  13.364  19.856  0.00  0.00    +0.000 A 
ATOM     19 BR   UNL     1      -2.325  13.813  20.655  0.00  0.00    +0.000 Br
ATOM     20  C   UNL     1      -0.476  12.076  19.360  0.00  0.00    +0.000 A 
ENDBRANCH   9  14
BRANCH   1  21
ATOM     21  C   UNL     1       5.805   4.918  18.976  0.00  0.00    +0.000 C 
BRANCH  21  22
ATOM     22  C   UNL     1       7.240   5.467  19.031  0.00  0.00    +0.000 C 
BRANCH  22  23
ATOM     23  O   UNL     1       7.732   5.451  20.366  0.00  0.00    +0.000 OA
ATOM     24  H   UNL     1       7.043   5.031  20.910  0.00  0.00    +0.000 HD
ENDBRANCH  22  23
ENDBRANCH  21  22
ENDBRANCH   1  21
BRANCH   1  25
ATOM     25  C   UNL     1       5.562   5.315  16.489  0.00  0.00    +0.000 C 
BRANCH  25  26
ATOM     26  C   UNL     1       5.483   3.901  15.898  0.00  0.00    +0.000 C 
BRANCH  26  27
ATOM     27  O   UNL     1       6.436   3.694  14.859  0.00  0.00    +0.000 OA
ATOM     28  H   UNL     1       6.952   4.519  14.829  0.00  0.00    +0.000 HD
ENDBRANCH  26  27
ENDBRANCH  25  26
ENDBRANCH   1  25
TORSDOF 7
ENDMDL
MODEL 8
REMARK VINA RESULT:      -6.1      3.040      4.035
REMARK  Name = 
REMARK  7 active torsions:
REMARK  status: ('A' for Active; 'I' for Inactive)
REMARK    1  A    between atoms: O_1  and  C_2
REMARK    2  A    between atoms: C_2  and  C_3
REMARK    3  A    between atoms: C_3  and  N_4
REMARK    4  A    between atoms: N_4  and  C_5
REMARK    5  A    between atoms: C_5  and  C_6
REMARK    6  A    between atoms: C_6  and  O_7
REMARK    7  A    between atoms: N_15  and  C_16
REMARK                            x       y       z     vdW  Elec       q    Type
REMARK                         _______ _______ _______ _____ _____    ______ ____
ROOT
ATOM      1  N   UNL     1       2.812   4.180  19.686  0.00  0.00    +0.000 N 
ATOM      2  C   UNL     1       2.572   5.542  19.765  0.00  0.00    +0.000 A 
ATOM      3  C   UNL     1       2.927   6.405  18.732  0.00  0.00    +0.000 A 
ATOM      4  C   UNL     1       2.468   7.706  18.686  0.00  0.00    +0.000 A 
ATOM      5  N   UNL     1       2.744   8.440  17.603  0.00  0.00    +0.000 NA
ATOM      6  C   UNL     1       2.182   9.650  17.539  0.00  0.00    +0.000 A 
ATOM      7  N   UNL     1       1.383  10.191  18.462  0.00  0.00    +0.000 NA
ATOM      8  C   UNL     1       1.128   9.451  19.558  0.00  0.00    +0.000 A 
ATOM      9  N   UNL     1       0.259   9.989  20.541  0.00  0.00    +0.000 N 
ATOM     10  C   UNL     1       1.680   8.174  19.729  0.00  0.00    +0.000 A 
ATOM     11  C   UNL     1       1.456   7.298  20.794  0.00  0.00    +0.000 A 
ATOM     12  N   UNL     1       1.899   6.021  20.828  0.00  0.00    +0.000 NA
ATOM     13  H   UNL     1       0.796  10.254  21.361  0.00  0.00    +0.000 HD
ENDROOT
BRANCH   9  14
ATOM     14  C   UNL     1      -0.809  10.874  20.265  0.00  0.00    +0.000 A 
ATOM     15  C   UNL     1      -1.175  11.855  21.195  0.00  0.00    +0.000 A 
ATOM     16  C   UNL     1      -2.261  12.703  20.948  0.00  0.00    +0.000 A 
ATOM     17  C   UNL     1      -3.012  12.563  19.781  0.00  0.00    +0.000 A 
ATOM     18  C   UNL     1      -2.675  11.571  18.867  0.00  0.00    +0.000 A 
ATOM     19 BR   UNL     1      -3.702  11.345  17.296  0.00  0.00    +0.000 Br
ATOM     20  C   UNL     1      -1.592  10.727  19.105  0.00  0.00    +0.000 A 
ENDBRANCH   9  14
BRANCH   1  21
ATOM     21  C   UNL     1       2.957   3.516  18.380  0.00  0.00    +0.000 C 
BRANCH  21  22
ATOM     22  C   UNL     1       4.252   2.697  18.267  0.00  0.00    +0.000 C 
BRANCH  22  23
ATOM     23  O   UNL     1       5.338   3.390  18.873  0.00  0.00    +0.000 OA
ATOM     24  H   UNL     1       5.088   4.331  18.896  0.00  0.00    +0.000 HD
ENDBRANCH  22  23
ENDBRANCH  21  22
ENDBRANCH   1  21
BRANCH   1  25
ATOM     25  C   UNL     1       2.685   3.342  20.890  0.00  0.00    +0.000 C 
BRANCH  25  26
ATOM     26  C   UNL     1       1.290   2.752  21.140  0.00  0.00    +0.000 C 
BRANCH  26  27
ATOM     27  O   UNL     1       0.304   3.308  20.273  0.00  0.00    +0.000 OA
ATOM     28  H   UNL     1       0.273   2.702  19.513  0.00  0.00    +0.000 HD
ENDBRANCH  26  27
ENDBRANCH  25  26
ENDBRANCH   1  25
TORSDOF 7
ENDMDL
MODEL 9
REMARK VINA RESULT:      -6.1      2.940      4.049
REMARK  Name = 
REMARK  7 active torsions:
REMARK  status: ('A' for Active; 'I' for Inactive)
REMARK    1  A    between atoms: O_1  and  C_2
REMARK    2  A    between atoms: C_2  and  C_3
REMARK    3  A    between atoms: C_3  and  N_4
REMARK    4  A    between atoms: N_4  and  C_5
REMARK    5  A    between atoms: C_5  and  C_6
REMARK    6  A    between atoms: C_6  and  O_7
REMARK    7  A    between atoms: N_15  and  C_16
REMARK                            x       y       z     vdW  Elec       q    Type
REMARK                         _______ _______ _______ _____ _____    ______ ____
ROOT
ATOM      1  N   UNL     1       2.737   4.538  19.152  0.00  0.00    +0.000 N 
ATOM      2  C   UNL     1       2.498   5.875  19.426  0.00  0.00    +0.000 A 
ATOM      3  C   UNL     1       2.727   6.865  18.475  0.00  0.00    +0.000 A 
ATOM      4  C   UNL     1       2.255   8.152  18.644  0.00  0.00    +0.000 A 
ATOM      5  N   UNL     1       2.401   9.019  17.636  0.00  0.00    +0.000 NA
ATOM      6  C   UNL     1       1.826  10.216  17.786  0.00  0.00    +0.000 A 
ATOM      7  N   UNL     1       1.133  10.621  18.852  0.00  0.00    +0.000 NA
ATOM      8  C   UNL     1       1.010   9.747  19.870  0.00  0.00    +0.000 A 
ATOM      9  N   UNL     1       0.254  10.141  21.003  0.00  0.00    +0.000 N 
ATOM     10  C   UNL     1       1.588   8.471  19.818  0.00  0.00    +0.000 A 
ATOM     11  C   UNL     1       1.492   7.467  20.784  0.00  0.00    +0.000 A 
ATOM     12  N   UNL     1       1.946   6.204  20.609  0.00  0.00    +0.000 NA
ATOM     13  H   UNL     1       0.878  10.316  21.784  0.00  0.00    +0.000 HD
ENDROOT
BRANCH   9  14
ATOM     14  C   UNL     1      -0.845  11.030  20.960  0.00  0.00    +0.000 A 
ATOM     15  C   UNL     1      -1.447  11.354  19.738  0.00  0.00    +0.000 A 
ATOM     16  C   UNL     1      -2.505  12.270  19.683  0.00  0.00    +0.000 A 
ATOM     17  C   UNL     1      -2.956  12.894  20.847  0.00  0.00    +0.000 A 
ATOM     18  C   UNL     1      -2.342  12.603  22.060  0.00  0.00    +0.000 A 
ATOM     19 BR   UNL     1      -2.918  13.464  23.641  0.00  0.00    +0.000 Br
ATOM     20  C   UNL     1      -1.293  11.688  22.120  0.00  0.00    +0.000 A 
ENDBRANCH   9  14
BRANCH   1  21
ATOM     21  C   UNL     1       2.738   4.043  17.766  0.00  0.00    +0.000 C 
BRANCH  21  22
ATOM     22  C   UNL     1       4.117   3.537  17.313  0.00  0.00    +0.000 C 
BRANCH  22  23
ATOM     23  O   UNL     1       4.261   2.150  17.601  0.00  0.00    +0.000 OA
ATOM     24  H   UNL     1       5.087   1.862  17.173  0.00  0.00    +0.000 HD
ENDBRANCH  22  23
ENDBRANCH  21  22
ENDBRANCH   1  21
BRANCH   1  25
ATOM     25  C   UNL     1       2.754   3.556  20.249  0.00  0.00    +0.000 C 
BRANCH  25  26
ATOM     26  C   UNL     1       1.555   2.599  20.298  0.00  0.00    +0.000 C 
BRANCH  26  27
ATOM     27  O   UNL     1       0.310   3.294  20.319  0.00  0.00    +0.000 OA
ATOM     28  H   UNL     1       0.395   3.932  21.048  0.00  0.00    +0.000 HD
ENDBRANCH  26  27
ENDBRANCH  25  26
ENDBRANCH   1  25
TORSDOF 7
ENDMDL
