MODEL 1
REMARK VINA RESULT:      -8.4      0.000      0.000
REMARK  Name = 
REMARK  7 active torsions:
REMARK  status: ('A' for Active; 'I' for Inactive)
REMARK    1  A    between atoms: C_1  and  C_2
REMARK    2  A    between atoms: C_5  and  C_6
REMARK    3  A    between atoms: C_8  and  C_9
REMARK    4  A    between atoms: N_11  and  C_12
REMARK    5  A    between atoms: C_12  and  C_13
REMARK    6  A    between atoms: C_12  and  C_14
REMARK    7  A    between atoms: C_21  and  N_22
REMARK                            x       y       z     vdW  Elec       q    Type
REMARK                         _______ _______ _______ _____ _____    ______ ____
ROOT
ATOM      1  C   UNL     1      -0.420  10.968  18.519  0.00  0.00    +0.000 A 
ATOM      2  C   UNL     1       0.353   9.849  18.145  0.00  0.00    +0.000 A 
ATOM      3  C   UNL     1       1.731   9.830  18.239  0.00  0.00    +0.000 A 
ATOM      4  C   UNL     1       2.305  11.108  18.588  0.00  0.00    +0.000 A 
ATOM      5  C   UNL     1       1.518  12.406  18.850  0.00  0.00    +0.000 A 
ATOM      6  C   UNL     1       0.161  12.219  18.898  0.00  0.00    +0.000 A 
ENDROOT
BRANCH   5   7
ATOM      7  N   UNL     1       2.147  13.746  19.078  0.00  0.00    +0.000 N 
ATOM      8  C   UNL     1       1.947  14.185  20.382  0.00  0.00    +0.000 A 
ATOM      9  O   UNL     1       2.063  13.489  21.361  0.00  0.00    +0.000 OA
ATOM     10  O   UNL     1       1.838  15.539  20.437  0.00  0.00    +0.000 OA
ATOM     11  C   UNL     1       2.919  15.751  19.634  0.00  0.00    +0.000 A 
ATOM     12  C   UNL     1       3.707  16.849  20.037  0.00  0.00    +0.000 A 
ATOM     13  C   UNL     1       4.944  16.993  19.476  0.00  0.00    +0.000 A 
ATOM     14  C   UNL     1       5.280  16.082  18.465  0.00  0.00    +0.000 A 
ATOM     15  C   UNL     1       4.388  14.972  18.025  0.00  0.00    +0.000 A 
ATOM     16  C   UNL     1       3.181  14.724  18.707  0.00  0.00    +0.000 A 
ENDBRANCH   5   7
BRANCH   1  21
ATOM     17  C   UNL     1      -6.034  11.150  17.948  0.00  0.00    +0.000 C 
ATOM     18  C   UNL     1      -4.574  10.986  18.111  0.00  0.00    +0.000 A 
ATOM     19  C   UNL     1      -3.860   9.997  17.440  0.00  0.00    +0.000 A 
ATOM     20  C   UNL     1      -2.497   9.912  17.595  0.00  0.00    +0.000 A 
ATOM     21  C   UNL     1      -1.869  10.859  18.406  0.00  0.00    +0.000 A 
ATOM     22  N   UNL     1      -2.530  11.823  19.083  0.00  0.00    +0.000 NA
ATOM     23  C   UNL     1      -3.857  11.873  18.908  0.00  0.00    +0.000 A 
ENDBRANCH   1  21
BRANCH   3  24
ATOM     24  C   UNL     1       2.290   8.416  17.908  0.00  0.00    +0.000 C 
ATOM     25  O   UNL     1       2.796   8.247  16.801  0.00  0.00    +0.000 OA
ATOM     26  N   UNL     1       2.241   7.357  18.800  0.00  0.00    +0.000 N 
ATOM     27  H   UNL     1       1.679   7.441  19.632  0.00  0.00    +0.000 HD
BRANCH  26  28
ATOM     28  C   UNL     1       2.693   5.973  18.439  0.00  0.00    +0.000 C 
ATOM     29  C   UNL     1       4.227   5.893  18.496  0.00  0.00    +0.000 C 
BRANCH  28  30
ATOM     30  C   UNL     1       2.131   4.899  19.367  0.00  0.00    +0.000 A 
ATOM     31  C   UNL     1       1.313   3.871  18.891  0.00  0.00    +0.000 A 
ATOM     32  N   UNL     1       0.864   2.852  19.672  0.00  0.00    +0.000 NA
ATOM     33  C   UNL     1       1.266   2.894  20.961  0.00  0.00    +0.000 A 
ATOM     34  C   UNL     1       2.084   3.899  21.444  0.00  0.00    +0.000 A 
ATOM     35  N   UNL     1       2.530   4.916  20.670  0.00  0.00    +0.000 NA
ENDBRANCH  28  30
ENDBRANCH  26  28
ENDBRANCH   3  24
TORSDOF 5
ENDMDL
MODEL 2
REMARK VINA RESULT:      -8.3      2.441      6.773
REMARK  Name = 
REMARK  7 active torsions:
REMARK  status: ('A' for Active; 'I' for Inactive)
REMARK    1  A    between atoms: C_1  and  C_2
REMARK    2  A    between atoms: C_5  and  C_6
REMARK    3  A    between atoms: C_8  and  C_9
REMARK    4  A    between atoms: N_11  and  C_12
REMARK    5  A    between atoms: C_12  and  C_13
REMARK    6  A    between atoms: C_12  and  C_14
REMARK    7  A    between atoms: C_21  and  N_22
REMARK                            x       y       z     vdW  Elec       q    Type
REMARK                         _______ _______ _______ _____ _____    ______ ____
ROOT
ATOM      1  C   UNL     1       0.612  12.276  18.801  0.00  0.00    +0.000 A 
ATOM      2  C   UNL     1       1.091  11.118  19.447  0.00  0.00    +0.000 A 
ATOM      3  C   UNL     1       0.300  10.007  19.672  0.00  0.00    +0.000 A 
ATOM      4  C   UNL     1      -1.091  10.212  19.341  0.00  0.00    +0.000 A 
ATOM      5  C   UNL     1      -1.701  11.512  18.783  0.00  0.00    +0.000 A 
ATOM      6  C   UNL     1      -0.763  12.452  18.446  0.00  0.00    +0.000 A 
ENDROOT
BRANCH   5   7
ATOM      7  N   UNL     1      -3.167  11.738  18.576  0.00  0.00    +0.000 N 
ATOM      8  C   UNL     1      -3.653  10.980  17.517  0.00  0.00    +0.000 A 
ATOM      9  O   UNL     1      -3.369   9.824  17.319  0.00  0.00    +0.000 OA
ATOM     10  O   UNL     1      -4.662  11.623  16.871  0.00  0.00    +0.000 OA
ATOM     11  C   UNL     1      -5.304  11.967  18.023  0.00  0.00    +0.000 A 
ATOM     12  C   UNL     1      -6.708  11.879  17.928  0.00  0.00    +0.000 A 
ATOM     13  C   UNL     1      -7.437  11.941  19.082  0.00  0.00    +0.000 A 
ATOM     14  C   UNL     1      -6.718  12.189  20.259  0.00  0.00    +0.000 A 
ATOM     15  C   UNL     1      -5.236  12.339  20.306  0.00  0.00    +0.000 A 
ATOM     16  C   UNL     1      -4.468  12.121  19.146  0.00  0.00    +0.000 A 
ENDBRANCH   5   7
BRANCH   1  21
ATOM     17  C   UNL     1       4.093  16.714  18.556  0.00  0.00    +0.000 C 
ATOM     18  C   UNL     1       3.224  15.518  18.516  0.00  0.00    +0.000 A 
ATOM     19  C   UNL     1       3.712  14.259  18.175  0.00  0.00    +0.000 A 
ATOM     20  C   UNL     1       2.872  13.172  18.192  0.00  0.00    +0.000 A 
ATOM     21  C   UNL     1       1.549  13.372  18.591  0.00  0.00    +0.000 A 
ATOM     22  N   UNL     1       1.038  14.580  18.914  0.00  0.00    +0.000 NA
ATOM     23  C   UNL     1       1.886  15.616  18.885  0.00  0.00    +0.000 A 
ENDBRANCH   1  21
BRANCH   3  24
ATOM     24  C   UNL     1       1.141   8.836  20.256  0.00  0.00    +0.000 C 
ATOM     25  O   UNL     1       1.373   8.846  21.463  0.00  0.00    +0.000 OA
ATOM     26  N   UNL     1       1.630   7.798  19.480  0.00  0.00    +0.000 N 
ATOM     27  H   UNL     1       1.592   7.875  18.476  0.00  0.00    +0.000 HD
BRANCH  26  28
ATOM     28  C   UNL     1       2.521   6.725  20.032  0.00  0.00    +0.000 C 
ATOM     29  C   UNL     1       1.672   5.542  20.522  0.00  0.00    +0.000 C 
BRANCH  28  30
ATOM     30  C   UNL     1       3.523   6.194  19.009  0.00  0.00    +0.000 A 
ATOM     31  C   UNL     1       3.695   6.803  17.763  0.00  0.00    +0.000 A 
ATOM     32  N   UNL     1       4.636   6.409  16.864  0.00  0.00    +0.000 NA
ATOM     33  C   UNL     1       5.411   5.374  17.256  0.00  0.00    +0.000 A 
ATOM     34  C   UNL     1       5.260   4.769  18.491  0.00  0.00    +0.000 A 
ATOM     35  N   UNL     1       4.322   5.157  19.387  0.00  0.00    +0.000 NA
ENDBRANCH  28  30
ENDBRANCH  26  28
ENDBRANCH   3  24
TORSDOF 5
ENDMDL
MODEL 3
REMARK VINA RESULT:      -8.2      2.430      6.867
REMARK  Name = 
REMARK  7 active torsions:
REMARK  status: ('A' for Active; 'I' for Inactive)
REMARK    1  A    between atoms: C_1  and  C_2
REMARK    2  A    between atoms: C_5  and  C_6
REMARK    3  A    between atoms: C_8  and  C_9
REMARK    4  A    between atoms: N_11  and  C_12
REMARK    5  A    between atoms: C_12  and  C_13
REMARK    6  A    between atoms: C_12  and  C_14
REMARK    7  A    between atoms: C_21  and  N_22
REMARK                            x       y       z     vdW  Elec       q    Type
REMARK                         _______ _______ _______ _____ _____    ______ ____
ROOT
ATOM      1  C   UNL     1       0.712  12.327  18.809  0.00  0.00    +0.000 A 
ATOM      2  C   UNL     1       1.231  11.090  19.246  0.00  0.00    +0.000 A 
ATOM      3  C   UNL     1       0.486   9.926  19.244  0.00  0.00    +0.000 A 
ATOM      4  C   UNL     1      -0.906  10.132  18.921  0.00  0.00    +0.000 A 
ATOM      5  C   UNL     1      -1.563  11.485  18.593  0.00  0.00    +0.000 A 
ATOM      6  C   UNL     1      -0.662  12.509  18.456  0.00  0.00    +0.000 A 
ENDROOT
BRANCH   5   7
ATOM      7  N   UNL     1      -3.034  11.686  18.393  0.00  0.00    +0.000 N 
ATOM      8  C   UNL     1      -3.518  10.895  17.358  0.00  0.00    +0.000 A 
ATOM      9  O   UNL     1      -3.220   9.738  17.186  0.00  0.00    +0.000 OA
ATOM     10  O   UNL     1      -4.542  11.507  16.704  0.00  0.00    +0.000 OA
ATOM     11  C   UNL     1      -5.178  11.871  17.853  0.00  0.00    +0.000 A 
ATOM     12  C   UNL     1      -6.582  11.762  17.772  0.00  0.00    +0.000 A 
ATOM     13  C   UNL     1      -7.302  11.843  18.930  0.00  0.00    +0.000 A 
ATOM     14  C   UNL     1      -6.577  12.131  20.095  0.00  0.00    +0.000 A 
ATOM     15  C   UNL     1      -5.097  12.302  20.125  0.00  0.00    +0.000 A 
ATOM     16  C   UNL     1      -4.335  12.065  18.964  0.00  0.00    +0.000 A 
ENDBRANCH   5   7
BRANCH   1  21
ATOM     17  C   UNL     1       4.288  16.664  18.282  0.00  0.00    +0.000 C 
ATOM     18  C   UNL     1       3.327  15.567  18.527  0.00  0.00    +0.000 A 
ATOM     19  C   UNL     1       2.068  15.795  19.077  0.00  0.00    +0.000 A 
ATOM     20  C   UNL     1       1.197  14.746  19.249  0.00  0.00    +0.000 A 
ATOM     21  C   UNL     1       1.604  13.480  18.825  0.00  0.00    +0.000 A 
ATOM     22  N   UNL     1       2.821  13.219  18.302  0.00  0.00    +0.000 NA
ATOM     23  C   UNL     1       3.644  14.266  18.151  0.00  0.00    +0.000 A 
ENDBRANCH   1  21
BRANCH   3  24
ATOM     24  C   UNL     1       1.368   8.703  19.627  0.00  0.00    +0.000 C 
ATOM     25  O   UNL     1       1.561   8.490  20.822  0.00  0.00    +0.000 OA
ATOM     26  N   UNL     1       1.935   7.857  18.687  0.00  0.00    +0.000 N 
ATOM     27  H   UNL     1       1.924   8.125  17.716  0.00  0.00    +0.000 HD
BRANCH  26  28
ATOM     28  C   UNL     1       2.862   6.739  19.060  0.00  0.00    +0.000 C 
ATOM     29  C   UNL     1       2.055   5.554  19.613  0.00  0.00    +0.000 C 
BRANCH  28  30
ATOM     30  C   UNL     1       3.694   6.235  17.883  0.00  0.00    +0.000 A 
ATOM     31  C   UNL     1       4.465   7.101  17.103  0.00  0.00    +0.000 A 
ATOM     32  N   UNL     1       5.283   6.675  16.103  0.00  0.00    +0.000 NA
ATOM     33  C   UNL     1       5.306   5.339  15.906  0.00  0.00    +0.000 A 
ATOM     34  C   UNL     1       4.557   4.469  16.677  0.00  0.00    +0.000 A 
ATOM     35  N   UNL     1       3.740   4.890  17.672  0.00  0.00    +0.000 NA
ENDBRANCH  28  30
ENDBRANCH  26  28
ENDBRANCH   3  24
TORSDOF 5
ENDMDL
MODEL 4
REMARK VINA RESULT:      -7.9      2.115      2.605
REMARK  Name = 
REMARK  7 active torsions:
REMARK  status: ('A' for Active; 'I' for Inactive)
REMARK    1  A    between atoms: C_1  and  C_2
REMARK    2  A    between atoms: C_5  and  C_6
REMARK    3  A    between atoms: C_8  and  C_9
REMARK    4  A    between atoms: N_11  and  C_12
REMARK    5  A    between atoms: C_12  and  C_13
REMARK    6  A    between atoms: C_12  and  C_14
REMARK    7  A    between atoms: C_21  and  N_22
REMARK                            x       y       z     vdW  Elec       q    Type
REMARK                         _______ _______ _______ _____ _____    ______ ____
ROOT
ATOM      1  C   UNL     1      -0.128  10.811  18.362  0.00  0.00    +0.000 A 
ATOM      2  C   UNL     1       0.640   9.690  17.985  0.00  0.00    +0.000 A 
ATOM      3  C   UNL     1       2.019   9.663  18.083  0.00  0.00    +0.000 A 
ATOM      4  C   UNL     1       2.598  10.937  18.438  0.00  0.00    +0.000 A 
ATOM      5  C   UNL     1       1.817  12.238  18.704  0.00  0.00    +0.000 A 
ATOM      6  C   UNL     1       0.459  12.057  18.747  0.00  0.00    +0.000 A 
ENDROOT
BRANCH   5   7
ATOM      7  N   UNL     1       2.452  13.573  18.938  0.00  0.00    +0.000 N 
ATOM      8  C   UNL     1       2.192  14.041  20.221  0.00  0.00    +0.000 A 
ATOM      9  O   UNL     1       2.247  13.363  21.218  0.00  0.00    +0.000 OA
ATOM     10  O   UNL     1       2.099  15.397  20.245  0.00  0.00    +0.000 OA
ATOM     11  C   UNL     1       3.222  15.579  19.495  0.00  0.00    +0.000 A 
ATOM     12  C   UNL     1       4.005  16.674  19.917  0.00  0.00    +0.000 A 
ATOM     13  C   UNL     1       5.271  16.792  19.417  0.00  0.00    +0.000 A 
ATOM     14  C   UNL     1       5.644  15.856  18.443  0.00  0.00    +0.000 A 
ATOM     15  C   UNL     1       4.761  14.749  17.979  0.00  0.00    +0.000 A 
ATOM     16  C   UNL     1       3.517  14.531  18.602  0.00  0.00    +0.000 A 
ENDBRANCH   5   7
BRANCH   1  21
ATOM     17  C   UNL     1      -5.742  11.029  17.809  0.00  0.00    +0.000 C 
ATOM     18  C   UNL     1      -4.282  10.855  17.961  0.00  0.00    +0.000 A 
ATOM     19  C   UNL     1      -3.570   9.901  17.239  0.00  0.00    +0.000 A 
ATOM     20  C   UNL     1      -2.207   9.807  17.388  0.00  0.00    +0.000 A 
ATOM     21  C   UNL     1      -1.577  10.710  18.246  0.00  0.00    +0.000 A 
ATOM     22  N   UNL     1      -2.236  11.638  18.973  0.00  0.00    +0.000 NA
ATOM     23  C   UNL     1      -3.563  11.699  18.803  0.00  0.00    +0.000 A 
ENDBRANCH   1  21
BRANCH   3  24
ATOM     24  C   UNL     1       2.571   8.247  17.748  0.00  0.00    +0.000 C 
ATOM     25  O   UNL     1       1.832   7.285  17.945  0.00  0.00    +0.000 OA
ATOM     26  N   UNL     1       3.843   8.033  17.242  0.00  0.00    +0.000 N 
ATOM     27  H   UNL     1       4.505   8.793  17.242  0.00  0.00    +0.000 HD
BRANCH  26  28
ATOM     28  C   UNL     1       4.402   6.661  17.013  0.00  0.00    +0.000 C 
ATOM     29  C   UNL     1       4.878   6.527  15.559  0.00  0.00    +0.000 C 
BRANCH  28  30
ATOM     30  C   UNL     1       5.582   6.336  17.927  0.00  0.00    +0.000 A 
ATOM     31  C   UNL     1       5.473   5.407  18.965  0.00  0.00    +0.000 A 
ATOM     32  N   UNL     1       6.524   5.031  19.743  0.00  0.00    +0.000 NA
ATOM     33  C   UNL     1       7.702   5.621  19.444  0.00  0.00    +0.000 A 
ATOM     34  C   UNL     1       7.827   6.533  18.413  0.00  0.00    +0.000 A 
ATOM     35  N   UNL     1       6.782   6.912  17.639  0.00  0.00    +0.000 NA
ENDBRANCH  28  30
ENDBRANCH  26  28
ENDBRANCH   3  24
TORSDOF 5
ENDMDL
MODEL 5
REMARK VINA RESULT:      -7.8      1.639      2.606
REMARK  Name = 
REMARK  7 active torsions:
REMARK  status: ('A' for Active; 'I' for Inactive)
REMARK    1  A    between atoms: C_1  and  C_2
REMARK    2  A    between atoms: C_5  and  C_6
REMARK    3  A    between atoms: C_8  and  C_9
REMARK    4  A    between atoms: N_11  and  C_12
REMARK    5  A    between atoms: C_12  and  C_13
REMARK    6  A    between atoms: C_12  and  C_14
REMARK    7  A    between atoms: C_21  and  N_22
REMARK                            x       y       z     vdW  Elec       q    Type
REMARK                         _______ _______ _______ _____ _____    ______ ____
ROOT
ATOM      1  C   UNL     1      -0.584  11.006  18.768  0.00  0.00    +0.000 A 
ATOM      2  C   UNL     1       0.111   9.778  18.784  0.00  0.00    +0.000 A 
ATOM      3  C   UNL     1       1.454   9.686  19.099  0.00  0.00    +0.000 A 
ATOM      4  C   UNL     1       2.104  10.968  19.238  0.00  0.00    +0.000 A 
ATOM      5  C   UNL     1       1.430  12.342  19.072  0.00  0.00    +0.000 A 
ATOM      6  C   UNL     1       0.067  12.267  18.943  0.00  0.00    +0.000 A 
ENDROOT
BRANCH   5   7
ATOM      7  N   UNL     1       2.158  13.650  19.089  0.00  0.00    +0.000 N 
ATOM      8  C   UNL     1       1.945  14.334  20.280  0.00  0.00    +0.000 A 
ATOM      9  O   UNL     1       1.964  13.822  21.374  0.00  0.00    +0.000 OA
ATOM     10  O   UNL     1       1.947  15.680  20.086  0.00  0.00    +0.000 OA
ATOM     11  C   UNL     1       3.072  15.660  19.318  0.00  0.00    +0.000 A 
ATOM     12  C   UNL     1       3.933  16.751  19.558  0.00  0.00    +0.000 A 
ATOM     13  C   UNL     1       5.198  16.698  19.047  0.00  0.00    +0.000 A 
ATOM     14  C   UNL     1       5.496  15.595  18.236  0.00  0.00    +0.000 A 
ATOM     15  C   UNL     1       4.533  14.493  17.955  0.00  0.00    +0.000 A 
ATOM     16  C   UNL     1       3.283  14.464  18.604  0.00  0.00    +0.000 A 
ENDBRANCH   5   7
BRANCH   1  21
ATOM     17  C   UNL     1      -6.069  11.502  17.527  0.00  0.00    +0.000 C 
ATOM     18  C   UNL     1      -4.646  11.256  17.842  0.00  0.00    +0.000 A 
ATOM     19  C   UNL     1      -3.863  10.376  17.098  0.00  0.00    +0.000 A 
ATOM     20  C   UNL     1      -2.535  10.212  17.409  0.00  0.00    +0.000 A 
ATOM     21  C   UNL     1      -2.007  10.974  18.452  0.00  0.00    +0.000 A 
ATOM     22  N   UNL     1      -2.738  11.825  19.204  0.00  0.00    +0.000 NA
ATOM     23  C   UNL     1      -4.029  11.957  18.873  0.00  0.00    +0.000 A 
ENDBRANCH   1  21
BRANCH   3  24
ATOM     24  C   UNL     1       1.901   8.198  19.189  0.00  0.00    +0.000 C 
ATOM     25  O   UNL     1       1.789   7.634  20.275  0.00  0.00    +0.000 OA
ATOM     26  N   UNL     1       2.412   7.497  18.109  0.00  0.00    +0.000 N 
ATOM     27  H   UNL     1       2.664   7.999  17.273  0.00  0.00    +0.000 HD
BRANCH  26  28
ATOM     28  C   UNL     1       2.930   6.095  18.227  0.00  0.00    +0.000 C 
ATOM     29  C   UNL     1       1.813   5.094  17.894  0.00  0.00    +0.000 C 
BRANCH  28  30
ATOM     30  C   UNL     1       4.109   5.812  17.298  0.00  0.00    +0.000 A 
ATOM     31  C   UNL     1       5.028   6.807  16.953  0.00  0.00    +0.000 A 
ATOM     32  N   UNL     1       6.134   6.570  16.197  0.00  0.00    +0.000 NA
ATOM     33  C   UNL     1       6.294   5.291  15.794  0.00  0.00    +0.000 A 
ATOM     34  C   UNL     1       5.399   4.295  16.137  0.00  0.00    +0.000 A 
ATOM     35  N   UNL     1       4.295   4.527  16.886  0.00  0.00    +0.000 NA
ENDBRANCH  28  30
ENDBRANCH  26  28
ENDBRANCH   3  24
TORSDOF 5
ENDMDL
MODEL 6
REMARK VINA RESULT:      -7.8      2.555      8.692
REMARK  Name = 
REMARK  7 active torsions:
REMARK  status: ('A' for Active; 'I' for Inactive)
REMARK    1  A    between atoms: C_1  and  C_2
REMARK    2  A    between atoms: C_5  and  C_6
REMARK    3  A    between atoms: C_8  and  C_9
REMARK    4  A    between atoms: N_11  and  C_12
REMARK    5  A    between atoms: C_12  and  C_13
REMARK    6  A    between atoms: C_12  and  C_14
REMARK    7  A    between atoms: C_21  and  N_22
REMARK                            x       y       z     vdW  Elec       q    Type
REMARK                         _______ _______ _______ _____ _____    ______ ____
ROOT
ATOM      1  C   UNL     1       0.484  10.963  19.016  0.00  0.00    +0.000 A 
ATOM      2  C   UNL     1       1.163  12.196  18.921  0.00  0.00    +0.000 A 
ATOM      3  C   UNL     1       0.510  13.413  18.964  0.00  0.00    +0.000 A 
ATOM      4  C   UNL     1      -0.930  13.297  18.940  0.00  0.00    +0.000 A 
ATOM      5  C   UNL     1      -1.726  11.980  18.881  0.00  0.00    +0.000 A 
ATOM      6  C   UNL     1      -0.943  10.865  19.029  0.00  0.00    +0.000 A 
ENDROOT
BRANCH   5   7
ATOM      7  N   UNL     1      -3.212  11.896  18.722  0.00  0.00    +0.000 N 
ATOM      8  C   UNL     1      -3.570  10.924  17.795  0.00  0.00    +0.000 A 
ATOM      9  O   UNL     1      -3.073   9.825  17.733  0.00  0.00    +0.000 OA
ATOM     10  O   UNL     1      -4.700  11.271  17.124  0.00  0.00    +0.000 OA
ATOM     11  C   UNL     1      -5.367  11.641  18.253  0.00  0.00    +0.000 A 
ATOM     12  C   UNL     1      -6.730  11.279  18.243  0.00  0.00    +0.000 A 
ATOM     13  C   UNL     1      -7.427  11.360  19.415  0.00  0.00    +0.000 A 
ATOM     14  C   UNL     1      -6.740  11.897  20.512  0.00  0.00    +0.000 A 
ATOM     15  C   UNL     1      -5.314  12.327  20.463  0.00  0.00    +0.000 A 
ATOM     16  C   UNL     1      -4.548  12.102  19.303  0.00  0.00    +0.000 A 
ENDBRANCH   5   7
BRANCH   1  21
ATOM     17  C   UNL     1       3.082   5.953  19.142  0.00  0.00    +0.000 C 
ATOM     18  C   UNL     1       2.498   7.308  19.058  0.00  0.00    +0.000 A 
ATOM     19  C   UNL     1       2.564   8.073  17.896  0.00  0.00    +0.000 A 
ATOM     20  C   UNL     1       1.970   9.312  17.857  0.00  0.00    +0.000 A 
ATOM     21  C   UNL     1       1.283   9.745  18.993  0.00  0.00    +0.000 A 
ATOM     22  N   UNL     1       1.211   9.038  20.141  0.00  0.00    +0.000 NA
ATOM     23  C   UNL     1       1.802   7.836  20.142  0.00  0.00    +0.000 A 
ENDBRANCH   1  21
BRANCH   3  24
ATOM     24  C   UNL     1       1.528  14.589  18.997  0.00  0.00    +0.000 C 
ATOM     25  O   UNL     1       1.123  15.704  18.677  0.00  0.00    +0.000 OA
ATOM     26  N   UNL     1       2.854  14.429  19.367  0.00  0.00    +0.000 N 
ATOM     27  H   UNL     1       3.229  13.499  19.461  0.00  0.00    +0.000 HD
BRANCH  26  28
ATOM     28  C   UNL     1       3.852  15.546  19.303  0.00  0.00    +0.000 C 
ATOM     29  C   UNL     1       3.806  16.363  20.603  0.00  0.00    +0.000 C 
BRANCH  28  30
ATOM     30  C   UNL     1       5.285  15.058  19.104  0.00  0.00    +0.000 A 
ATOM     31  C   UNL     1       5.768  14.691  17.845  0.00  0.00    +0.000 A 
ATOM     32  N   UNL     1       7.061  14.333  17.618  0.00  0.00    +0.000 NA
ATOM     33  C   UNL     1       7.865  14.355  18.703  0.00  0.00    +0.000 A 
ATOM     34  C   UNL     1       7.403  14.726  19.953  0.00  0.00    +0.000 A 
ATOM     35  N   UNL     1       6.116  15.079  20.183  0.00  0.00    +0.000 NA
ENDBRANCH  28  30
ENDBRANCH  26  28
ENDBRANCH   3  24
TORSDOF 5
ENDMDL
MODEL 7
REMARK VINA RESULT:      -7.8      2.309      6.533
REMARK  Name = 
REMARK  7 active torsions:
REMARK  status: ('A' for Active; 'I' for Inactive)
REMARK    1  A    between atoms: C_1  and  C_2
REMARK    2  A    between atoms: C_5  and  C_6
REMARK    3  A    between atoms: C_8  and  C_9
REMARK    4  A    between atoms: N_11  and  C_12
REMARK    5  A    between atoms: C_12  and  C_13
REMARK    6  A    between atoms: C_12  and  C_14
REMARK    7  A    between atoms: C_21  and  N_22
REMARK                            x       y       z     vdW  Elec       q    Type
REMARK                         _______ _______ _______ _____ _____    ______ ____
ROOT
ATOM      1  C   UNL     1       0.543  12.301  18.910  0.00  0.00    +0.000 A 
ATOM      2  C   UNL     1       1.091  11.114  19.440  0.00  0.00    +0.000 A 
ATOM      3  C   UNL     1       0.322  10.006  19.742  0.00  0.00    +0.000 A 
ATOM      4  C   UNL     1      -1.098  10.240  19.625  0.00  0.00    +0.000 A 
ATOM      5  C   UNL     1      -1.761  11.565  19.206  0.00  0.00    +0.000 A 
ATOM      6  C   UNL     1      -0.866  12.505  18.766  0.00  0.00    +0.000 A 
ENDROOT
BRANCH   5   7
ATOM      7  N   UNL     1      -3.237  11.816  19.224  0.00  0.00    +0.000 N 
ATOM      8  C   UNL     1      -3.596  12.658  20.271  0.00  0.00    +0.000 A 
ATOM      9  O   UNL     1      -2.991  13.655  20.582  0.00  0.00    +0.000 OA
ATOM     10  O   UNL     1      -4.833  12.355  20.748  0.00  0.00    +0.000 OA
ATOM     11  C   UNL     1      -5.391  12.270  19.508  0.00  0.00    +0.000 A 
ATOM     12  C   UNL     1      -6.696  12.802  19.445  0.00  0.00    +0.000 A 
ATOM     13  C   UNL     1      -7.247  13.012  18.213  0.00  0.00    +0.000 A 
ATOM     14  C   UNL     1      -6.493  12.581  17.112  0.00  0.00    +0.000 A 
ATOM     15  C   UNL     1      -5.142  11.965  17.227  0.00  0.00    +0.000 A 
ATOM     16  C   UNL     1      -4.505  11.889  18.482  0.00  0.00    +0.000 A 
ENDBRANCH   5   7
BRANCH   1  21
ATOM     17  C   UNL     1       3.950  16.756  18.271  0.00  0.00    +0.000 C 
ATOM     18  C   UNL     1       3.099  15.549  18.336  0.00  0.00    +0.000 A 
ATOM     19  C   UNL     1       3.596  14.276  18.068  0.00  0.00    +0.000 A 
ATOM     20  C   UNL     1       2.773  13.182  18.181  0.00  0.00    +0.000 A 
ATOM     21  C   UNL     1       1.458  13.392  18.601  0.00  0.00    +0.000 A 
ATOM     22  N   UNL     1       0.938  14.612  18.856  0.00  0.00    +0.000 NA
ATOM     23  C   UNL     1       1.770  15.654  18.733  0.00  0.00    +0.000 A 
ENDBRANCH   1  21
BRANCH   3  24
ATOM     24  C   UNL     1       1.219   8.805  20.157  0.00  0.00    +0.000 C 
ATOM     25  O   UNL     1       1.503   8.689  21.347  0.00  0.00    +0.000 OA
ATOM     26  N   UNL     1       1.702   7.874  19.251  0.00  0.00    +0.000 N 
ATOM     27  H   UNL     1       1.617   8.060  18.264  0.00  0.00    +0.000 HD
BRANCH  26  28
ATOM     28  C   UNL     1       2.644   6.776  19.644  0.00  0.00    +0.000 C 
ATOM     29  C   UNL     1       1.872   5.654  20.355  0.00  0.00    +0.000 C 
BRANCH  28  30
ATOM     30  C   UNL     1       3.377   6.162  18.453  0.00  0.00    +0.000 A 
ATOM     31  C   UNL     1       4.109   6.945  17.556  0.00  0.00    +0.000 A 
ATOM     32  N   UNL     1       4.841   6.423  16.536  0.00  0.00    +0.000 NA
ATOM     33  C   UNL     1       4.820   5.076  16.441  0.00  0.00    +0.000 A 
ATOM     34  C   UNL     1       4.110   4.288  17.328  0.00  0.00    +0.000 A 
ATOM     35  N   UNL     1       3.377   4.804  18.342  0.00  0.00    +0.000 NA
ENDBRANCH  28  30
ENDBRANCH  26  28
ENDBRANCH   3  24
TORSDOF 5
ENDMDL
MODEL 8
REMARK VINA RESULT:      -7.8      3.999      5.088
REMARK  Name = 
REMARK  7 active torsions:
REMARK  status: ('A' for Active; 'I' for Inactive)
REMARK    1  A    between atoms: C_1  and  C_2
REMARK    2  A    between atoms: C_5  and  C_6
REMARK    3  A    between atoms: C_8  and  C_9
REMARK    4  A    between atoms: N_11  and  C_12
REMARK    5  A    between atoms: C_12  and  C_13
REMARK    6  A    between atoms: C_12  and  C_14
REMARK    7  A    between atoms: C_21  and  N_22
REMARK                            x       y       z     vdW  Elec       q    Type
REMARK                         _______ _______ _______ _____ _____    ______ ____
ROOT
ATOM      1  C   UNL     1      -1.759  10.962  19.579  0.00  0.00    +0.000 A 
ATOM      2  C   UNL     1      -0.701  10.103  19.942  0.00  0.00    +0.000 A 
ATOM      3  C   UNL     1      -0.173  10.067  21.219  0.00  0.00    +0.000 A 
ATOM      4  C   UNL     1      -0.687  11.101  22.085  0.00  0.00    +0.000 A 
ATOM      5  C   UNL     1      -1.725  12.169  21.695  0.00  0.00    +0.000 A 
ATOM      6  C   UNL     1      -2.283  11.960  20.460  0.00  0.00    +0.000 A 
ENDROOT
BRANCH   5   7
ATOM      7  N   UNL     1      -2.138  13.310  22.573  0.00  0.00    +0.000 N 
ATOM      8  C   UNL     1      -3.289  13.007  23.291  0.00  0.00    +0.000 A 
ATOM      9  O   UNL     1      -3.491  11.952  23.842  0.00  0.00    +0.000 OA
ATOM     10  O   UNL     1      -4.050  14.115  23.497  0.00  0.00    +0.000 OA
ATOM     11  C   UNL     1      -2.993  14.881  23.887  0.00  0.00    +0.000 A 
ATOM     12  C   UNL     1      -3.299  15.758  24.948  0.00  0.00    +0.000 A 
ATOM     13  C   UNL     1      -2.265  16.376  25.592  0.00  0.00    +0.000 A 
ATOM     14  C   UNL     1      -0.985  16.156  25.066  0.00  0.00    +0.000 A 
ATOM     15  C   UNL     1      -0.712  15.270  23.900  0.00  0.00    +0.000 A 
ATOM     16  C   UNL     1      -1.753  14.509  23.332  0.00  0.00    +0.000 A 
ENDBRANCH   5   7
BRANCH   1  21
ATOM     17  C   UNL     1      -3.658  10.059  14.340  0.00  0.00    +0.000 C 
ATOM     18  C   UNL     1      -3.178  10.410  15.693  0.00  0.00    +0.000 A 
ATOM     19  C   UNL     1      -3.862  11.303  16.513  0.00  0.00    +0.000 A 
ATOM     20  C   UNL     1      -3.395  11.566  17.779  0.00  0.00    +0.000 A 
ATOM     21  C   UNL     1      -2.253  10.888  18.210  0.00  0.00    +0.000 A 
ATOM     22  N   UNL     1      -1.556  10.026  17.438  0.00  0.00    +0.000 NA
ATOM     23  C   UNL     1      -2.041   9.797  16.211  0.00  0.00    +0.000 A 
ENDBRANCH   1  21
BRANCH   3  24
ATOM     24  C   UNL     1       0.866   8.917  21.357  0.00  0.00    +0.000 C 
ATOM     25  O   UNL     1       1.536   8.875  22.387  0.00  0.00    +0.000 OA
ATOM     26  N   UNL     1       1.062   7.955  20.380  0.00  0.00    +0.000 N 
ATOM     27  H   UNL     1       0.644   8.084  19.473  0.00  0.00    +0.000 HD
BRANCH  26  28
ATOM     28  C   UNL     1       2.131   6.908  20.478  0.00  0.00    +0.000 C 
ATOM     29  C   UNL     1       1.501   5.545  20.800  0.00  0.00    +0.000 C 
BRANCH  28  30
ATOM     30  C   UNL     1       2.943   6.760  19.194  0.00  0.00    +0.000 A 
ATOM     31  C   UNL     1       2.877   7.707  18.168  0.00  0.00    +0.000 A 
ATOM     32  N   UNL     1       3.648   7.651  17.050  0.00  0.00    +0.000 NA
ATOM     33  C   UNL     1       4.500   6.605  16.989  0.00  0.00    +0.000 A 
ATOM     34  C   UNL     1       4.585   5.666  18.001  0.00  0.00    +0.000 A 
ATOM     35  N   UNL     1       3.816   5.717  19.114  0.00  0.00    +0.000 NA
ENDBRANCH  28  30
ENDBRANCH  26  28
ENDBRANCH   3  24
TORSDOF 5
ENDMDL
MODEL 9
REMARK VINA RESULT:      -7.8      2.301      5.914
REMARK  Name = 
REMARK  7 active torsions:
REMARK  status: ('A' for Active; 'I' for Inactive)
REMARK    1  A    between atoms: C_1  and  C_2
REMARK    2  A    between atoms: C_5  and  C_6
REMARK    3  A    between atoms: C_8  and  C_9
REMARK    4  A    between atoms: N_11  and  C_12
REMARK    5  A    between atoms: C_12  and  C_13
REMARK    6  A    between atoms: C_12  and  C_14
REMARK    7  A    between atoms: C_21  and  N_22
REMARK                            x       y       z     vdW  Elec       q    Type
REMARK                         _______ _______ _______ _____ _____    ______ ____
ROOT
ATOM      1  C   UNL     1       1.536  12.667  19.251  0.00  0.00    +0.000 A 
ATOM      2  C   UNL     1       1.927  11.373  18.847  0.00  0.00    +0.000 A 
ATOM      3  C   UNL     1       1.120  10.264  19.017  0.00  0.00    +0.000 A 
ATOM      4  C   UNL     1      -0.069  10.527  19.793  0.00  0.00    +0.000 A 
ATOM      5  C   UNL     1      -0.466  11.886  20.397  0.00  0.00    +0.000 A 
ATOM      6  C   UNL     1       0.337  12.919  19.988  0.00  0.00    +0.000 A 
ENDROOT
BRANCH   5   7
ATOM      7  N   UNL     1      -1.635  12.098  21.310  0.00  0.00    +0.000 N 
ATOM      8  C   UNL     1      -1.257  12.021  22.645  0.00  0.00    +0.000 A 
ATOM      9  O   UNL     1      -0.263  12.531  23.103  0.00  0.00    +0.000 OA
ATOM     10  O   UNL     1      -2.254  11.508  23.414  0.00  0.00    +0.000 OA
ATOM     11  C   UNL     1      -3.215  12.298  22.856  0.00  0.00    +0.000 A 
ATOM     12  C   UNL     1      -4.164  12.766  23.787  0.00  0.00    +0.000 A 
ATOM     13  C   UNL     1      -5.009  13.767  23.398  0.00  0.00    +0.000 A 
ATOM     14  C   UNL     1      -4.918  14.173  22.060  0.00  0.00    +0.000 A 
ATOM     15  C   UNL     1      -3.941  13.605  21.089  0.00  0.00    +0.000 A 
ATOM     16  C   UNL     1      -2.966  12.686  21.525  0.00  0.00    +0.000 A 
ENDBRANCH   5   7
BRANCH   1  21
ATOM     17  C   UNL     1       5.213  16.932  18.849  0.00  0.00    +0.000 C 
ATOM     18  C   UNL     1       4.246  15.815  18.838  0.00  0.00    +0.000 A 
ATOM     19  C   UNL     1       4.393  14.716  17.995  0.00  0.00    +0.000 A 
ATOM     20  C   UNL     1       3.487  13.684  18.050  0.00  0.00    +0.000 A 
ATOM     21  C   UNL     1       2.458  13.765  18.990  0.00  0.00    +0.000 A 
ATOM     22  N   UNL     1       2.275  14.821  19.813  0.00  0.00    +0.000 NA
ATOM     23  C   UNL     1       3.177  15.808  19.729  0.00  0.00    +0.000 A 
ENDBRANCH   1  21
BRANCH   3  24
ATOM     24  C   UNL     1       1.746   9.013  18.335  0.00  0.00    +0.000 C 
ATOM     25  O   UNL     1       2.021   9.093  17.139  0.00  0.00    +0.000 OA
ATOM     26  N   UNL     1       2.003   7.833  19.012  0.00  0.00    +0.000 N 
ATOM     27  H   UNL     1       1.624   7.705  19.937  0.00  0.00    +0.000 HD
BRANCH  26  28
ATOM     28  C   UNL     1       2.516   6.601  18.327  0.00  0.00    +0.000 C 
ATOM     29  C   UNL     1       4.046   6.535  18.449  0.00  0.00    +0.000 C 
BRANCH  28  30
ATOM     30  C   UNL     1       1.940   5.311  18.906  0.00  0.00    +0.000 A 
ATOM     31  C   UNL     1       1.620   4.219  18.094  0.00  0.00    +0.000 A 
ATOM     32  N   UNL     1       1.186   3.027  18.585  0.00  0.00    +0.000 NA
ATOM     33  C   UNL     1       1.082   2.960  19.930  0.00  0.00    +0.000 A 
ATOM     34  C   UNL     1       1.405   4.028  20.746  0.00  0.00    +0.000 A 
ATOM     35  N   UNL     1       1.835   5.218  20.261  0.00  0.00    +0.000 NA
ENDBRANCH  28  30
ENDBRANCH  26  28
ENDBRANCH   3  24
TORSDOF 5
ENDMDL
