MODEL 1
REMARK VINA RESULT:      -6.9      0.000      0.000
REMARK  Name = 
REMARK  15 active torsions:
REMARK  status: ('A' for Active; 'I' for Inactive)
REMARK    1  A    between atoms: C_1  and  C_2
REMARK    2  A    between atoms: C_2  and  C_3
REMARK    3  A    between atoms: C_4  and  C_5
REMARK    4  A    between atoms: C_5  and  C_6
REMARK    5  A    between atoms: C_8  and  C_9
REMARK    6  A    between atoms: C_16  and  O_17
REMARK    7  A    between atoms: C_18  and  C_19
REMARK    8  A    between atoms: C_19  and  C_20
REMARK    9  A    between atoms: C_21  and  C_22
REMARK   10  A    between atoms: C_21  and  C_23
REMARK   11  A    between atoms: C_27  and  C_28
REMARK   12  A    between atoms: C_28  and  C_29
REMARK   13  A    between atoms: C_30  and  C_31
REMARK   14  A    between atoms: C_30  and  C_32
REMARK   15  A    between atoms: C_33  and  O_34
REMARK                            x       y       z     vdW  Elec       q    Type
REMARK                         _______ _______ _______ _____ _____    ______ ____
ROOT
ATOM      1  C   UNL     1       0.296   9.991  18.759  0.00  0.00    +0.000 A 
ATOM      2  C   UNL     1       0.466  10.429  20.082  0.00  0.00    +0.000 A 
ATOM      3  C   UNL     1      -0.538  11.134  20.760  0.00  0.00    +0.000 A 
ATOM      4  C   UNL     1      -1.690  11.502  20.035  0.00  0.00    +0.000 A 
ATOM      5  C   UNL     1      -1.854  11.144  18.685  0.00  0.00    +0.000 A 
ATOM      6  C   UNL     1      -0.891  10.315  18.096  0.00  0.00    +0.000 A 
ENDROOT
BRANCH   3   7
ATOM      7  C   UNL     1      -0.443  11.481  22.244  0.00  0.00    +0.000 C 
ATOM      8  C   UNL     1      -1.663  11.236  23.127  0.00  0.00    +0.000 C 
ATOM      9  C   UNL     1      -2.703  12.309  22.939  0.00  0.00    +0.000 C 
ATOM     10  O   UNL     1      -3.883  12.128  23.233  0.00  0.00    +0.000 OA
ATOM     11  C   UNL     1      -2.243  13.602  22.404  0.00  0.00    +0.000 A 
ATOM     12  C   UNL     1      -3.174  14.601  22.107  0.00  0.00    +0.000 A 
ATOM     13  C   UNL     1      -2.736  15.817  21.591  0.00  0.00    +0.000 A 
ATOM     14  C   UNL     1      -1.370  16.031  21.390  0.00  0.00    +0.000 A 
ATOM     15  C   UNL     1      -0.416  15.039  21.680  0.00  0.00    +0.000 A 
ATOM     16  C   UNL     1      -0.877  13.805  22.175  0.00  0.00    +0.000 A 
ATOM     17  O   UNL     1       0.055  12.820  22.409  0.00  0.00    +0.000 OA
BRANCH  14  18
ATOM     18  O   UNL     1      -0.949  17.226  20.873  0.00  0.00    +0.000 OA
ATOM     19  H   UNL     1      -1.724  17.747  20.608  0.00  0.00    +0.000 HD
ENDBRANCH  14  18
BRANCH  15  20
ATOM     20  C   UNL     1       1.057  15.268  21.412  0.00  0.00    +0.000 C 
BRANCH  20  21
ATOM     21  C   UNL     1       1.660  14.329  20.396  0.00  0.00    +0.000 C 
ATOM     22  C   UNL     1       1.218  14.043  19.154  0.00  0.00    +0.000 C 
ATOM     23  C   UNL     1      -0.062  14.550  18.545  0.00  0.00    +0.000 C 
ATOM     24  C   UNL     1       2.023  13.169  18.226  0.00  0.00    +0.000 C 
ENDBRANCH  20  21
ENDBRANCH  15  20
ENDBRANCH   3   7
BRANCH   6  25
ATOM     25  O   UNL     1      -1.099   9.793  16.849  0.00  0.00    +0.000 OA
ATOM     26  H   UNL     1      -1.422   8.884  16.987  0.00  0.00    +0.000 HD
ENDBRANCH   6  25
BRANCH   1  27
ATOM     27  C   UNL     1       1.402   9.198  18.103  0.00  0.00    +0.000 C 
BRANCH  27  31
ATOM     28  C   UNL     1       3.099   5.971  19.534  0.00  0.00    +0.000 C 
ATOM     29  C   UNL     1       2.805   7.119  18.605  0.00  0.00    +0.000 C 
ATOM     30  C   UNL     1       3.739   7.308  17.443  0.00  0.00    +0.000 C 
ATOM     31  C   UNL     1       1.759   7.936  18.849  0.00  0.00    +0.000 C 
ENDBRANCH  27  31
ENDBRANCH   1  27
BRANCH   5  32
ATOM     32  C   UNL     1      -2.965  11.768  17.867  0.00  0.00    +0.000 C 
BRANCH  32  33
ATOM     33  C   UNL     1      -4.312  11.109  17.959  0.00  0.00    +0.000 C 
ATOM     34  C   UNL     1      -5.314  11.390  18.819  0.00  0.00    +0.000 C 
ATOM     35  C   UNL     1      -5.353  12.551  19.777  0.00  0.00    +0.000 C 
ATOM     36  C   UNL     1      -6.510  10.476  18.926  0.00  0.00    +0.000 C 
ENDBRANCH  32  33
ENDBRANCH   5  32
TORSDOF 9
ENDMDL
MODEL 2
REMARK VINA RESULT:      -6.8      4.444      9.071
REMARK  Name = 
REMARK  15 active torsions:
REMARK  status: ('A' for Active; 'I' for Inactive)
REMARK    1  A    between atoms: C_1  and  C_2
REMARK    2  A    between atoms: C_2  and  C_3
REMARK    3  A    between atoms: C_4  and  C_5
REMARK    4  A    between atoms: C_5  and  C_6
REMARK    5  A    between atoms: C_8  and  C_9
REMARK    6  A    between atoms: C_16  and  O_17
REMARK    7  A    between atoms: C_18  and  C_19
REMARK    8  A    between atoms: C_19  and  C_20
REMARK    9  A    between atoms: C_21  and  C_22
REMARK   10  A    between atoms: C_21  and  C_23
REMARK   11  A    between atoms: C_27  and  C_28
REMARK   12  A    between atoms: C_28  and  C_29
REMARK   13  A    between atoms: C_30  and  C_31
REMARK   14  A    between atoms: C_30  and  C_32
REMARK   15  A    between atoms: C_33  and  O_34
REMARK                            x       y       z     vdW  Elec       q    Type
REMARK                         _______ _______ _______ _____ _____    ______ ____
ROOT
ATOM      1  C   UNL     1       2.483   6.120  19.241  0.00  0.00    +0.000 A 
ATOM      2  C   UNL     1       3.226   5.864  18.077  0.00  0.00    +0.000 A 
ATOM      3  C   UNL     1       3.564   6.885  17.179  0.00  0.00    +0.000 A 
ATOM      4  C   UNL     1       3.035   8.171  17.412  0.00  0.00    +0.000 A 
ATOM      5  C   UNL     1       2.224   8.440  18.529  0.00  0.00    +0.000 A 
ATOM      6  C   UNL     1       2.036   7.423  19.474  0.00  0.00    +0.000 A 
ENDROOT
BRANCH   3   7
ATOM      7  C   UNL     1       4.502   6.664  15.994  0.00  0.00    +0.000 C 
ATOM      8  C   UNL     1       4.757   5.234  15.526  0.00  0.00    +0.000 C 
ATOM      9  C   UNL     1       5.728   4.524  16.432  0.00  0.00    +0.000 C 
ATOM     10  O   UNL     1       5.786   3.297  16.487  0.00  0.00    +0.000 OA
ATOM     11  C   UNL     1       6.627   5.364  17.242  0.00  0.00    +0.000 A 
ATOM     12  C   UNL     1       7.476   4.769  18.179  0.00  0.00    +0.000 A 
ATOM     13  C   UNL     1       8.316   5.568  18.950  0.00  0.00    +0.000 A 
ATOM     14  C   UNL     1       8.312   6.953  18.767  0.00  0.00    +0.000 A 
ATOM     15  C   UNL     1       7.464   7.573  17.831  0.00  0.00    +0.000 A 
ATOM     16  C   UNL     1       6.601   6.754  17.079  0.00  0.00    +0.000 A 
ATOM     17  O   UNL     1       5.738   7.369  16.202  0.00  0.00    +0.000 OA
BRANCH  14  18
ATOM     18  O   UNL     1       9.133   7.732  19.536  0.00  0.00    +0.000 OA
ATOM     19  H   UNL     1       9.337   8.550  19.053  0.00  0.00    +0.000 HD
ENDBRANCH  14  18
BRANCH  15  20
ATOM     20  C   UNL     1       7.436   9.080  17.678  0.00  0.00    +0.000 C 
BRANCH  20  21
ATOM     21  C   UNL     1       8.690   9.778  18.144  0.00  0.00    +0.000 C 
ATOM     22  C   UNL     1       8.981  11.094  18.102  0.00  0.00    +0.000 C 
ATOM     23  C   UNL     1       8.121  12.158  17.474  0.00  0.00    +0.000 C 
ATOM     24  C   UNL     1      10.241  11.630  18.733  0.00  0.00    +0.000 C 
ENDBRANCH  20  21
ENDBRANCH  15  20
ENDBRANCH   3   7
BRANCH   6  25
ATOM     25  O   UNL     1       1.411   7.690  20.661  0.00  0.00    +0.000 OA
ATOM     26  H   UNL     1       0.520   8.009  20.429  0.00  0.00    +0.000 HD
ENDBRANCH   6  25
BRANCH   1  27
ATOM     27  C   UNL     1       2.191   4.979  20.188  0.00  0.00    +0.000 C 
BRANCH  27  31
ATOM     28  C   UNL     1       3.316   1.512  18.754  0.00  0.00    +0.000 C 
ATOM     29  C   UNL     1       2.416   2.654  19.147  0.00  0.00    +0.000 C 
ATOM     30  C   UNL     1       0.980   2.565  18.713  0.00  0.00    +0.000 C 
ATOM     31  C   UNL     1       2.914   3.704  19.832  0.00  0.00    +0.000 C 
ENDBRANCH  27  31
ENDBRANCH   1  27
BRANCH   5  32
ATOM     32  C   UNL     1       1.464   9.746  18.615  0.00  0.00    +0.000 C 
BRANCH  32  33
ATOM     33  C   UNL     1       0.127   9.788  17.930  0.00  0.00    +0.000 C 
ATOM     34  C   UNL     1      -1.022  10.324  18.390  0.00  0.00    +0.000 C 
ATOM     35  C   UNL     1      -1.171  11.151  19.640  0.00  0.00    +0.000 C 
ATOM     36  C   UNL     1      -2.326  10.072  17.673  0.00  0.00    +0.000 C 
ENDBRANCH  32  33
ENDBRANCH   5  32
TORSDOF 9
ENDMDL
MODEL 3
REMARK VINA RESULT:      -6.8      3.273      7.030
REMARK  Name = 
REMARK  15 active torsions:
REMARK  status: ('A' for Active; 'I' for Inactive)
REMARK    1  A    between atoms: C_1  and  C_2
REMARK    2  A    between atoms: C_2  and  C_3
REMARK    3  A    between atoms: C_4  and  C_5
REMARK    4  A    between atoms: C_5  and  C_6
REMARK    5  A    between atoms: C_8  and  C_9
REMARK    6  A    between atoms: C_16  and  O_17
REMARK    7  A    between atoms: C_18  and  C_19
REMARK    8  A    between atoms: C_19  and  C_20
REMARK    9  A    between atoms: C_21  and  C_22
REMARK   10  A    between atoms: C_21  and  C_23
REMARK   11  A    between atoms: C_27  and  C_28
REMARK   12  A    between atoms: C_28  and  C_29
REMARK   13  A    between atoms: C_30  and  C_31
REMARK   14  A    between atoms: C_30  and  C_32
REMARK   15  A    between atoms: C_33  and  O_34
REMARK                            x       y       z     vdW  Elec       q    Type
REMARK                         _______ _______ _______ _____ _____    ______ ____
ROOT
ATOM      1  C   UNL     1      -3.314  12.948  21.405  0.00  0.00    +0.000 A 
ATOM      2  C   UNL     1      -4.691  12.701  21.293  0.00  0.00    +0.000 A 
ATOM      3  C   UNL     1      -5.613  13.236  22.204  0.00  0.00    +0.000 A 
ATOM      4  C   UNL     1      -5.109  13.937  23.317  0.00  0.00    +0.000 A 
ATOM      5  C   UNL     1      -3.727  14.135  23.498  0.00  0.00    +0.000 A 
ATOM      6  C   UNL     1      -2.858  13.709  22.484  0.00  0.00    +0.000 A 
ENDROOT
BRANCH   3   7
ATOM      7  C   UNL     1      -7.124  13.116  22.015  0.00  0.00    +0.000 C 
ATOM      8  C   UNL     1      -7.733  11.722  21.895  0.00  0.00    +0.000 C 
ATOM      9  C   UNL     1      -7.511  11.140  20.524  0.00  0.00    +0.000 C 
ATOM     10  O   UNL     1      -7.562   9.929  20.317  0.00  0.00    +0.000 OA
ATOM     11  C   UNL     1      -7.249  12.088  19.428  0.00  0.00    +0.000 A 
ATOM     12  C   UNL     1      -6.931  11.606  18.155  0.00  0.00    +0.000 A 
ATOM     13  C   UNL     1      -6.672  12.506  17.125  0.00  0.00    +0.000 A 
ATOM     14  C   UNL     1      -6.750  13.879  17.370  0.00  0.00    +0.000 A 
ATOM     15  C   UNL     1      -7.067  14.385  18.645  0.00  0.00    +0.000 A 
ATOM     16  C   UNL     1      -7.298  13.464  19.682  0.00  0.00    +0.000 A 
ATOM     17  O   UNL     1      -7.557  13.965  20.937  0.00  0.00    +0.000 OA
BRANCH  14  18
ATOM     18  O   UNL     1      -6.485  14.757  16.355  0.00  0.00    +0.000 OA
ATOM     19  H   UNL     1      -7.073  15.525  16.439  0.00  0.00    +0.000 HD
ENDBRANCH  14  18
BRANCH  15  20
ATOM     20  C   UNL     1      -7.100  15.877  18.908  0.00  0.00    +0.000 C 
BRANCH  20  21
ATOM     21  C   UNL     1      -5.830  16.434  19.503  0.00  0.00    +0.000 C 
ATOM     22  C   UNL     1      -5.619  16.884  20.757  0.00  0.00    +0.000 C 
ATOM     23  C   UNL     1      -6.672  17.013  21.825  0.00  0.00    +0.000 C 
ATOM     24  C   UNL     1      -4.241  17.290  21.214  0.00  0.00    +0.000 C 
ENDBRANCH  20  21
ENDBRANCH  15  20
ENDBRANCH   3   7
BRANCH   6  25
ATOM     25  O   UNL     1      -1.532  14.040  22.529  0.00  0.00    +0.000 OA
ATOM     26  H   UNL     1      -1.352  14.542  21.713  0.00  0.00    +0.000 HD
ENDBRANCH   6  25
BRANCH   1  27
ATOM     27  C   UNL     1      -2.381  12.376  20.363  0.00  0.00    +0.000 C 
BRANCH  27  31
ATOM     28  C   UNL     1      -3.534  10.483  17.134  0.00  0.00    +0.000 C 
ATOM     29  C   UNL     1      -2.638  10.971  18.241  0.00  0.00    +0.000 C 
ATOM     30  C   UNL     1      -1.261  10.375  18.311  0.00  0.00    +0.000 C 
ATOM     31  C   UNL     1      -3.093  11.882  19.127  0.00  0.00    +0.000 C 
ENDBRANCH  27  31
ENDBRANCH   1  27
BRANCH   5  32
ATOM     32  C   UNL     1      -3.204  14.657  24.818  0.00  0.00    +0.000 C 
BRANCH  32  33
ATOM     33  C   UNL     1      -2.774  16.097  24.844  0.00  0.00    +0.000 C 
ATOM     34  C   UNL     1      -3.557  17.194  24.899  0.00  0.00    +0.000 C 
ATOM     35  C   UNL     1      -5.048  17.203  25.114  0.00  0.00    +0.000 C 
ATOM     36  C   UNL     1      -2.969  18.566  24.682  0.00  0.00    +0.000 C 
ENDBRANCH  32  33
ENDBRANCH   5  32
TORSDOF 9
ENDMDL
MODEL 4
REMARK VINA RESULT:      -6.7      3.048      5.663
REMARK  Name = 
REMARK  15 active torsions:
REMARK  status: ('A' for Active; 'I' for Inactive)
REMARK    1  A    between atoms: C_1  and  C_2
REMARK    2  A    between atoms: C_2  and  C_3
REMARK    3  A    between atoms: C_4  and  C_5
REMARK    4  A    between atoms: C_5  and  C_6
REMARK    5  A    between atoms: C_8  and  C_9
REMARK    6  A    between atoms: C_16  and  O_17
REMARK    7  A    between atoms: C_18  and  C_19
REMARK    8  A    between atoms: C_19  and  C_20
REMARK    9  A    between atoms: C_21  and  C_22
REMARK   10  A    between atoms: C_21  and  C_23
REMARK   11  A    between atoms: C_27  and  C_28
REMARK   12  A    between atoms: C_28  and  C_29
REMARK   13  A    between atoms: C_30  and  C_31
REMARK   14  A    between atoms: C_30  and  C_32
REMARK   15  A    between atoms: C_33  and  O_34
REMARK                            x       y       z     vdW  Elec       q    Type
REMARK                         _______ _______ _______ _____ _____    ______ ____
ROOT
ATOM      1  C   UNL     1      -2.442  11.954  19.073  0.00  0.00    +0.000 A 
ATOM      2  C   UNL     1      -3.797  12.224  19.318  0.00  0.00    +0.000 A 
ATOM      3  C   UNL     1      -4.805  11.799  18.442  0.00  0.00    +0.000 A 
ATOM      4  C   UNL     1      -4.413  11.188  17.233  0.00  0.00    +0.000 A 
ATOM      5  C   UNL     1      -3.057  10.973  16.924  0.00  0.00    +0.000 A 
ATOM      6  C   UNL     1      -2.097  11.283  17.897  0.00  0.00    +0.000 A 
ENDROOT
BRANCH   3   7
ATOM      7  C   UNL     1      -6.291  11.939  18.763  0.00  0.00    +0.000 C 
ATOM      8  C   UNL     1      -7.238  12.375  17.648  0.00  0.00    +0.000 C 
ATOM      9  C   UNL     1      -7.147  13.857  17.398  0.00  0.00    +0.000 C 
ATOM     10  O   UNL     1      -7.506  14.358  16.333  0.00  0.00    +0.000 OA
ATOM     11  C   UNL     1      -6.628  14.692  18.494  0.00  0.00    +0.000 A 
ATOM     12  C   UNL     1      -6.421  16.059  18.287  0.00  0.00    +0.000 A 
ATOM     13  C   UNL     1      -5.919  16.842  19.322  0.00  0.00    +0.000 A 
ATOM     14  C   UNL     1      -5.643  16.257  20.561  0.00  0.00    +0.000 A 
ATOM     15  C   UNL     1      -5.843  14.883  20.790  0.00  0.00    +0.000 A 
ATOM     16  C   UNL     1      -6.324  14.099  19.725  0.00  0.00    +0.000 A 
ATOM     17  O   UNL     1      -6.469  12.748  19.939  0.00  0.00    +0.000 OA
BRANCH  14  18
ATOM     18  O   UNL     1      -5.141  17.032  21.570  0.00  0.00    +0.000 OA
ATOM     19  H   UNL     1      -4.176  17.086  21.478  0.00  0.00    +0.000 HD
ENDBRANCH  14  18
BRANCH  15  20
ATOM     20  C   UNL     1      -5.493  14.253  22.123  0.00  0.00    +0.000 C 
BRANCH  20  21
ATOM     21  C   UNL     1      -4.050  14.416  22.531  0.00  0.00    +0.000 C 
ATOM     22  C   UNL     1      -3.375  13.767  23.502  0.00  0.00    +0.000 C 
ATOM     23  C   UNL     1      -3.973  12.783  24.471  0.00  0.00    +0.000 C 
ATOM     24  C   UNL     1      -1.893  13.971  23.686  0.00  0.00    +0.000 C 
ENDBRANCH  20  21
ENDBRANCH  15  20
ENDBRANCH   3   7
BRANCH   6  25
ATOM     25  O   UNL     1      -0.790  10.923  17.715  0.00  0.00    +0.000 OA
ATOM     26  H   UNL     1      -0.434  11.533  17.044  0.00  0.00    +0.000 HD
ENDBRANCH   6  25
BRANCH   1  27
ATOM     27  C   UNL     1      -1.411  12.405  20.082  0.00  0.00    +0.000 C 
BRANCH  27  31
ATOM     28  C   UNL     1      -0.577  10.063  23.109  0.00  0.00    +0.000 C 
ATOM     29  C   UNL     1      -0.491  10.691  21.743  0.00  0.00    +0.000 C 
ATOM     30  C   UNL     1       0.673  10.288  20.882  0.00  0.00    +0.000 C 
ATOM     31  C   UNL     1      -1.419  11.590  21.352  0.00  0.00    +0.000 C 
ENDBRANCH  27  31
ENDBRANCH   1  27
BRANCH   5  32
ATOM     32  C   UNL     1      -2.657  10.559  15.524  0.00  0.00    +0.000 C 
BRANCH  32  33
ATOM     33  C   UNL     1      -3.777  10.226  14.580  0.00  0.00    +0.000 C 
ATOM     34  C   UNL     1      -3.684   9.808  13.301  0.00  0.00    +0.000 C 
ATOM     35  C   UNL     1      -2.413   9.425  12.588  0.00  0.00    +0.000 C 
ATOM     36  C   UNL     1      -4.912   9.742  12.426  0.00  0.00    +0.000 C 
ENDBRANCH  32  33
ENDBRANCH   5  32
TORSDOF 9
ENDMDL
MODEL 5
REMARK VINA RESULT:      -6.7      3.209      6.222
REMARK  Name = 
REMARK  15 active torsions:
REMARK  status: ('A' for Active; 'I' for Inactive)
REMARK    1  A    between atoms: C_1  and  C_2
REMARK    2  A    between atoms: C_2  and  C_3
REMARK    3  A    between atoms: C_4  and  C_5
REMARK    4  A    between atoms: C_5  and  C_6
REMARK    5  A    between atoms: C_8  and  C_9
REMARK    6  A    between atoms: C_16  and  O_17
REMARK    7  A    between atoms: C_18  and  C_19
REMARK    8  A    between atoms: C_19  and  C_20
REMARK    9  A    between atoms: C_21  and  C_22
REMARK   10  A    between atoms: C_21  and  C_23
REMARK   11  A    between atoms: C_27  and  C_28
REMARK   12  A    between atoms: C_28  and  C_29
REMARK   13  A    between atoms: C_30  and  C_31
REMARK   14  A    between atoms: C_30  and  C_32
REMARK   15  A    between atoms: C_33  and  O_34
REMARK                            x       y       z     vdW  Elec       q    Type
REMARK                         _______ _______ _______ _____ _____    ______ ____
ROOT
ATOM      1  C   UNL     1      -2.652  11.837  18.791  0.00  0.00    +0.000 A 
ATOM      2  C   UNL     1      -3.999  12.190  18.968  0.00  0.00    +0.000 A 
ATOM      3  C   UNL     1      -4.990  11.800  18.056  0.00  0.00    +0.000 A 
ATOM      4  C   UNL     1      -4.580  11.137  16.882  0.00  0.00    +0.000 A 
ATOM      5  C   UNL     1      -3.227  10.837  16.640  0.00  0.00    +0.000 A 
ATOM      6  C   UNL     1      -2.295  11.117  17.648  0.00  0.00    +0.000 A 
ENDROOT
BRANCH   3   7
ATOM      7  C   UNL     1      -6.478  12.033  18.306  0.00  0.00    +0.000 C 
ATOM      8  C   UNL     1      -7.266  12.853  17.289  0.00  0.00    +0.000 C 
ATOM      9  C   UNL     1      -7.004  14.327  17.450  0.00  0.00    +0.000 C 
ATOM     10  O   UNL     1      -7.208  15.125  16.537  0.00  0.00    +0.000 OA
ATOM     11  C   UNL     1      -6.510  14.781  18.761  0.00  0.00    +0.000 A 
ATOM     12  C   UNL     1      -6.148  16.119  18.940  0.00  0.00    +0.000 A 
ATOM     13  C   UNL     1      -5.671  16.541  20.178  0.00  0.00    +0.000 A 
ATOM     14  C   UNL     1      -5.574  15.628  21.230  0.00  0.00    +0.000 A 
ATOM     15  C   UNL     1      -5.931  14.276  21.070  0.00  0.00    +0.000 A 
ATOM     16  C   UNL     1      -6.386  13.859  19.806  0.00  0.00    +0.000 A 
ATOM     17  O   UNL     1      -6.685  12.526  19.641  0.00  0.00    +0.000 OA
BRANCH  14  18
ATOM     18  O   UNL     1      -5.095  16.049  22.440  0.00  0.00    +0.000 OA
ATOM     19  H   UNL     1      -4.199  16.404  22.320  0.00  0.00    +0.000 HD
ENDBRANCH  14  18
BRANCH  15  20
ATOM     20  C   UNL     1      -5.775  13.286  22.207  0.00  0.00    +0.000 C 
BRANCH  20  21
ATOM     21  C   UNL     1      -4.407  12.657  22.303  0.00  0.00    +0.000 C 
ATOM     22  C   UNL     1      -3.528  12.715  23.324  0.00  0.00    +0.000 C 
ATOM     23  C   UNL     1      -3.703  13.525  24.580  0.00  0.00    +0.000 C 
ATOM     24  C   UNL     1      -2.251  11.914  23.294  0.00  0.00    +0.000 C 
ENDBRANCH  20  21
ENDBRANCH  15  20
ENDBRANCH   3   7
BRANCH   6  25
ATOM     25  O   UNL     1      -1.004  10.679  17.535  0.00  0.00    +0.000 OA
ATOM     26  H   UNL     1      -0.891   9.995  18.220  0.00  0.00    +0.000 HD
ENDBRANCH   6  25
BRANCH   1  27
ATOM     27  C   UNL     1      -1.643  12.255  19.836  0.00  0.00    +0.000 C 
BRANCH  27  31
ATOM     28  C   UNL     1       0.101  15.745  19.492  0.00  0.00    +0.000 C 
ATOM     29  C   UNL     1      -0.900  14.701  19.910  0.00  0.00    +0.000 C 
ATOM     30  C   UNL     1      -1.952  15.127  20.896  0.00  0.00    +0.000 C 
ATOM     31  C   UNL     1      -0.812  13.445  19.425  0.00  0.00    +0.000 C 
ENDBRANCH  27  31
ENDBRANCH   1  27
BRANCH   5  32
ATOM     32  C   UNL     1      -2.790  10.365  15.270  0.00  0.00    +0.000 C 
BRANCH  32  33
ATOM     33  C   UNL     1      -3.884  10.076  14.282  0.00  0.00    +0.000 C 
ATOM     34  C   UNL     1      -3.758   9.745  12.980  0.00  0.00    +0.000 C 
ATOM     35  C   UNL     1      -2.466   9.432  12.271  0.00  0.00    +0.000 C 
ATOM     36  C   UNL     1      -4.966   9.718  12.077  0.00  0.00    +0.000 C 
ENDBRANCH  32  33
ENDBRANCH   5  32
TORSDOF 9
ENDMDL
MODEL 6
REMARK VINA RESULT:      -6.6      0.947      4.865
REMARK  Name = 
REMARK  15 active torsions:
REMARK  status: ('A' for Active; 'I' for Inactive)
REMARK    1  A    between atoms: C_1  and  C_2
REMARK    2  A    between atoms: C_2  and  C_3
REMARK    3  A    between atoms: C_4  and  C_5
REMARK    4  A    between atoms: C_5  and  C_6
REMARK    5  A    between atoms: C_8  and  C_9
REMARK    6  A    between atoms: C_16  and  O_17
REMARK    7  A    between atoms: C_18  and  C_19
REMARK    8  A    between atoms: C_19  and  C_20
REMARK    9  A    between atoms: C_21  and  C_22
REMARK   10  A    between atoms: C_21  and  C_23
REMARK   11  A    between atoms: C_27  and  C_28
REMARK   12  A    between atoms: C_28  and  C_29
REMARK   13  A    between atoms: C_30  and  C_31
REMARK   14  A    between atoms: C_30  and  C_32
REMARK   15  A    between atoms: C_33  and  O_34
REMARK                            x       y       z     vdW  Elec       q    Type
REMARK                         _______ _______ _______ _____ _____    ______ ____
ROOT
ATOM      1  C   UNL     1      -1.641  10.904  18.752  0.00  0.00    +0.000 A 
ATOM      2  C   UNL     1      -1.739  11.422  20.053  0.00  0.00    +0.000 A 
ATOM      3  C   UNL     1      -0.685  11.317  20.971  0.00  0.00    +0.000 A 
ATOM      4  C   UNL     1       0.446  10.566  20.592  0.00  0.00    +0.000 A 
ATOM      5  C   UNL     1       0.541   9.969  19.322  0.00  0.00    +0.000 A 
ATOM      6  C   UNL     1      -0.474  10.226  18.390  0.00  0.00    +0.000 A 
ENDROOT
BRANCH   3   7
ATOM      7  C   UNL     1      -0.704  12.009  22.332  0.00  0.00    +0.000 C 
ATOM      8  C   UNL     1      -1.885  11.748  23.263  0.00  0.00    +0.000 C 
ATOM      9  C   UNL     1      -3.100  12.531  22.843  0.00  0.00    +0.000 C 
ATOM     10  O   UNL     1      -4.234  12.201  23.186  0.00  0.00    +0.000 OA
ATOM     11  C   UNL     1      -2.874  13.728  22.016  0.00  0.00    +0.000 A 
ATOM     12  C   UNL     1      -3.966  14.436  21.507  0.00  0.00    +0.000 A 
ATOM     13  C   UNL     1      -3.746  15.561  20.716  0.00  0.00    +0.000 A 
ATOM     14  C   UNL     1      -2.439  15.978  20.454  0.00  0.00    +0.000 A 
ATOM     15  C   UNL     1      -1.326  15.279  20.956  0.00  0.00    +0.000 A 
ATOM     16  C   UNL     1      -1.563  14.128  21.730  0.00  0.00    +0.000 A 
ATOM     17  O   UNL     1      -0.471  13.419  22.174  0.00  0.00    +0.000 OA
BRANCH  14  18
ATOM     18  O   UNL     1      -2.232  17.079  19.668  0.00  0.00    +0.000 OA
ATOM     19  H   UNL     1      -3.092  17.453  19.415  0.00  0.00    +0.000 HD
ENDBRANCH  14  18
BRANCH  15  20
ATOM     20  C   UNL     1       0.087  15.715  20.623  0.00  0.00    +0.000 C 
BRANCH  20  21
ATOM     21  C   UNL     1       0.702  14.994  19.449  0.00  0.00    +0.000 C 
ATOM     22  C   UNL     1       1.701  14.088  19.451  0.00  0.00    +0.000 C 
ATOM     23  C   UNL     1       2.494  13.668  20.659  0.00  0.00    +0.000 C 
ATOM     24  C   UNL     1       2.103  13.373  18.186  0.00  0.00    +0.000 C 
ENDBRANCH  20  21
ENDBRANCH  15  20
ENDBRANCH   3   7
BRANCH   6  25
ATOM     25  O   UNL     1      -0.337   9.821  17.092  0.00  0.00    +0.000 OA
ATOM     26  H   UNL     1       0.128   8.965  17.124  0.00  0.00    +0.000 HD
ENDBRANCH   6  25
BRANCH   1  27
ATOM     27  C   UNL     1      -2.800  11.090  17.801  0.00  0.00    +0.000 C 
BRANCH  27  31
ATOM     28  C   UNL     1      -6.587  10.544  18.638  0.00  0.00    +0.000 C 
ATOM     29  C   UNL     1      -5.343  11.165  18.059  0.00  0.00    +0.000 C 
ATOM     30  C   UNL     1      -5.538  12.309  17.104  0.00  0.00    +0.000 C 
ATOM     31  C   UNL     1      -4.128  10.677  18.384  0.00  0.00    +0.000 C 
ENDBRANCH  27  31
ENDBRANCH   1  27
BRANCH   5  32
ATOM     32  C   UNL     1       1.635   8.963  19.038  0.00  0.00    +0.000 C 
BRANCH  32  33
ATOM     33  C   UNL     1       1.712   7.781  19.964  0.00  0.00    +0.000 C 
ATOM     34  C   UNL     1       2.262   6.573  19.719  0.00  0.00    +0.000 C 
ATOM     35  C   UNL     1       3.071   6.202  18.505  0.00  0.00    +0.000 C 
ATOM     36  C   UNL     1       2.045   5.426  20.676  0.00  0.00    +0.000 C 
ENDBRANCH  32  33
ENDBRANCH   5  32
TORSDOF 9
ENDMDL
MODEL 7
REMARK VINA RESULT:      -6.5      2.943      5.993
REMARK  Name = 
REMARK  15 active torsions:
REMARK  status: ('A' for Active; 'I' for Inactive)
REMARK    1  A    between atoms: C_1  and  C_2
REMARK    2  A    between atoms: C_2  and  C_3
REMARK    3  A    between atoms: C_4  and  C_5
REMARK    4  A    between atoms: C_5  and  C_6
REMARK    5  A    between atoms: C_8  and  C_9
REMARK    6  A    between atoms: C_16  and  O_17
REMARK    7  A    between atoms: C_18  and  C_19
REMARK    8  A    between atoms: C_19  and  C_20
REMARK    9  A    between atoms: C_21  and  C_22
REMARK   10  A    between atoms: C_21  and  C_23
REMARK   11  A    between atoms: C_27  and  C_28
REMARK   12  A    between atoms: C_28  and  C_29
REMARK   13  A    between atoms: C_30  and  C_31
REMARK   14  A    between atoms: C_30  and  C_32
REMARK   15  A    between atoms: C_33  and  O_34
REMARK                            x       y       z     vdW  Elec       q    Type
REMARK                         _______ _______ _______ _____ _____    ______ ____
ROOT
ATOM      1  C   UNL     1      -2.977  11.080  17.196  0.00  0.00    +0.000 A 
ATOM      2  C   UNL     1      -4.331  11.091  17.568  0.00  0.00    +0.000 A 
ATOM      3  C   UNL     1      -4.769  11.718  18.743  0.00  0.00    +0.000 A 
ATOM      4  C   UNL     1      -3.792  12.242  19.614  0.00  0.00    +0.000 A 
ATOM      5  C   UNL     1      -2.421  12.178  19.304  0.00  0.00    +0.000 A 
ATOM      6  C   UNL     1      -2.046  11.674  18.052  0.00  0.00    +0.000 A 
ENDROOT
BRANCH   3   7
ATOM      7  C   UNL     1      -6.247  11.881  19.089  0.00  0.00    +0.000 C 
ATOM      8  C   UNL     1      -7.222  12.226  17.966  0.00  0.00    +0.000 C 
ATOM      9  C   UNL     1      -7.143  13.684  17.597  0.00  0.00    +0.000 C 
ATOM     10  O   UNL     1      -7.529  14.098  16.505  0.00  0.00    +0.000 OA
ATOM     11  C   UNL     1      -6.599  14.604  18.611  0.00  0.00    +0.000 A 
ATOM     12  C   UNL     1      -6.402  15.950  18.291  0.00  0.00    +0.000 A 
ATOM     13  C   UNL     1      -5.877  16.813  19.249  0.00  0.00    +0.000 A 
ATOM     14  C   UNL     1      -5.570  16.329  20.523  0.00  0.00    +0.000 A 
ATOM     15  C   UNL     1      -5.759  14.977  20.864  0.00  0.00    +0.000 A 
ATOM     16  C   UNL     1      -6.264  14.111  19.877  0.00  0.00    +0.000 A 
ATOM     17  O   UNL     1      -6.399  12.781  20.201  0.00  0.00    +0.000 OA
BRANCH  14  18
ATOM     18  O   UNL     1      -5.046  17.182  21.455  0.00  0.00    +0.000 OA
ATOM     19  H   UNL     1      -4.245  16.784  21.833  0.00  0.00    +0.000 HD
ENDBRANCH  14  18
BRANCH  15  20
ATOM     20  C   UNL     1      -5.375  14.456  22.234  0.00  0.00    +0.000 C 
BRANCH  20  21
ATOM     21  C   UNL     1      -3.903  14.552  22.548  0.00  0.00    +0.000 C 
ATOM     22  C   UNL     1      -3.216  13.944  23.538  0.00  0.00    +0.000 C 
ATOM     23  C   UNL     1      -3.818  13.092  24.622  0.00  0.00    +0.000 C 
ATOM     24  C   UNL     1      -1.715  14.059  23.623  0.00  0.00    +0.000 C 
ENDBRANCH  20  21
ENDBRANCH  15  20
ENDBRANCH   3   7
BRANCH   6  25
ATOM     25  O   UNL     1      -0.746  11.760  17.635  0.00  0.00    +0.000 OA
ATOM     26  H   UNL     1      -0.654  12.637  17.221  0.00  0.00    +0.000 HD
ENDBRANCH   6  25
BRANCH   1  27
ATOM     27  C   UNL     1      -2.581  10.424  15.894  0.00  0.00    +0.000 C 
BRANCH  27  31
ATOM     28  C   UNL     1      -4.894   9.729  12.812  0.00  0.00    +0.000 C 
ATOM     29  C   UNL     1      -3.641   9.869  13.634  0.00  0.00    +0.000 C 
ATOM     30  C   UNL     1      -2.355   9.432  12.990  0.00  0.00    +0.000 C 
ATOM     31  C   UNL     1      -3.709  10.343  14.895  0.00  0.00    +0.000 C 
ENDBRANCH  27  31
ENDBRANCH   1  27
BRANCH   5  32
ATOM     32  C   UNL     1      -1.391  12.508  20.363  0.00  0.00    +0.000 C 
BRANCH  32  33
ATOM     33  C   UNL     1      -1.180  11.477  21.435  0.00  0.00    +0.000 C 
ATOM     34  C   UNL     1      -0.379  10.392  21.394  0.00  0.00    +0.000 C 
ATOM     35  C   UNL     1       0.612  10.069  20.307  0.00  0.00    +0.000 C 
ATOM     36  C   UNL     1      -0.465   9.336  22.469  0.00  0.00    +0.000 C 
ENDBRANCH  32  33
ENDBRANCH   5  32
TORSDOF 9
ENDMDL
MODEL 8
REMARK VINA RESULT:      -6.4      0.896      5.042
REMARK  Name = 
REMARK  15 active torsions:
REMARK  status: ('A' for Active; 'I' for Inactive)
REMARK    1  A    between atoms: C_1  and  C_2
REMARK    2  A    between atoms: C_2  and  C_3
REMARK    3  A    between atoms: C_4  and  C_5
REMARK    4  A    between atoms: C_5  and  C_6
REMARK    5  A    between atoms: C_8  and  C_9
REMARK    6  A    between atoms: C_16  and  O_17
REMARK    7  A    between atoms: C_18  and  C_19
REMARK    8  A    between atoms: C_19  and  C_20
REMARK    9  A    between atoms: C_21  and  C_22
REMARK   10  A    between atoms: C_21  and  C_23
REMARK   11  A    between atoms: C_27  and  C_28
REMARK   12  A    between atoms: C_28  and  C_29
REMARK   13  A    between atoms: C_30  and  C_31
REMARK   14  A    between atoms: C_30  and  C_32
REMARK   15  A    between atoms: C_33  and  O_34
REMARK                            x       y       z     vdW  Elec       q    Type
REMARK                         _______ _______ _______ _____ _____    ______ ____
ROOT
ATOM      1  C   UNL     1      -2.034  10.757  18.713  0.00  0.00    +0.000 A 
ATOM      2  C   UNL     1      -1.857  11.279  20.004  0.00  0.00    +0.000 A 
ATOM      3  C   UNL     1      -0.591  11.355  20.601  0.00  0.00    +0.000 A 
ATOM      4  C   UNL     1       0.497  10.781  19.915  0.00  0.00    +0.000 A 
ATOM      5  C   UNL     1       0.337  10.181  18.652  0.00  0.00    +0.000 A 
ATOM      6  C   UNL     1      -0.918  10.261  18.034  0.00  0.00    +0.000 A 
ENDROOT
BRANCH   3   7
ATOM      7  C   UNL     1      -0.350  12.061  21.933  0.00  0.00    +0.000 C 
ATOM      8  C   UNL     1      -1.282  11.749  23.101  0.00  0.00    +0.000 C 
ATOM      9  C   UNL     1      -2.600  12.462  22.958  0.00  0.00    +0.000 C 
ATOM     10  O   UNL     1      -3.612  12.077  23.542  0.00  0.00    +0.000 OA
ATOM     11  C   UNL     1      -2.626  13.659  22.101  0.00  0.00    +0.000 A 
ATOM     12  C   UNL     1      -3.840  14.302  21.844  0.00  0.00    +0.000 A 
ATOM     13  C   UNL     1      -3.860  15.427  21.024  0.00  0.00    +0.000 A 
ATOM     14  C   UNL     1      -2.667  15.910  20.482  0.00  0.00    +0.000 A 
ATOM     15  C   UNL     1      -1.435  15.277  20.726  0.00  0.00    +0.000 A 
ATOM     16  C   UNL     1      -1.434  14.124  21.534  0.00  0.00    +0.000 A 
ATOM     17  O   UNL     1      -0.234  13.480  21.728  0.00  0.00    +0.000 OA
BRANCH  14  18
ATOM     18  O   UNL     1      -2.698  17.010  19.669  0.00  0.00    +0.000 OA
ATOM     19  H   UNL     1      -3.086  17.754  20.158  0.00  0.00    +0.000 HD
ENDBRANCH  14  18
BRANCH  15  20
ATOM     20  C   UNL     1      -0.155  15.783  20.092  0.00  0.00    +0.000 C 
BRANCH  20  21
ATOM     21  C   UNL     1       0.559  14.769  19.232  0.00  0.00    +0.000 C 
ATOM     22  C   UNL     1       1.853  14.754  18.853  0.00  0.00    +0.000 C 
ATOM     23  C   UNL     1       2.859  15.835  19.144  0.00  0.00    +0.000 C 
ATOM     24  C   UNL     1       2.425  13.586  18.092  0.00  0.00    +0.000 C 
ENDBRANCH  20  21
ENDBRANCH  15  20
ENDBRANCH   3   7
BRANCH   6  25
ATOM     25  O   UNL     1      -1.075   9.857  16.737  0.00  0.00    +0.000 OA
ATOM     26  H   UNL     1      -0.930   8.893  16.736  0.00  0.00    +0.000 HD
ENDBRANCH   6  25
BRANCH   1  27
ATOM     27  C   UNL     1      -3.421  10.744  18.113  0.00  0.00    +0.000 C 
BRANCH  27  31
ATOM     28  C   UNL     1      -6.270  13.087  19.431  0.00  0.00    +0.000 C 
ATOM     29  C   UNL     1      -5.593  11.867  18.865  0.00  0.00    +0.000 C 
ATOM     30  C   UNL     1      -6.440  10.637  18.696  0.00  0.00    +0.000 C 
ATOM     31  C   UNL     1      -4.279  11.902  18.560  0.00  0.00    +0.000 C 
ENDBRANCH  27  31
ENDBRANCH   1  27
BRANCH   5  32
ATOM     32  C   UNL     1       1.456   9.351  18.061  0.00  0.00    +0.000 C 
BRANCH  32  33
ATOM     33  C   UNL     1       1.858   8.126  18.833  0.00  0.00    +0.000 C 
ATOM     34  C   UNL     1       2.801   7.217  18.510  0.00  0.00    +0.000 C 
ATOM     35  C   UNL     1       3.778   7.327  17.369  0.00  0.00    +0.000 C 
ATOM     36  C   UNL     1       2.914   5.924  19.280  0.00  0.00    +0.000 C 
ENDBRANCH  32  33
ENDBRANCH   5  32
TORSDOF 9
ENDMDL
MODEL 9
REMARK VINA RESULT:      -6.3      2.217      5.663
REMARK  Name = 
REMARK  15 active torsions:
REMARK  status: ('A' for Active; 'I' for Inactive)
REMARK    1  A    between atoms: C_1  and  C_2
REMARK    2  A    between atoms: C_2  and  C_3
REMARK    3  A    between atoms: C_4  and  C_5
REMARK    4  A    between atoms: C_5  and  C_6
REMARK    5  A    between atoms: C_8  and  C_9
REMARK    6  A    between atoms: C_16  and  O_17
REMARK    7  A    between atoms: C_18  and  C_19
REMARK    8  A    between atoms: C_19  and  C_20
REMARK    9  A    between atoms: C_21  and  C_22
REMARK   10  A    between atoms: C_21  and  C_23
REMARK   11  A    between atoms: C_27  and  C_28
REMARK   12  A    between atoms: C_28  and  C_29
REMARK   13  A    between atoms: C_30  and  C_31
REMARK   14  A    between atoms: C_30  and  C_32
REMARK   15  A    between atoms: C_33  and  O_34
REMARK                            x       y       z     vdW  Elec       q    Type
REMARK                         _______ _______ _______ _____ _____    ______ ____
ROOT
ATOM      1  C   UNL     1      -3.627  11.733  18.510  0.00  0.00    +0.000 A 
ATOM      2  C   UNL     1      -4.069  12.230  19.746  0.00  0.00    +0.000 A 
ATOM      3  C   UNL     1      -3.173  12.715  20.710  0.00  0.00    +0.000 A 
ATOM      4  C   UNL     1      -1.794  12.581  20.454  0.00  0.00    +0.000 A 
ATOM      5  C   UNL     1      -1.320  12.016  19.256  0.00  0.00    +0.000 A 
ATOM      6  C   UNL     1      -2.252  11.683  18.265  0.00  0.00    +0.000 A 
ENDROOT
BRANCH   3   7
ATOM      7  C   UNL     1      -3.635  13.405  21.991  0.00  0.00    +0.000 C 
ATOM      8  C   UNL     1      -5.056  13.148  22.484  0.00  0.00    +0.000 C 
ATOM      9  C   UNL     1      -6.064  13.937  21.692  0.00  0.00    +0.000 C 
ATOM     10  O   UNL     1      -7.250  13.612  21.644  0.00  0.00    +0.000 OA
ATOM     11  C   UNL     1      -5.575  15.134  20.987  0.00  0.00    +0.000 A 
ATOM     12  C   UNL     1      -6.438  15.847  20.150  0.00  0.00    +0.000 A 
ATOM     13  C   UNL     1      -5.968  16.972  19.477  0.00  0.00    +0.000 A 
ATOM     14  C   UNL     1      -4.646  17.384  19.659  0.00  0.00    +0.000 A 
ATOM     15  C   UNL     1      -3.760  16.679  20.495  0.00  0.00    +0.000 A 
ATOM     16  C   UNL     1      -4.242  15.529  21.146  0.00  0.00    +0.000 A 
ATOM     17  O   UNL     1      -3.358  14.815  21.922  0.00  0.00    +0.000 OA
BRANCH  14  18
ATOM     18  O   UNL     1      -4.189  18.484  18.986  0.00  0.00    +0.000 OA
ATOM     19  H   UNL     1      -3.379  18.805  19.415  0.00  0.00    +0.000 HD
ENDBRANCH  14  18
BRANCH  15  20
ATOM     20  C   UNL     1      -2.315  17.110  20.644  0.00  0.00    +0.000 C 
BRANCH  20  21
ATOM     21  C   UNL     1      -1.381  16.525  19.613  0.00  0.00    +0.000 C 
ATOM     22  C   UNL     1      -0.255  15.810  19.813  0.00  0.00    +0.000 C 
ATOM     23  C   UNL     1       0.368  15.520  21.152  0.00  0.00    +0.000 C 
ATOM     24  C   UNL     1       0.489  15.194  18.655  0.00  0.00    +0.000 C 
ENDBRANCH  20  21
ENDBRANCH  15  20
ENDBRANCH   3   7
BRANCH   6  25
ATOM     25  O   UNL     1      -1.830  11.303  17.020  0.00  0.00    +0.000 OA
ATOM     26  H   UNL     1      -1.408  10.432  17.133  0.00  0.00    +0.000 HD
ENDBRANCH   6  25
BRANCH   1  27
ATOM     27  C   UNL     1      -4.650  11.267  17.501  0.00  0.00    +0.000 C 
BRANCH  27  31
ATOM     28  C   UNL     1      -7.184  14.120  16.618  0.00  0.00    +0.000 C 
ATOM     29  C   UNL     1      -6.609  12.896  17.282  0.00  0.00    +0.000 C 
ATOM     30  C   UNL     1      -7.397  12.307  18.417  0.00  0.00    +0.000 C 
ATOM     31  C   UNL     1      -5.426  12.395  16.868  0.00  0.00    +0.000 C 
ENDBRANCH  27  31
ENDBRANCH   1  27
BRANCH   5  32
ATOM     32  C   UNL     1       0.142  11.649  19.119  0.00  0.00    +0.000 C 
BRANCH  32  33
ATOM     33  C   UNL     1       0.627  10.508  19.969  0.00  0.00    +0.000 C 
ATOM     34  C   UNL     1       1.197   9.356  19.560  0.00  0.00    +0.000 C 
ATOM     35  C   UNL     1       1.624   9.035  18.152  0.00  0.00    +0.000 C 
ATOM     36  C   UNL     1       1.410   8.220  20.530  0.00  0.00    +0.000 C 
ENDBRANCH  32  33
ENDBRANCH   5  32
TORSDOF 9
ENDMDL
