MODEL 1
REMARK VINA RESULT:      -7.6      0.000      0.000
REMARK  Name = 
REMARK  2 active torsions:
REMARK  status: ('A' for Active; 'I' for Inactive)
REMARK    1  A    between atoms: C_2  and  C_3
REMARK    2  A    between atoms: N_16  and  C_17
REMARK                            x       y       z     vdW  Elec       q    Type
REMARK                         _______ _______ _______ _____ _____    ______ ____
ROOT
ATOM      1  O   UNL     1      -5.619  12.563  24.879  0.00  0.00    +0.000 OA
ATOM      2  C   UNL     1      -5.110  12.858  23.799  0.00  0.00    +0.000 C 
ATOM      3  N   UNL     1      -5.832  12.895  22.605  0.00  0.00    +0.000 N 
ATOM      4  C   UNL     1      -7.309  12.803  22.664  0.00  0.00    +0.000 C 
ATOM      5  C   UNL     1      -7.860  11.587  21.890  0.00  0.00    +0.000 C 
ATOM      6  C   UNL     1      -7.137  11.495  20.601  0.00  0.00    +0.000 A 
ATOM      7  N   UNL     1      -7.479  10.772  19.508  0.00  0.00    +0.000 N 
ATOM      8  N   UNL     1      -6.566  10.852  18.534  0.00  0.00    +0.000 NA
ATOM      9  C   UNL     1      -5.584  11.622  19.021  0.00  0.00    +0.000 A 
ATOM     10  N   UNL     1      -4.412  11.930  18.405  0.00  0.00    +0.000 N 
ATOM     11  C   UNL     1      -5.931  12.092  20.312  0.00  0.00    +0.000 A 
ATOM     12  C   UNL     1      -5.219  12.976  21.260  0.00  0.00    +0.000 C 
ATOM     13  H   UNL     1      -8.296  10.191  19.350  0.00  0.00    +0.000 HD
ATOM     14  H   UNL     1      -3.814  12.639  18.810  0.00  0.00    +0.000 HD
ENDROOT
BRANCH   2  15
ATOM     15  C   UNL     1      -3.657  13.180  23.792  0.00  0.00    +0.000 A 
ATOM     16  C   UNL     1      -2.761  12.231  23.301  0.00  0.00    +0.000 A 
ATOM     17  C   UNL     1      -1.421  12.567  23.264  0.00  0.00    +0.000 A 
ATOM     18  N   UNL     1      -0.935  13.763  23.664  0.00  0.00    +0.000 NA
ATOM     19  C   UNL     1      -1.818  14.643  24.178  0.00  0.00    +0.000 A 
ATOM     20  C   UNL     1      -3.169  14.385  24.299  0.00  0.00    +0.000 A 
ENDBRANCH   2  15
BRANCH  10  21
ATOM     21  C   UNL     1      -3.774  11.259  17.328  0.00  0.00    +0.000 A 
ATOM     22  C   UNL     1      -2.675  10.414  17.520  0.00  0.00    +0.000 A 
ATOM     23  C   UNL     1      -2.116   9.691  16.466  0.00  0.00    +0.000 A 
ATOM     24  C   UNL     1      -2.657   9.802  15.191  0.00  0.00    +0.000 A 
ATOM     25  C   UNL     1      -3.743  10.648  14.970  0.00  0.00    +0.000 A 
ATOM     26  C   UNL     1      -4.301  11.374  16.028  0.00  0.00    +0.000 A 
ENDBRANCH  10  21
TORSDOF 2
ENDMDL
MODEL 2
REMARK VINA RESULT:      -7.5      0.166      1.383
REMARK  Name = 
REMARK  2 active torsions:
REMARK  status: ('A' for Active; 'I' for Inactive)
REMARK    1  A    between atoms: C_2  and  C_3
REMARK    2  A    between atoms: N_16  and  C_17
REMARK                            x       y       z     vdW  Elec       q    Type
REMARK                         _______ _______ _______ _____ _____    ______ ____
ROOT
ATOM      1  O   UNL     1      -5.520  12.583  24.899  0.00  0.00    +0.000 OA
ATOM      2  C   UNL     1      -5.057  12.848  23.791  0.00  0.00    +0.000 C 
ATOM      3  N   UNL     1      -5.826  12.847  22.627  0.00  0.00    +0.000 N 
ATOM      4  C   UNL     1      -7.299  12.751  22.748  0.00  0.00    +0.000 C 
ATOM      5  C   UNL     1      -7.875  11.510  22.033  0.00  0.00    +0.000 C 
ATOM      6  C   UNL     1      -7.205  11.383  20.719  0.00  0.00    +0.000 A 
ATOM      7  N   UNL     1      -7.587  10.627  19.663  0.00  0.00    +0.000 N 
ATOM      8  N   UNL     1      -6.715  10.682  18.650  0.00  0.00    +0.000 NA
ATOM      9  C   UNL     1      -5.717  11.469  19.074  0.00  0.00    +0.000 A 
ATOM     10  N   UNL     1      -4.573  11.763  18.403  0.00  0.00    +0.000 N 
ATOM     11  C   UNL     1      -6.014  11.976  20.364  0.00  0.00    +0.000 A 
ATOM     12  C   UNL     1      -5.269  12.891  21.255  0.00  0.00    +0.000 C 
ATOM     13  H   UNL     1      -8.406  10.039  19.555  0.00  0.00    +0.000 HD
ATOM     14  H   UNL     1      -3.962  12.486  18.761  0.00  0.00    +0.000 HD
ENDROOT
BRANCH   2  15
ATOM     15  C   UNL     1      -3.607  13.176  23.715  0.00  0.00    +0.000 A 
ATOM     16  C   UNL     1      -3.176  14.423  24.167  0.00  0.00    +0.000 A 
ATOM     17  C   UNL     1      -1.820  14.691  24.127  0.00  0.00    +0.000 A 
ATOM     18  N   UNL     1      -0.893  13.810  23.690  0.00  0.00    +0.000 NA
ATOM     19  C   UNL     1      -1.343  12.631  23.215  0.00  0.00    +0.000 A 
ATOM     20  C   UNL     1      -2.679  12.287  23.170  0.00  0.00    +0.000 A 
ENDBRANCH   2  15
BRANCH  10  21
ATOM     21  C   UNL     1      -3.976  11.064  17.320  0.00  0.00    +0.000 A 
ATOM     22  C   UNL     1      -4.352  11.284  15.990  0.00  0.00    +0.000 A 
ATOM     23  C   UNL     1      -3.694  10.658  14.931  0.00  0.00    +0.000 A 
ATOM     24  C   UNL     1      -2.636   9.796  15.190  0.00  0.00    +0.000 A 
ATOM     25  C   UNL     1      -2.250   9.549  16.507  0.00  0.00    +0.000 A 
ATOM     26  C   UNL     1      -2.913  10.176  17.568  0.00  0.00    +0.000 A 
ENDBRANCH  10  21
TORSDOF 2
ENDMDL
MODEL 3
REMARK VINA RESULT:      -7.3      8.778     11.555
REMARK  Name = 
REMARK  2 active torsions:
REMARK  status: ('A' for Active; 'I' for Inactive)
REMARK    1  A    between atoms: C_2  and  C_3
REMARK    2  A    between atoms: N_16  and  C_17
REMARK                            x       y       z     vdW  Elec       q    Type
REMARK                         _______ _______ _______ _____ _____    ______ ____
ROOT
ATOM      1  O   UNL     1       5.756   3.440  16.885  0.00  0.00    +0.000 OA
ATOM      2  C   UNL     1       5.541   4.292  17.745  0.00  0.00    +0.000 C 
ATOM      3  N   UNL     1       4.640   4.101  18.794  0.00  0.00    +0.000 N 
ATOM      4  C   UNL     1       4.091   2.744  19.020  0.00  0.00    +0.000 C 
ATOM      5  C   UNL     1       2.552   2.699  18.908  0.00  0.00    +0.000 C 
ATOM      6  C   UNL     1       2.003   3.877  19.619  0.00  0.00    +0.000 A 
ATOM      7  N   UNL     1       0.726   4.086  20.012  0.00  0.00    +0.000 N 
ATOM      8  N   UNL     1       0.550   5.291  20.566  0.00  0.00    +0.000 NA
ATOM      9  C   UNL     1       1.743   5.897  20.498  0.00  0.00    +0.000 A 
ATOM     10  N   UNL     1       2.031   7.169  20.883  0.00  0.00    +0.000 N 
ATOM     11  C   UNL     1       2.705   5.014  19.949  0.00  0.00    +0.000 A 
ATOM     12  C   UNL     1       4.150   5.178  19.683  0.00  0.00    +0.000 C 
ATOM     13  H   UNL     1      -0.082   3.477  19.930  0.00  0.00    +0.000 HD
ATOM     14  H   UNL     1       2.997   7.465  20.921  0.00  0.00    +0.000 HD
ENDROOT
BRANCH   2  15
ATOM     15  C   UNL     1       6.283   5.578  17.637  0.00  0.00    +0.000 A 
ATOM     16  C   UNL     1       5.803   6.559  16.771  0.00  0.00    +0.000 A 
ATOM     17  C   UNL     1       6.483   7.762  16.717  0.00  0.00    +0.000 A 
ATOM     18  N   UNL     1       7.574   8.042  17.463  0.00  0.00    +0.000 NA
ATOM     19  C   UNL     1       8.044   7.057  18.256  0.00  0.00    +0.000 A 
ATOM     20  C   UNL     1       7.463   5.808  18.346  0.00  0.00    +0.000 A 
ENDBRANCH   2  15
BRANCH  10  21
ATOM     21  C   UNL     1       1.141   8.258  21.082  0.00  0.00    +0.000 A 
ATOM     22  C   UNL     1       0.521   8.501  22.313  0.00  0.00    +0.000 A 
ATOM     23  C   UNL     1      -0.278   9.626  22.519  0.00  0.00    +0.000 A 
ATOM     24  C   UNL     1      -0.467  10.536  21.487  0.00  0.00    +0.000 A 
ATOM     25  C   UNL     1       0.128  10.310  20.247  0.00  0.00    +0.000 A 
ATOM     26  C   UNL     1       0.928   9.180  20.041  0.00  0.00    +0.000 A 
ENDBRANCH  10  21
TORSDOF 2
ENDMDL
MODEL 4
REMARK VINA RESULT:      -7.1      8.771     11.526
REMARK  Name = 
REMARK  2 active torsions:
REMARK  status: ('A' for Active; 'I' for Inactive)
REMARK    1  A    between atoms: C_2  and  C_3
REMARK    2  A    between atoms: N_16  and  C_17
REMARK                            x       y       z     vdW  Elec       q    Type
REMARK                         _______ _______ _______ _____ _____    ______ ____
ROOT
ATOM      1  O   UNL     1       5.872   3.612  17.009  0.00  0.00    +0.000 OA
ATOM      2  C   UNL     1       5.640   4.441  17.886  0.00  0.00    +0.000 C 
ATOM      3  N   UNL     1       4.687   4.242  18.886  0.00  0.00    +0.000 N 
ATOM      4  C   UNL     1       4.090   2.895  19.042  0.00  0.00    +0.000 C 
ATOM      5  C   UNL     1       2.558   2.898  18.858  0.00  0.00    +0.000 C 
ATOM      6  C   UNL     1       2.009   4.068  19.581  0.00  0.00    +0.000 A 
ATOM      7  N   UNL     1       0.720   4.301  19.923  0.00  0.00    +0.000 N 
ATOM      8  N   UNL     1       0.552   5.492  20.508  0.00  0.00    +0.000 NA
ATOM      9  C   UNL     1       1.762   6.066  20.514  0.00  0.00    +0.000 A 
ATOM     10  N   UNL     1       2.066   7.315  20.954  0.00  0.00    +0.000 N 
ATOM     11  C   UNL     1       2.725   5.173  19.981  0.00  0.00    +0.000 A 
ATOM     12  C   UNL     1       4.185   5.305  19.787  0.00  0.00    +0.000 C 
ATOM     13  H   UNL     1      -0.099   3.718  19.783  0.00  0.00    +0.000 HD
ATOM     14  H   UNL     1       3.037   7.583  21.046  0.00  0.00    +0.000 HD
ENDROOT
BRANCH   2  15
ATOM     15  C   UNL     1       6.421   5.708  17.854  0.00  0.00    +0.000 A 
ATOM     16  C   UNL     1       7.504   5.851  18.721  0.00  0.00    +0.000 A 
ATOM     17  C   UNL     1       8.242   7.018  18.646  0.00  0.00    +0.000 A 
ATOM     18  N   UNL     1       7.980   8.017  17.774  0.00  0.00    +0.000 NA
ATOM     19  C   UNL     1       6.899   7.872  16.981  0.00  0.00    +0.000 A 
ATOM     20  C   UNL     1       6.074   6.765  17.013  0.00  0.00    +0.000 A 
ENDBRANCH   2  15
BRANCH  10  21
ATOM     21  C   UNL     1       1.198   8.423  21.148  0.00  0.00    +0.000 A 
ATOM     22  C   UNL     1       0.786   9.243  20.091  0.00  0.00    +0.000 A 
ATOM     23  C   UNL     1      -0.138  10.270  20.281  0.00  0.00    +0.000 A 
ATOM     24  C   UNL     1      -0.674  10.492  21.543  0.00  0.00    +0.000 A 
ATOM     25  C   UNL     1      -0.270   9.698  22.616  0.00  0.00    +0.000 A 
ATOM     26  C   UNL     1       0.660   8.669  22.424  0.00  0.00    +0.000 A 
ENDBRANCH  10  21
TORSDOF 2
ENDMDL
MODEL 5
REMARK VINA RESULT:      -6.9      8.956     11.882
REMARK  Name = 
REMARK  2 active torsions:
REMARK  status: ('A' for Active; 'I' for Inactive)
REMARK    1  A    between atoms: C_2  and  C_3
REMARK    2  A    between atoms: N_16  and  C_17
REMARK                            x       y       z     vdW  Elec       q    Type
REMARK                         _______ _______ _______ _____ _____    ______ ____
ROOT
ATOM      1  O   UNL     1       4.678   2.026  16.769  0.00  0.00    +0.000 OA
ATOM      2  C   UNL     1       4.741   3.042  17.458  0.00  0.00    +0.000 C 
ATOM      3  N   UNL     1       4.028   3.199  18.647  0.00  0.00    +0.000 N 
ATOM      4  C   UNL     1       3.346   2.019  19.228  0.00  0.00    +0.000 C 
ATOM      5  C   UNL     1       1.821   2.219  19.360  0.00  0.00    +0.000 C 
ATOM      6  C   UNL     1       1.579   3.581  19.888  0.00  0.00    +0.000 A 
ATOM      7  N   UNL     1       0.435   4.073  20.418  0.00  0.00    +0.000 N 
ATOM      8  N   UNL     1       0.531   5.370  20.733  0.00  0.00    +0.000 NA
ATOM      9  C   UNL     1       1.764   5.741  20.363  0.00  0.00    +0.000 A 
ATOM     10  N   UNL     1       2.290   6.992  20.431  0.00  0.00    +0.000 N 
ATOM     11  C   UNL     1       2.479   4.622  19.868  0.00  0.00    +0.000 A 
ATOM     12  C   UNL     1       3.861   4.486  19.360  0.00  0.00    +0.000 C 
ATOM     13  H   UNL     1      -0.451   3.607  20.585  0.00  0.00    +0.000 HD
ATOM     14  H   UNL     1       3.280   7.121  20.261  0.00  0.00    +0.000 HD
ENDROOT
BRANCH   2  15
ATOM     15  C   UNL     1       5.623   4.142  16.977  0.00  0.00    +0.000 A 
ATOM     16  C   UNL     1       5.369   4.708  15.729  0.00  0.00    +0.000 A 
ATOM     17  C   UNL     1       6.173   5.756  15.320  0.00  0.00    +0.000 A 
ATOM     18  N   UNL     1       7.177   6.267  16.065  0.00  0.00    +0.000 NA
ATOM     19  C   UNL     1       7.430   5.669  17.247  0.00  0.00    +0.000 A 
ATOM     20  C   UNL     1       6.714   4.589  17.723  0.00  0.00    +0.000 A 
ENDBRANCH   2  15
BRANCH  10  21
ATOM     21  C   UNL     1       1.611   8.235  20.533  0.00  0.00    +0.000 A 
ATOM     22  C   UNL     1       1.272   8.996  19.408  0.00  0.00    +0.000 A 
ATOM     23  C   UNL     1       0.525  10.169  19.517  0.00  0.00    +0.000 A 
ATOM     24  C   UNL     1       0.098  10.601  20.767  0.00  0.00    +0.000 A 
ATOM     25  C   UNL     1       0.433   9.868  21.904  0.00  0.00    +0.000 A 
ATOM     26  C   UNL     1       1.185   8.693  21.794  0.00  0.00    +0.000 A 
ENDBRANCH  10  21
TORSDOF 2
ENDMDL
MODEL 6
REMARK VINA RESULT:      -6.9      8.938     11.822
REMARK  Name = 
REMARK  2 active torsions:
REMARK  status: ('A' for Active; 'I' for Inactive)
REMARK    1  A    between atoms: C_2  and  C_3
REMARK    2  A    between atoms: N_16  and  C_17
REMARK                            x       y       z     vdW  Elec       q    Type
REMARK                         _______ _______ _______ _____ _____    ______ ____
ROOT
ATOM      1  O   UNL     1       4.831   2.239  16.727  0.00  0.00    +0.000 OA
ATOM      2  C   UNL     1       4.846   3.218  17.471  0.00  0.00    +0.000 C 
ATOM      3  N   UNL     1       4.093   3.291  18.644  0.00  0.00    +0.000 N 
ATOM      4  C   UNL     1       3.427   2.065  19.139  0.00  0.00    +0.000 C 
ATOM      5  C   UNL     1       1.894   2.217  19.234  0.00  0.00    +0.000 C 
ATOM      6  C   UNL     1       1.598   3.542  19.826  0.00  0.00    +0.000 A 
ATOM      7  N   UNL     1       0.426   3.975  20.346  0.00  0.00    +0.000 N 
ATOM      8  N   UNL     1       0.477   5.255  20.732  0.00  0.00    +0.000 NA
ATOM      9  C   UNL     1       1.710   5.677  20.421  0.00  0.00    +0.000 A 
ATOM     10  N   UNL     1       2.199   6.936  20.572  0.00  0.00    +0.000 N 
ATOM     11  C   UNL     1       2.470   4.605  19.890  0.00  0.00    +0.000 A 
ATOM     12  C   UNL     1       3.870   4.533  19.419  0.00  0.00    +0.000 C 
ATOM     13  H   UNL     1      -0.451   3.478  20.460  0.00  0.00    +0.000 HD
ATOM     14  H   UNL     1       3.189   7.100  20.440  0.00  0.00    +0.000 HD
ENDROOT
BRANCH   2  15
ATOM     15  C   UNL     1       5.710   4.364  17.078  0.00  0.00    +0.000 A 
ATOM     16  C   UNL     1       5.348   5.129  15.970  0.00  0.00    +0.000 A 
ATOM     17  C   UNL     1       6.141   6.215  15.647  0.00  0.00    +0.000 A 
ATOM     18  N   UNL     1       7.236   6.580  16.350  0.00  0.00    +0.000 NA
ATOM     19  C   UNL     1       7.589   5.794  17.387  0.00  0.00    +0.000 A 
ATOM     20  C   UNL     1       6.889   4.665  17.761  0.00  0.00    +0.000 A 
ENDBRANCH   2  15
BRANCH  10  21
ATOM     21  C   UNL     1       1.483   8.154  20.719  0.00  0.00    +0.000 A 
ATOM     22  C   UNL     1       1.055   8.623  21.967  0.00  0.00    +0.000 A 
ATOM     23  C   UNL     1       0.433   9.864  22.107  0.00  0.00    +0.000 A 
ATOM     24  C   UNL     1       0.233  10.665  20.990  0.00  0.00    +0.000 A 
ATOM     25  C   UNL     1       0.638  10.216  19.734  0.00  0.00    +0.000 A 
ATOM     26  C   UNL     1       1.259   8.969  19.594  0.00  0.00    +0.000 A 
ENDBRANCH  10  21
TORSDOF 2
ENDMDL
MODEL 7
REMARK VINA RESULT:      -6.5      3.176      5.932
REMARK  Name = 
REMARK  2 active torsions:
REMARK  status: ('A' for Active; 'I' for Inactive)
REMARK    1  A    between atoms: C_2  and  C_3
REMARK    2  A    between atoms: N_16  and  C_17
REMARK                            x       y       z     vdW  Elec       q    Type
REMARK                         _______ _______ _______ _____ _____    ______ ____
ROOT
ATOM      1  O   UNL     1      -5.092  14.848  20.756  0.00  0.00    +0.000 OA
ATOM      2  C   UNL     1      -4.607  13.723  20.862  0.00  0.00    +0.000 C 
ATOM      3  N   UNL     1      -3.427  13.469  21.563  0.00  0.00    +0.000 N 
ATOM      4  C   UNL     1      -2.853  14.545  22.404  0.00  0.00    +0.000 C 
ATOM      5  C   UNL     1      -1.428  14.944  21.969  0.00  0.00    +0.000 C 
ATOM      6  C   UNL     1      -0.667  13.705  21.687  0.00  0.00    +0.000 A 
ATOM      7  N   UNL     1       0.672  13.566  21.555  0.00  0.00    +0.000 N 
ATOM      8  N   UNL     1       1.029  12.319  21.227  0.00  0.00    +0.000 NA
ATOM      9  C   UNL     1      -0.116  11.635  21.107  0.00  0.00    +0.000 A 
ATOM     10  N   UNL     1      -0.251  10.338  20.724  0.00  0.00    +0.000 N 
ATOM     11  C   UNL     1      -1.215  12.466  21.441  0.00  0.00    +0.000 A 
ATOM     12  C   UNL     1      -2.668  12.199  21.492  0.00  0.00    +0.000 C 
ATOM     13  H   UNL     1       1.405  14.261  21.653  0.00  0.00    +0.000 HD
ATOM     14  H   UNL     1      -1.154   9.889  20.813  0.00  0.00    +0.000 HD
ENDROOT
BRANCH   2  15
ATOM     15  C   UNL     1      -5.327  12.601  20.201  0.00  0.00    +0.000 A 
ATOM     16  C   UNL     1      -4.924  12.203  18.927  0.00  0.00    +0.000 A 
ATOM     17  C   UNL     1      -5.579  11.131  18.348  0.00  0.00    +0.000 A 
ATOM     18  N   UNL     1      -6.573  10.443  18.952  0.00  0.00    +0.000 NA
ATOM     19  C   UNL     1      -6.974  10.880  20.163  0.00  0.00    +0.000 A 
ATOM     20  C   UNL     1      -6.415  11.968  20.804  0.00  0.00    +0.000 A 
ENDBRANCH   2  15
BRANCH  10  21
ATOM     21  C   UNL     1       0.671   9.522  20.016  0.00  0.00    +0.000 A 
ATOM     22  C   UNL     1       1.282   8.406  20.601  0.00  0.00    +0.000 A 
ATOM     23  C   UNL     1       2.115   7.562  19.867  0.00  0.00    +0.000 A 
ATOM     24  C   UNL     1       2.349   7.821  18.523  0.00  0.00    +0.000 A 
ATOM     25  C   UNL     1       1.764   8.933  17.920  0.00  0.00    +0.000 A 
ATOM     26  C   UNL     1       0.930   9.782  18.658  0.00  0.00    +0.000 A 
ENDBRANCH  10  21
TORSDOF 2
ENDMDL
MODEL 8
REMARK VINA RESULT:      -6.5      6.906      8.712
REMARK  Name = 
REMARK  2 active torsions:
REMARK  status: ('A' for Active; 'I' for Inactive)
REMARK    1  A    between atoms: C_2  and  C_3
REMARK    2  A    between atoms: N_16  and  C_17
REMARK                            x       y       z     vdW  Elec       q    Type
REMARK                         _______ _______ _______ _____ _____    ______ ____
ROOT
ATOM      1  O   UNL     1       0.549  11.920  21.810  0.00  0.00    +0.000 OA
ATOM      2  C   UNL     1       0.971  11.476  20.744  0.00  0.00    +0.000 C 
ATOM      3  N   UNL     1       0.760  10.159  20.333  0.00  0.00    +0.000 N 
ATOM      4  C   UNL     1      -0.199   9.323  21.091  0.00  0.00    +0.000 C 
ATOM      5  C   UNL     1       0.457   8.061  21.692  0.00  0.00    +0.000 C 
ATOM      6  C   UNL     1       1.344   7.469  20.664  0.00  0.00    +0.000 A 
ATOM      7  N   UNL     1       1.886   6.229  20.652  0.00  0.00    +0.000 N 
ATOM      8  N   UNL     1       2.704   6.037  19.611  0.00  0.00    +0.000 NA
ATOM      9  C   UNL     1       2.722   7.200  18.946  0.00  0.00    +0.000 A 
ATOM     10  N   UNL     1       3.468   7.496  17.850  0.00  0.00    +0.000 N 
ATOM     11  C   UNL     1       1.832   8.120  19.554  0.00  0.00    +0.000 A 
ATOM     12  C   UNL     1       1.468   9.510  19.206  0.00  0.00    +0.000 C 
ATOM     13  H   UNL     1       1.767   5.468  21.312  0.00  0.00    +0.000 HD
ATOM     14  H   UNL     1       3.287   8.356  17.348  0.00  0.00    +0.000 HD
ENDROOT
BRANCH   2  15
ATOM     15  C   UNL     1       1.744  12.404  19.873  0.00  0.00    +0.000 A 
ATOM     16  C   UNL     1       2.539  13.381  20.472  0.00  0.00    +0.000 A 
ATOM     17  C   UNL     1       3.281  14.205  19.646  0.00  0.00    +0.000 A 
ATOM     18  N   UNL     1       3.287  14.108  18.298  0.00  0.00    +0.000 NA
ATOM     19  C   UNL     1       2.473  13.186  17.745  0.00  0.00    +0.000 A 
ATOM     20  C   UNL     1       1.661  12.347  18.481  0.00  0.00    +0.000 A 
ENDBRANCH   2  15
BRANCH  10  21
ATOM     21  C   UNL     1       4.639   6.849  17.372  0.00  0.00    +0.000 A 
ATOM     22  C   UNL     1       5.920   7.374  17.580  0.00  0.00    +0.000 A 
ATOM     23  C   UNL     1       7.066   6.683  17.186  0.00  0.00    +0.000 A 
ATOM     24  C   UNL     1       6.946   5.440  16.576  0.00  0.00    +0.000 A 
ATOM     25  C   UNL     1       5.681   4.901  16.346  0.00  0.00    +0.000 A 
ATOM     26  C   UNL     1       4.532   5.597  16.739  0.00  0.00    +0.000 A 
ENDBRANCH  10  21
TORSDOF 2
ENDMDL
MODEL 9
REMARK VINA RESULT:      -6.5     11.043     13.662
REMARK  Name = 
REMARK  2 active torsions:
REMARK  status: ('A' for Active; 'I' for Inactive)
REMARK    1  A    between atoms: C_2  and  C_3
REMARK    2  A    between atoms: N_16  and  C_17
REMARK                            x       y       z     vdW  Elec       q    Type
REMARK                         _______ _______ _______ _____ _____    ______ ____
ROOT
ATOM      1  O   UNL     1       4.013   5.961  20.227  0.00  0.00    +0.000 OA
ATOM      2  C   UNL     1       4.161   5.054  19.411  0.00  0.00    +0.000 C 
ATOM      3  N   UNL     1       5.338   4.872  18.683  0.00  0.00    +0.000 N 
ATOM      4  C   UNL     1       6.538   5.652  19.065  0.00  0.00    +0.000 C 
ATOM      5  C   UNL     1       7.053   6.549  17.920  0.00  0.00    +0.000 C 
ATOM      6  C   UNL     1       7.018   5.762  16.666  0.00  0.00    +0.000 A 
ATOM      7  N   UNL     1       7.631   6.045  15.493  0.00  0.00    +0.000 N 
ATOM      8  N   UNL     1       7.334   5.162  14.533  0.00  0.00    +0.000 NA
ATOM      9  C   UNL     1       6.472   4.300  15.089  0.00  0.00    +0.000 A 
ATOM     10  N   UNL     1       5.846   3.264  14.471  0.00  0.00    +0.000 N 
ATOM     11  C   UNL     1       6.285   4.617  16.458  0.00  0.00    +0.000 A 
ATOM     12  C   UNL     1       5.467   3.977  17.511  0.00  0.00    +0.000 C 
ATOM     13  H   UNL     1       8.248   6.815  15.258  0.00  0.00    +0.000 HD
ATOM     14  H   UNL     1       5.333   2.594  15.029  0.00  0.00    +0.000 HD
ENDROOT
BRANCH   2  15
ATOM     15  C   UNL     1       3.016   4.124  19.204  0.00  0.00    +0.000 A 
ATOM     16  C   UNL     1       2.021   4.477  18.293  0.00  0.00    +0.000 A 
ATOM     17  C   UNL     1       0.989   3.581  18.085  0.00  0.00    +0.000 A 
ATOM     18  N   UNL     1       0.900   2.382  18.704  0.00  0.00    +0.000 NA
ATOM     19  C   UNL     1       1.850   2.089  19.614  0.00  0.00    +0.000 A 
ATOM     20  C   UNL     1       2.895   2.936  19.925  0.00  0.00    +0.000 A 
ENDBRANCH   2  15
BRANCH  10  21
ATOM     21  C   UNL     1       5.636   3.058  13.081  0.00  0.00    +0.000 A 
ATOM     22  C   UNL     1       6.517   2.305  12.296  0.00  0.00    +0.000 A 
ATOM     23  C   UNL     1       6.251   2.034  10.954  0.00  0.00    +0.000 A 
ATOM     24  C   UNL     1       5.085   2.514  10.371  0.00  0.00    +0.000 A 
ATOM     25  C   UNL     1       4.197   3.278  11.128  0.00  0.00    +0.000 A 
ATOM     26  C   UNL     1       4.467   3.551  12.474  0.00  0.00    +0.000 A 
ENDBRANCH  10  21
TORSDOF 2
ENDMDL
