MODEL 1
REMARK VINA RESULT:      -8.2      0.000      0.000
REMARK  Name = 
REMARK  2 active torsions:
REMARK  status: ('A' for Active; 'I' for Inactive)
REMARK    1  A    between atoms: C_2  and  C_8
REMARK    2  A    between atoms: N_3  and  C_4
REMARK                            x       y       z     vdW  Elec       q    Type
REMARK                         _______ _______ _______ _____ _____    ______ ____
ROOT
ATOM      1  C   UNL     1       6.462   5.121  15.191  0.00  0.00    +0.000 C 
ATOM      2  C   UNL     1       5.130   4.424  15.568  0.00  0.00    +0.000 C 
ATOM      3  C   UNL     1       4.892   4.478  17.051  0.00  0.00    +0.000 A 
ATOM      4  C   UNL     1       5.923   4.813  17.905  0.00  0.00    +0.000 A 
ATOM      5  S   UNL     1       5.452   4.809  19.534  0.00  0.00    +0.000 S 
ATOM      6  C   UNL     1       3.840   4.346  19.140  0.00  0.00    +0.000 A 
ATOM      7  C   UNL     1       2.784   4.132  20.046  0.00  0.00    +0.000 A 
ATOM      8  C   UNL     1       1.535   3.752  19.554  0.00  0.00    +0.000 A 
ATOM      9  C   UNL     1       1.338   3.589  18.190  0.00  0.00    +0.000 A 
ATOM     10  C   UNL     1       2.389   3.804  17.291  0.00  0.00    +0.000 A 
ATOM     11  C   UNL     1       3.670   4.194  17.760  0.00  0.00    +0.000 A 
ATOM     12  C   UNL     1       7.309   5.187  17.487  0.00  0.00    +0.000 C 
ATOM     13  N   UNL     1       7.596   4.754  16.104  0.00  0.00    +0.000 NA
ATOM     14  H   UNL     1       7.643   3.731  16.121  0.00  0.00    +0.000 HD
ENDROOT
BRANCH   1  16
ATOM     15  O   UNL     1       7.696   5.352  13.101  0.00  0.00    +0.000 OA
ATOM     16  C   UNL     1       6.839   4.749  13.741  0.00  0.00    +0.000 C 
ATOM     17  N   UNL     1       6.161   3.649  13.250  0.00  0.00    +0.000 N 
ATOM     18  H   UNL     1       5.412   3.309  13.852  0.00  0.00    +0.000 HD
BRANCH  17  19
ATOM     19  C   UNL     1       6.356   3.164  11.880  0.00  0.00    +0.000 C 
ATOM     20  C   UNL     1       7.568   2.227  11.671  0.00  0.00    +0.000 C 
ATOM     21  C   UNL     1       6.673   1.401  10.721  0.00  0.00    +0.000 C 
ATOM     22  C   UNL     1       5.463   1.959  11.495  0.00  0.00    +0.000 C 
ENDBRANCH  17  19
ENDBRANCH   1  16
TORSDOF 2
ENDMDL
MODEL 2
REMARK VINA RESULT:      -7.6      2.600      2.800
REMARK  Name = 
REMARK  2 active torsions:
REMARK  status: ('A' for Active; 'I' for Inactive)
REMARK    1  A    between atoms: C_2  and  C_8
REMARK    2  A    between atoms: N_3  and  C_4
REMARK                            x       y       z     vdW  Elec       q    Type
REMARK                         _______ _______ _______ _____ _____    ______ ____
ROOT
ATOM      1  C   UNL     1       5.853   5.069  16.352  0.00  0.00    +0.000 C 
ATOM      2  C   UNL     1       4.745   6.153  16.365  0.00  0.00    +0.000 C 
ATOM      3  C   UNL     1       4.005   6.155  17.673  0.00  0.00    +0.000 A 
ATOM      4  C   UNL     1       4.133   5.091  18.542  0.00  0.00    +0.000 A 
ATOM      5  S   UNL     1       3.214   5.284  19.954  0.00  0.00    +0.000 S 
ATOM      6  C   UNL     1       2.606   6.809  19.434  0.00  0.00    +0.000 A 
ATOM      7  C   UNL     1       1.714   7.640  20.139  0.00  0.00    +0.000 A 
ATOM      8  C   UNL     1       1.316   8.848  19.565  0.00  0.00    +0.000 A 
ATOM      9  C   UNL     1       1.794   9.224  18.317  0.00  0.00    +0.000 A 
ATOM     10  C   UNL     1       2.682   8.397  17.620  0.00  0.00    +0.000 A 
ATOM     11  C   UNL     1       3.108   7.164  18.178  0.00  0.00    +0.000 A 
ATOM     12  C   UNL     1       5.005   3.896  18.327  0.00  0.00    +0.000 C 
ATOM     13  N   UNL     1       5.392   3.752  16.909  0.00  0.00    +0.000 NA
ATOM     14  H   UNL     1       4.543   3.496  16.397  0.00  0.00    +0.000 HD
ENDROOT
BRANCH   1  16
ATOM     15  O   UNL     1       7.443   5.250  14.514  0.00  0.00    +0.000 OA
ATOM     16  C   UNL     1       6.346   4.861  14.904  0.00  0.00    +0.000 C 
ATOM     17  N   UNL     1       5.463   4.159  14.106  0.00  0.00    +0.000 N 
ATOM     18  H   UNL     1       4.553   3.986  14.531  0.00  0.00    +0.000 HD
BRANCH  17  19
ATOM     19  C   UNL     1       5.738   3.894  12.690  0.00  0.00    +0.000 C 
ATOM     20  C   UNL     1       6.422   2.541  12.386  0.00  0.00    +0.000 C 
ATOM     21  C   UNL     1       5.504   2.438  11.148  0.00  0.00    +0.000 C 
ATOM     22  C   UNL     1       4.522   3.365  11.891  0.00  0.00    +0.000 C 
ENDBRANCH  17  19
ENDBRANCH   1  16
TORSDOF 2
ENDMDL
MODEL 3
REMARK VINA RESULT:      -7.3      5.587      7.221
REMARK  Name = 
REMARK  2 active torsions:
REMARK  status: ('A' for Active; 'I' for Inactive)
REMARK    1  A    between atoms: C_2  and  C_8
REMARK    2  A    between atoms: N_3  and  C_4
REMARK                            x       y       z     vdW  Elec       q    Type
REMARK                         _______ _______ _______ _____ _____    ______ ____
ROOT
ATOM      1  C   UNL     1       2.384   6.998  18.928  0.00  0.00    +0.000 C 
ATOM      2  C   UNL     1       1.956   7.565  20.306  0.00  0.00    +0.000 C 
ATOM      3  C   UNL     1       1.198   8.853  20.149  0.00  0.00    +0.000 A 
ATOM      4  C   UNL     1       1.225   9.530  18.947  0.00  0.00    +0.000 A 
ATOM      5  S   UNL     1       0.314  10.960  18.980  0.00  0.00    +0.000 S 
ATOM      6  C   UNL     1      -0.140  10.717  20.624  0.00  0.00    +0.000 A 
ATOM      7  C   UNL     1      -0.958  11.558  21.401  0.00  0.00    +0.000 A 
ATOM      8  C   UNL     1      -1.222  11.212  22.726  0.00  0.00    +0.000 A 
ATOM      9  C   UNL     1      -0.685  10.053  23.269  0.00  0.00    +0.000 A 
ATOM     10  C   UNL     1       0.127   9.217  22.494  0.00  0.00    +0.000 A 
ATOM     11  C   UNL     1       0.411   9.540  21.142  0.00  0.00    +0.000 A 
ATOM     12  C   UNL     1       1.929   9.073  17.710  0.00  0.00    +0.000 C 
ATOM     13  N   UNL     1       2.947   8.046  18.011  0.00  0.00    +0.000 NA
ATOM     14  H   UNL     1       3.696   8.517  18.526  0.00  0.00    +0.000 HD
ENDROOT
BRANCH   1  16
ATOM     15  O   UNL     1       3.377   5.081  20.059  0.00  0.00    +0.000 OA
ATOM     16  C   UNL     1       3.438   5.890  19.137  0.00  0.00    +0.000 C 
ATOM     17  N   UNL     1       4.424   5.863  18.169  0.00  0.00    +0.000 N 
ATOM     18  H   UNL     1       4.405   6.651  17.523  0.00  0.00    +0.000 HD
BRANCH  17  19
ATOM     19  C   UNL     1       5.533   4.905  18.217  0.00  0.00    +0.000 C 
ATOM     20  C   UNL     1       6.274   4.677  16.879  0.00  0.00    +0.000 C 
ATOM     21  C   UNL     1       7.585   4.641  17.695  0.00  0.00    +0.000 C 
ATOM     22  C   UNL     1       6.860   5.490  18.758  0.00  0.00    +0.000 C 
ENDBRANCH  17  19
ENDBRANCH   1  16
TORSDOF 2
ENDMDL
MODEL 4
REMARK VINA RESULT:      -7.3      3.009      3.605
REMARK  Name = 
REMARK  2 active torsions:
REMARK  status: ('A' for Active; 'I' for Inactive)
REMARK    1  A    between atoms: C_2  and  C_8
REMARK    2  A    between atoms: N_3  and  C_4
REMARK                            x       y       z     vdW  Elec       q    Type
REMARK                         _______ _______ _______ _____ _____    ______ ____
ROOT
ATOM      1  C   UNL     1       5.829   4.895  17.668  0.00  0.00    +0.000 C 
ATOM      2  C   UNL     1       4.898   6.064  17.253  0.00  0.00    +0.000 C 
ATOM      3  C   UNL     1       3.835   6.301  18.287  0.00  0.00    +0.000 A 
ATOM      4  C   UNL     1       3.591   5.354  19.260  0.00  0.00    +0.000 A 
ATOM      5  S   UNL     1       2.351   5.809  20.323  0.00  0.00    +0.000 S 
ATOM      6  C   UNL     1       2.096   7.300  19.499  0.00  0.00    +0.000 A 
ATOM      7  C   UNL     1       1.151   8.291  19.830  0.00  0.00    +0.000 A 
ATOM      8  C   UNL     1       1.074   9.442  19.047  0.00  0.00    +0.000 A 
ATOM      9  C   UNL     1       1.917   9.608  17.957  0.00  0.00    +0.000 A 
ATOM     10  C   UNL     1       2.856   8.622  17.630  0.00  0.00    +0.000 A 
ATOM     11  C   UNL     1       2.962   7.441  18.409  0.00  0.00    +0.000 A 
ATOM     12  C   UNL     1       4.339   4.070  19.427  0.00  0.00    +0.000 C 
ATOM     13  N   UNL     1       5.079   3.708  18.201  0.00  0.00    +0.000 NA
ATOM     14  H   UNL     1       4.378   3.461  17.497  0.00  0.00    +0.000 HD
ENDROOT
BRANCH   1  16
ATOM     15  O   UNL     1       7.897   4.395  16.478  0.00  0.00    +0.000 OA
ATOM     16  C   UNL     1       6.671   4.457  16.451  0.00  0.00    +0.000 C 
ATOM     17  N   UNL     1       5.919   4.098  15.348  0.00  0.00    +0.000 N 
ATOM     18  H   UNL     1       4.922   4.292  15.434  0.00  0.00    +0.000 HD
BRANCH  17  19
ATOM     19  C   UNL     1       6.540   3.689  14.084  0.00  0.00    +0.000 C 
ATOM     20  C   UNL     1       5.577   3.559  12.881  0.00  0.00    +0.000 C 
ATOM     21  C   UNL     1       6.691   4.189  12.015  0.00  0.00    +0.000 C 
ATOM     22  C   UNL     1       7.225   4.839  13.307  0.00  0.00    +0.000 C 
ENDBRANCH  17  19
ENDBRANCH   1  16
TORSDOF 2
ENDMDL
MODEL 5
REMARK VINA RESULT:      -7.2      4.924      8.654
REMARK  Name = 
REMARK  2 active torsions:
REMARK  status: ('A' for Active; 'I' for Inactive)
REMARK    1  A    between atoms: C_2  and  C_8
REMARK    2  A    between atoms: N_3  and  C_4
REMARK                            x       y       z     vdW  Elec       q    Type
REMARK                         _______ _______ _______ _____ _____    ______ ____
ROOT
ATOM      1  C   UNL     1       1.927   7.027  19.519  0.00  0.00    +0.000 C 
ATOM      2  C   UNL     1       3.025   7.158  18.432  0.00  0.00    +0.000 C 
ATOM      3  C   UNL     1       3.669   5.829  18.152  0.00  0.00    +0.000 A 
ATOM      4  C   UNL     1       3.485   4.774  19.021  0.00  0.00    +0.000 A 
ATOM      5  S   UNL     1       4.299   3.370  18.529  0.00  0.00    +0.000 S 
ATOM      6  C   UNL     1       4.935   4.144  17.128  0.00  0.00    +0.000 A 
ATOM      7  C   UNL     1       5.769   3.563  16.154  0.00  0.00    +0.000 A 
ATOM      8  C   UNL     1       6.200   4.341  15.080  0.00  0.00    +0.000 A 
ATOM      9  C   UNL     1       5.811   5.668  14.973  0.00  0.00    +0.000 A 
ATOM     10  C   UNL     1       4.980   6.244  15.941  0.00  0.00    +0.000 A 
ATOM     11  C   UNL     1       4.522   5.479  17.044  0.00  0.00    +0.000 A 
ATOM     12  C   UNL     1       2.637   4.802  20.252  0.00  0.00    +0.000 C 
ATOM     13  N   UNL     1       2.354   6.185  20.687  0.00  0.00    +0.000 NA
ATOM     14  H   UNL     1       3.238   6.574  21.023  0.00  0.00    +0.000 HD
ENDROOT
BRANCH   1  16
ATOM     15  O   UNL     1       1.566   9.428  19.305  0.00  0.00    +0.000 OA
ATOM     16  C   UNL     1       1.540   8.434  20.023  0.00  0.00    +0.000 C 
ATOM     17  N   UNL     1       1.118   8.461  21.339  0.00  0.00    +0.000 N 
ATOM     18  H   UNL     1       1.241   7.583  21.842  0.00  0.00    +0.000 HD
BRANCH  17  19
ATOM     19  C   UNL     1       0.743   9.711  22.010  0.00  0.00    +0.000 C 
ATOM     20  C   UNL     1      -0.540  10.391  21.480  0.00  0.00    +0.000 C 
ATOM     21  C   UNL     1      -0.883  10.723  22.949  0.00  0.00    +0.000 C 
ATOM     22  C   UNL     1      -0.010   9.517  23.348  0.00  0.00    +0.000 C 
ENDBRANCH  17  19
ENDBRANCH   1  16
TORSDOF 2
ENDMDL
MODEL 6
REMARK VINA RESULT:      -7.1      1.663      2.090
REMARK  Name = 
REMARK  2 active torsions:
REMARK  status: ('A' for Active; 'I' for Inactive)
REMARK    1  A    between atoms: C_2  and  C_8
REMARK    2  A    between atoms: N_3  and  C_4
REMARK                            x       y       z     vdW  Elec       q    Type
REMARK                         _______ _______ _______ _____ _____    ______ ____
ROOT
ATOM      1  C   UNL     1       5.083   5.394  15.887  0.00  0.00    +0.000 C 
ATOM      2  C   UNL     1       4.541   4.269  16.807  0.00  0.00    +0.000 C 
ATOM      3  C   UNL     1       3.661   4.831  17.888  0.00  0.00    +0.000 A 
ATOM      4  C   UNL     1       3.669   6.185  18.151  0.00  0.00    +0.000 A 
ATOM      5  S   UNL     1       2.614   6.614  19.409  0.00  0.00    +0.000 S 
ATOM      6  C   UNL     1       2.119   4.981  19.645  0.00  0.00    +0.000 A 
ATOM      7  C   UNL     1       1.186   4.517  20.592  0.00  0.00    +0.000 A 
ATOM      8  C   UNL     1       0.904   3.152  20.652  0.00  0.00    +0.000 A 
ATOM      9  C   UNL     1       1.535   2.266  19.790  0.00  0.00    +0.000 A 
ATOM     10  C   UNL     1       2.460   2.730  18.848  0.00  0.00    +0.000 A 
ATOM     11  C   UNL     1       2.766   4.113  18.760  0.00  0.00    +0.000 A 
ATOM     12  C   UNL     1       4.468   7.209  17.411  0.00  0.00    +0.000 C 
ATOM     13  N   UNL     1       5.573   6.591  16.650  0.00  0.00    +0.000 NA
ATOM     14  H   UNL     1       6.247   6.246  17.339  0.00  0.00    +0.000 HD
ENDROOT
BRANCH   1  16
ATOM     15  O   UNL     1       7.417   5.057  15.272  0.00  0.00    +0.000 OA
ATOM     16  C   UNL     1       6.235   4.836  15.025  0.00  0.00    +0.000 C 
ATOM     17  N   UNL     1       5.817   4.029  13.984  0.00  0.00    +0.000 N 
ATOM     18  H   UNL     1       4.808   4.013  13.839  0.00  0.00    +0.000 HD
BRANCH  17  19
ATOM     19  C   UNL     1       6.762   3.436  13.032  0.00  0.00    +0.000 C 
ATOM     20  C   UNL     1       6.132   2.552  11.931  0.00  0.00    +0.000 C 
ATOM     21  C   UNL     1       7.152   3.173  10.951  0.00  0.00    +0.000 C 
ATOM     22  C   UNL     1       7.209   4.389  11.897  0.00  0.00    +0.000 C 
ENDBRANCH  17  19
ENDBRANCH   1  16
TORSDOF 2
ENDMDL
MODEL 7
REMARK VINA RESULT:      -7.1      5.745      7.482
REMARK  Name = 
REMARK  2 active torsions:
REMARK  status: ('A' for Active; 'I' for Inactive)
REMARK    1  A    between atoms: C_2  and  C_8
REMARK    2  A    between atoms: N_3  and  C_4
REMARK                            x       y       z     vdW  Elec       q    Type
REMARK                         _______ _______ _______ _____ _____    ______ ____
ROOT
ATOM      1  C   UNL     1       2.194   7.056  18.925  0.00  0.00    +0.000 C 
ATOM      2  C   UNL     1       1.757   7.601  20.309  0.00  0.00    +0.000 C 
ATOM      3  C   UNL     1       1.123   8.957  20.181  0.00  0.00    +0.000 A 
ATOM      4  C   UNL     1       1.262   9.678  19.014  0.00  0.00    +0.000 A 
ATOM      5  S   UNL     1       0.480  11.182  19.074  0.00  0.00    +0.000 S 
ATOM      6  C   UNL     1      -0.067  10.911  20.685  0.00  0.00    +0.000 A 
ATOM      7  C   UNL     1      -0.842  11.790  21.467  0.00  0.00    +0.000 A 
ATOM      8  C   UNL     1      -1.193  11.412  22.763  0.00  0.00    +0.000 A 
ATOM      9  C   UNL     1      -0.785  10.188  23.274  0.00  0.00    +0.000 A 
ATOM     10  C   UNL     1      -0.016   9.316  22.494  0.00  0.00    +0.000 A 
ATOM     11  C   UNL     1       0.355   9.669  21.171  0.00  0.00    +0.000 A 
ATOM     12  C   UNL     1       1.979   9.212  17.786  0.00  0.00    +0.000 C 
ATOM     13  N   UNL     1       2.888   8.087  18.081  0.00  0.00    +0.000 NA
ATOM     14  H   UNL     1       3.651   8.466  18.647  0.00  0.00    +0.000 HD
ENDROOT
BRANCH   1  16
ATOM     15  O   UNL     1       4.332   5.974  19.374  0.00  0.00    +0.000 OA
ATOM     16  C   UNL     1       3.136   5.849  19.126  0.00  0.00    +0.000 C 
ATOM     17  N   UNL     1       2.501   4.624  19.050  0.00  0.00    +0.000 N 
ATOM     18  H   UNL     1       1.531   4.668  18.743  0.00  0.00    +0.000 HD
BRANCH  17  19
ATOM     19  C   UNL     1       3.234   3.360  19.179  0.00  0.00    +0.000 C 
ATOM     20  C   UNL     1       2.365   2.081  19.162  0.00  0.00    +0.000 C 
ATOM     21  C   UNL     1       3.472   1.428  18.306  0.00  0.00    +0.000 C 
ATOM     22  C   UNL     1       3.865   2.850  17.860  0.00  0.00    +0.000 C 
ENDBRANCH  17  19
ENDBRANCH   1  16
TORSDOF 2
ENDMDL
MODEL 8
REMARK VINA RESULT:      -7.0      5.228      8.264
REMARK  Name = 
REMARK  2 active torsions:
REMARK  status: ('A' for Active; 'I' for Inactive)
REMARK    1  A    between atoms: C_2  and  C_8
REMARK    2  A    between atoms: N_3  and  C_4
REMARK                            x       y       z     vdW  Elec       q    Type
REMARK                         _______ _______ _______ _____ _____    ______ ____
ROOT
ATOM      1  C   UNL     1       1.798   6.889  19.923  0.00  0.00    +0.000 C 
ATOM      2  C   UNL     1       2.882   7.100  18.835  0.00  0.00    +0.000 C 
ATOM      3  C   UNL     1       3.507   5.794  18.433  0.00  0.00    +0.000 A 
ATOM      4  C   UNL     1       3.324   4.671  19.213  0.00  0.00    +0.000 A 
ATOM      5  S   UNL     1       4.116   3.306  18.592  0.00  0.00    +0.000 S 
ATOM      6  C   UNL     1       4.740   4.190  17.252  0.00  0.00    +0.000 A 
ATOM      7  C   UNL     1       5.554   3.685  16.219  0.00  0.00    +0.000 A 
ATOM      8  C   UNL     1       5.978   4.547  15.208  0.00  0.00    +0.000 A 
ATOM      9  C   UNL     1       5.602   5.883  15.220  0.00  0.00    +0.000 A 
ATOM     10  C   UNL     1       4.791   6.382  16.246  0.00  0.00    +0.000 A 
ATOM     11  C   UNL     1       4.340   5.530  17.287  0.00  0.00    +0.000 A 
ATOM     12  C   UNL     1       2.494   4.603  20.455  0.00  0.00    +0.000 C 
ATOM     13  N   UNL     1       2.232   5.946  21.009  0.00  0.00    +0.000 NA
ATOM     14  H   UNL     1       3.126   6.297  21.364  0.00  0.00    +0.000 HD
ENDROOT
BRANCH   1  16
ATOM     15  O   UNL     1       1.419   8.441  21.763  0.00  0.00    +0.000 OA
ATOM     16  C   UNL     1       1.434   8.251  20.551  0.00  0.00    +0.000 C 
ATOM     17  N   UNL     1       1.173   9.244  19.625  0.00  0.00    +0.000 N 
ATOM     18  H   UNL     1       1.126   8.921  18.659  0.00  0.00    +0.000 HD
BRANCH  17  19
ATOM     19  C   UNL     1       0.774  10.596  20.027  0.00  0.00    +0.000 C 
ATOM     20  C   UNL     1       1.138  11.722  19.032  0.00  0.00    +0.000 C 
ATOM     21  C   UNL     1      -0.236  12.350  19.352  0.00  0.00    +0.000 C 
ATOM     22  C   UNL     1      -0.709  10.936  19.742  0.00  0.00    +0.000 C 
ENDBRANCH  17  19
ENDBRANCH   1  16
TORSDOF 2
ENDMDL
MODEL 9
REMARK VINA RESULT:      -6.9      5.242      8.530
REMARK  Name = 
REMARK  2 active torsions:
REMARK  status: ('A' for Active; 'I' for Inactive)
REMARK    1  A    between atoms: C_2  and  C_8
REMARK    2  A    between atoms: N_3  and  C_4
REMARK                            x       y       z     vdW  Elec       q    Type
REMARK                         _______ _______ _______ _____ _____    ______ ____
ROOT
ATOM      1  C   UNL     1       1.913   7.780  18.808  0.00  0.00    +0.000 C 
ATOM      2  C   UNL     1       3.075   7.663  17.789  0.00  0.00    +0.000 C 
ATOM      3  C   UNL     1       3.685   6.291  17.818  0.00  0.00    +0.000 A 
ATOM      4  C   UNL     1       3.413   5.435  18.865  0.00  0.00    +0.000 A 
ATOM      5  S   UNL     1       4.201   3.941  18.713  0.00  0.00    +0.000 S 
ATOM      6  C   UNL     1       4.944   4.405  17.230  0.00  0.00    +0.000 A 
ATOM      7  C   UNL     1       5.811   3.620  16.445  0.00  0.00    +0.000 A 
ATOM      8  C   UNL     1       6.331   4.157  15.267  0.00  0.00    +0.000 A 
ATOM      9  C   UNL     1       5.998   5.446  14.875  0.00  0.00    +0.000 A 
ATOM     10  C   UNL     1       5.135   6.223  15.656  0.00  0.00    +0.000 A 
ATOM     11  C   UNL     1       4.586   5.705  16.858  0.00  0.00    +0.000 A 
ATOM     12  C   UNL     1       2.497   5.729  20.010  0.00  0.00    +0.000 C 
ATOM     13  N   UNL     1       2.241   7.177  20.144  0.00  0.00    +0.000 NA
ATOM     14  H   UNL     1       3.119   7.604  20.452  0.00  0.00    +0.000 HD
ENDROOT
BRANCH   1  16
ATOM     15  O   UNL     1       1.862  10.137  18.191  0.00  0.00    +0.000 OA
ATOM     16  C   UNL     1       1.550   9.268  18.999  0.00  0.00    +0.000 C 
ATOM     17  N   UNL     1       0.802   9.521  20.134  0.00  0.00    +0.000 N 
ATOM     18  H   UNL     1       0.701   8.725  20.761  0.00  0.00    +0.000 HD
BRANCH  17  19
ATOM     19  C   UNL     1       0.392  10.879  20.507  0.00  0.00    +0.000 C 
ATOM     20  C   UNL     1      -0.968  11.344  19.936  0.00  0.00    +0.000 C 
ATOM     21  C   UNL     1      -1.230  12.015  21.302  0.00  0.00    +0.000 C 
ATOM     22  C   UNL     1      -0.252  10.990  21.910  0.00  0.00    +0.000 C 
ENDBRANCH  17  19
ENDBRANCH   1  16
TORSDOF 2
ENDMDL
