MODEL 1
REMARK VINA RESULT:      -9.0      0.000      0.000
REMARK  Name = 
REMARK  8 active torsions:
REMARK  status: ('A' for Active; 'I' for Inactive)
REMARK    1  A    between atoms: C_1  and  C_2
REMARK    2  A    between atoms: N_4  and  C_5
REMARK    3  A    between atoms: C_7  and  O_8
REMARK    4  A    between atoms: C_9  and  C_10
REMARK    5  A    between atoms: C_9  and  N_12
REMARK    6  A    between atoms: C_10  and  O_11
REMARK    7  A    between atoms: C_14  and  C_15
REMARK    8  A    between atoms: C_18  and  C_19
REMARK                            x       y       z     vdW  Elec       q    Type
REMARK                         _______ _______ _______ _____ _____    ______ ____
ROOT
ATOM      1  C   UNL     1       4.170   4.607  16.311  0.00  0.00    +0.000 C 
ATOM      2  C   UNL     1       3.812   3.178  16.704  0.00  0.00    +0.000 C 
ATOM      3  C   UNL     1       3.073   3.376  18.007  0.00  0.00    +0.000 C 
ATOM      4  C   UNL     1       3.814   4.572  18.639  0.00  0.00    +0.000 C 
ATOM      5  O   UNL     1       4.278   5.382  17.518  0.00  0.00    +0.000 OA
ENDROOT
BRANCH   1   9
ATOM      6  C   UNL     1       6.690   3.563  12.159  0.00  0.00    +0.000 C 
ATOM      7  C   UNL     1       6.554   4.218  13.493  0.00  0.00    +0.000 A 
ATOM      8  C   UNL     1       5.532   4.007  14.331  0.00  0.00    +0.000 A 
ATOM      9  N   UNL     1       5.395   4.686  15.527  0.00  0.00    +0.000 N 
ATOM     10  C   UNL     1       6.350   5.607  15.947  0.00  0.00    +0.000 A 
ATOM     11  O   UNL     1       6.232   6.309  16.949  0.00  0.00    +0.000 OA
ATOM     12  N   UNL     1       7.456   5.721  15.144  0.00  0.00    +0.000 N 
ATOM     13  C   UNL     1       7.596   5.187  13.896  0.00  0.00    +0.000 A 
ATOM     14  O   UNL     1       8.516   5.501  13.151  0.00  0.00    +0.000 OA
ATOM     15  H   UNL     1       8.140   6.409  15.418  0.00  0.00    +0.000 HD
ENDBRANCH   1   9
BRANCH   4  16
ATOM     16  N   UNL     1       2.934   5.379  19.474  0.00  0.00    +0.000 N 
ATOM     17  C   UNL     1       2.704   6.718  19.385  0.00  0.00    +0.000 A 
ATOM     18  C   UNL     1       1.800   6.966  20.389  0.00  0.00    +0.000 A 
ATOM     19  N   UNL     1       1.555   5.809  21.074  0.00  0.00    +0.000 NA
ATOM     20  N   UNL     1       2.257   4.836  20.503  0.00  0.00    +0.000 NA
BRANCH  18  21
ATOM     21  C   UNL     1       1.272   8.269  20.715  0.00  0.00    +0.000 A 
ATOM     22  C   UNL     1       0.865   8.564  22.019  0.00  0.00    +0.000 A 
ATOM     23  C   UNL     1       0.217   9.766  22.303  0.00  0.00    +0.000 A 
ATOM     24  C   UNL     1      -0.029  10.720  21.301  0.00  0.00    +0.000 A 
ATOM     25  C   UNL     1       0.460  10.438  20.012  0.00  0.00    +0.000 A 
ATOM     26  C   UNL     1       1.099   9.229  19.719  0.00  0.00    +0.000 A 
BRANCH  24  27
ATOM     27  C   UNL     1      -0.815  11.942  21.589  0.00  0.00    +0.000 A 
ATOM     28  C   UNL     1      -1.108  12.341  22.907  0.00  0.00    +0.000 A 
ATOM     29  C   UNL     1      -1.911  13.455  23.172  0.00  0.00    +0.000 A 
ATOM     30  C   UNL     1      -2.425  14.207  22.122  0.00  0.00    +0.000 A 
ATOM     31  C   UNL     1      -2.138  13.849  20.811  0.00  0.00    +0.000 A 
ATOM     32  C   UNL     1      -1.348  12.726  20.549  0.00  0.00    +0.000 A 
ENDBRANCH  24  27
ENDBRANCH  18  21
ENDBRANCH   4  16
BRANCH   3  33
ATOM     33  O   UNL     1       1.700   3.609  17.666  0.00  0.00    +0.000 OA
ATOM     34  H   UNL     1       1.450   4.536  17.825  0.00  0.00    +0.000 HD
ENDBRANCH   3  33
BRANCH   4  35
ATOM     35  C   UNL     1       5.072   4.156  19.442  0.00  0.00    +0.000 C 
BRANCH  35  36
ATOM     36  O   UNL     1       6.011   5.224  19.645  0.00  0.00    +0.000 OA
ATOM     37  H   UNL     1       5.573   5.968  20.098  0.00  0.00    +0.000 HD
ENDBRANCH  35  36
ENDBRANCH   4  35
TORSDOF 7
ENDMDL
MODEL 2
REMARK VINA RESULT:      -8.9      0.718      1.273
REMARK  Name = 
REMARK  8 active torsions:
REMARK  status: ('A' for Active; 'I' for Inactive)
REMARK    1  A    between atoms: C_1  and  C_2
REMARK    2  A    between atoms: N_4  and  C_5
REMARK    3  A    between atoms: C_7  and  O_8
REMARK    4  A    between atoms: C_9  and  C_10
REMARK    5  A    between atoms: C_9  and  N_12
REMARK    6  A    between atoms: C_10  and  O_11
REMARK    7  A    between atoms: C_14  and  C_15
REMARK    8  A    between atoms: C_18  and  C_19
REMARK                            x       y       z     vdW  Elec       q    Type
REMARK                         _______ _______ _______ _____ _____    ______ ____
ROOT
ATOM      1  C   UNL     1       4.129   4.616  16.379  0.00  0.00    +0.000 C 
ATOM      2  C   UNL     1       3.749   3.185  16.739  0.00  0.00    +0.000 C 
ATOM      3  C   UNL     1       3.002   3.366  18.040  0.00  0.00    +0.000 C 
ATOM      4  C   UNL     1       3.754   4.538  18.702  0.00  0.00    +0.000 C 
ATOM      5  O   UNL     1       4.239   5.365  17.602  0.00  0.00    +0.000 OA
ENDROOT
BRANCH   1   9
ATOM      6  C   UNL     1       6.679   3.593  12.239  0.00  0.00    +0.000 C 
ATOM      7  C   UNL     1       6.536   4.237  13.578  0.00  0.00    +0.000 A 
ATOM      8  C   UNL     1       5.505   4.026  14.405  0.00  0.00    +0.000 A 
ATOM      9  N   UNL     1       5.362   4.694  15.606  0.00  0.00    +0.000 N 
ATOM     10  C   UNL     1       6.319   5.605  16.043  0.00  0.00    +0.000 A 
ATOM     11  O   UNL     1       6.197   6.299  17.050  0.00  0.00    +0.000 OA
ATOM     12  N   UNL     1       7.433   5.719  15.251  0.00  0.00    +0.000 N 
ATOM     13  C   UNL     1       7.581   5.196  13.999  0.00  0.00    +0.000 A 
ATOM     14  O   UNL     1       8.509   5.510  13.265  0.00  0.00    +0.000 OA
ATOM     15  H   UNL     1       8.119   6.400  15.537  0.00  0.00    +0.000 HD
ENDBRANCH   1   9
BRANCH   4  16
ATOM     16  N   UNL     1       2.879   5.340  19.547  0.00  0.00    +0.000 N 
ATOM     17  C   UNL     1       2.580   6.662  19.414  0.00  0.00    +0.000 A 
ATOM     18  C   UNL     1       1.716   6.913  20.452  0.00  0.00    +0.000 A 
ATOM     19  N   UNL     1       1.560   5.776  21.196  0.00  0.00    +0.000 NA
ATOM     20  N   UNL     1       2.280   4.812  20.631  0.00  0.00    +0.000 NA
BRANCH  18  21
ATOM     21  C   UNL     1       1.143   8.203  20.750  0.00  0.00    +0.000 A 
ATOM     22  C   UNL     1       1.141   9.218  19.789  0.00  0.00    +0.000 A 
ATOM     23  C   UNL     1       0.727  10.508  20.123  0.00  0.00    +0.000 A 
ATOM     24  C   UNL     1       0.284  10.822  21.418  0.00  0.00    +0.000 A 
ATOM     25  C   UNL     1       0.219   9.768  22.348  0.00  0.00    +0.000 A 
ATOM     26  C   UNL     1       0.645   8.476  22.023  0.00  0.00    +0.000 A 
BRANCH  24  27
ATOM     27  C   UNL     1      -0.046  12.216  21.793  0.00  0.00    +0.000 A 
ATOM     28  C   UNL     1       0.641  13.315  21.243  0.00  0.00    +0.000 A 
ATOM     29  C   UNL     1       0.375  14.624  21.653  0.00  0.00    +0.000 A 
ATOM     30  C   UNL     1      -0.602  14.868  22.611  0.00  0.00    +0.000 A 
ATOM     31  C   UNL     1      -1.311  13.807  23.159  0.00  0.00    +0.000 A 
ATOM     32  C   UNL     1      -1.031  12.496  22.759  0.00  0.00    +0.000 A 
ENDBRANCH  24  27
ENDBRANCH  18  21
ENDBRANCH   4  16
BRANCH   3  33
ATOM     33  O   UNL     1       1.635   3.626  17.693  0.00  0.00    +0.000 OA
ATOM     34  H   UNL     1       1.554   3.901  16.764  0.00  0.00    +0.000 HD
ENDBRANCH   3  33
BRANCH   4  35
ATOM     35  C   UNL     1       5.000   4.088  19.506  0.00  0.00    +0.000 C 
BRANCH  35  36
ATOM     36  O   UNL     1       6.041   5.077  19.565  0.00  0.00    +0.000 OA
ATOM     37  H   UNL     1       5.706   5.884  19.997  0.00  0.00    +0.000 HD
ENDBRANCH  35  36
ENDBRANCH   4  35
TORSDOF 7
ENDMDL
MODEL 3
REMARK VINA RESULT:      -8.8      5.884      8.272
REMARK  Name = 
REMARK  8 active torsions:
REMARK  status: ('A' for Active; 'I' for Inactive)
REMARK    1  A    between atoms: C_1  and  C_2
REMARK    2  A    between atoms: N_4  and  C_5
REMARK    3  A    between atoms: C_7  and  O_8
REMARK    4  A    between atoms: C_9  and  C_10
REMARK    5  A    between atoms: C_9  and  N_12
REMARK    6  A    between atoms: C_10  and  O_11
REMARK    7  A    between atoms: C_14  and  C_15
REMARK    8  A    between atoms: C_18  and  C_19
REMARK                            x       y       z     vdW  Elec       q    Type
REMARK                         _______ _______ _______ _____ _____    ______ ____
ROOT
ATOM      1  C   UNL     1       5.373   3.985  18.314  0.00  0.00    +0.000 C 
ATOM      2  C   UNL     1       5.804   3.730  16.874  0.00  0.00    +0.000 C 
ATOM      3  C   UNL     1       6.717   4.901  16.597  0.00  0.00    +0.000 C 
ATOM      4  C   UNL     1       6.055   6.043  17.394  0.00  0.00    +0.000 C 
ATOM      5  O   UNL     1       5.424   5.404  18.544  0.00  0.00    +0.000 OA
ENDROOT
BRANCH   1   9
ATOM      6  C   UNL     1       1.935   2.596  21.621  0.00  0.00    +0.000 C 
ATOM      7  C   UNL     1       2.399   2.855  20.226  0.00  0.00    +0.000 A 
ATOM      8  C   UNL     1       3.663   3.146  19.899  0.00  0.00    +0.000 A 
ATOM      9  N   UNL     1       4.048   3.456  18.608  0.00  0.00    +0.000 N 
ATOM     10  C   UNL     1       3.132   3.439  17.559  0.00  0.00    +0.000 A 
ATOM     11  O   UNL     1       3.395   3.799  16.414  0.00  0.00    +0.000 OA
ATOM     12  N   UNL     1       1.869   3.015  17.883  0.00  0.00    +0.000 N 
ATOM     13  C   UNL     1       1.389   2.823  19.146  0.00  0.00    +0.000 A 
ATOM     14  O   UNL     1       0.198   2.651  19.373  0.00  0.00    +0.000 OA
ATOM     15  H   UNL     1       1.187   3.029  17.140  0.00  0.00    +0.000 HD
ENDBRANCH   1   9
BRANCH   4  16
ATOM     16  N   UNL     1       7.031   7.015  17.868  0.00  0.00    +0.000 N 
ATOM     17  C   UNL     1       7.161   8.315  17.485  0.00  0.00    +0.000 A 
ATOM     18  C   UNL     1       8.216   8.777  18.233  0.00  0.00    +0.000 A 
ATOM     19  N   UNL     1       8.716   7.755  18.991  0.00  0.00    +0.000 NA
ATOM     20  N   UNL     1       7.979   6.673  18.761  0.00  0.00    +0.000 NA
BRANCH  18  21
ATOM     21  C   UNL     1       8.758  10.112  18.151  0.00  0.00    +0.000 A 
ATOM     22  C   UNL     1       9.987  10.417  18.742  0.00  0.00    +0.000 A 
ATOM     23  C   UNL     1      10.440  11.735  18.796  0.00  0.00    +0.000 A 
ATOM     24  C   UNL     1       9.692  12.789  18.245  0.00  0.00    +0.000 A 
ATOM     25  C   UNL     1       8.497  12.450  17.584  0.00  0.00    +0.000 A 
ATOM     26  C   UNL     1       8.031  11.132  17.540  0.00  0.00    +0.000 A 
BRANCH  24  27
ATOM     27  C   UNL     1      10.126  14.196  18.404  0.00  0.00    +0.000 A 
ATOM     28  C   UNL     1      11.464  14.531  18.684  0.00  0.00    +0.000 A 
ATOM     29  C   UNL     1      11.855  15.856  18.904  0.00  0.00    +0.000 A 
ATOM     30  C   UNL     1      10.917  16.879  18.830  0.00  0.00    +0.000 A 
ATOM     31  C   UNL     1       9.593  16.581  18.537  0.00  0.00    +0.000 A 
ATOM     32  C   UNL     1       9.201  15.254  18.334  0.00  0.00    +0.000 A 
ENDBRANCH  24  27
ENDBRANCH  18  21
ENDBRANCH   4  16
BRANCH   3  33
ATOM     33  O   UNL     1       8.024   4.514  17.041  0.00  0.00    +0.000 OA
ATOM     34  H   UNL     1       8.143   3.550  16.988  0.00  0.00    +0.000 HD
ENDBRANCH   3  33
BRANCH   4  35
ATOM     35  C   UNL     1       4.929   6.763  16.609  0.00  0.00    +0.000 C 
BRANCH  35  36
ATOM     36  O   UNL     1       5.126   6.771  15.186  0.00  0.00    +0.000 OA
ATOM     37  H   UNL     1       5.456   5.901  14.894  0.00  0.00    +0.000 HD
ENDBRANCH  35  36
ENDBRANCH   4  35
TORSDOF 7
ENDMDL
MODEL 4
REMARK VINA RESULT:      -8.8      6.043      8.237
REMARK  Name = 
REMARK  8 active torsions:
REMARK  status: ('A' for Active; 'I' for Inactive)
REMARK    1  A    between atoms: C_1  and  C_2
REMARK    2  A    between atoms: N_4  and  C_5
REMARK    3  A    between atoms: C_7  and  O_8
REMARK    4  A    between atoms: C_9  and  C_10
REMARK    5  A    between atoms: C_9  and  N_12
REMARK    6  A    between atoms: C_10  and  O_11
REMARK    7  A    between atoms: C_14  and  C_15
REMARK    8  A    between atoms: C_18  and  C_19
REMARK                            x       y       z     vdW  Elec       q    Type
REMARK                         _______ _______ _______ _____ _____    ______ ____
ROOT
ATOM      1  C   UNL     1       5.382   4.268  18.318  0.00  0.00    +0.000 C 
ATOM      2  C   UNL     1       5.867   3.983  16.901  0.00  0.00    +0.000 C 
ATOM      3  C   UNL     1       6.829   5.122  16.653  0.00  0.00    +0.000 C 
ATOM      4  C   UNL     1       6.171   6.293  17.409  0.00  0.00    +0.000 C 
ATOM      5  O   UNL     1       5.470   5.687  18.536  0.00  0.00    +0.000 OA
ENDROOT
BRANCH   1   9
ATOM      6  C   UNL     1       0.559   4.225  17.129  0.00  0.00    +0.000 C 
ATOM      7  C   UNL     1       1.730   3.743  17.919  0.00  0.00    +0.000 A 
ATOM      8  C   UNL     1       2.946   4.300  17.872  0.00  0.00    +0.000 A 
ATOM      9  N   UNL     1       4.029   3.785  18.558  0.00  0.00    +0.000 N 
ATOM     10  C   UNL     1       3.899   2.667  19.378  0.00  0.00    +0.000 A 
ATOM     11  O   UNL     1       4.844   2.109  19.932  0.00  0.00    +0.000 OA
ATOM     12  N   UNL     1       2.625   2.182  19.520  0.00  0.00    +0.000 N 
ATOM     13  C   UNL     1       1.541   2.554  18.778  0.00  0.00    +0.000 A 
ATOM     14  O   UNL     1       0.484   1.935  18.809  0.00  0.00    +0.000 OA
ATOM     15  H   UNL     1       2.520   1.353  20.084  0.00  0.00    +0.000 HD
ENDBRANCH   1   9
BRANCH   4  16
ATOM     16  N   UNL     1       7.157   7.238  17.916  0.00  0.00    +0.000 N 
ATOM     17  C   UNL     1       7.290   8.553  17.589  0.00  0.00    +0.000 A 
ATOM     18  C   UNL     1       8.354   8.977  18.347  0.00  0.00    +0.000 A 
ATOM     19  N   UNL     1       8.856   7.920  19.055  0.00  0.00    +0.000 NA
ATOM     20  N   UNL     1       8.111   6.853  18.784  0.00  0.00    +0.000 NA
BRANCH  18  21
ATOM     21  C   UNL     1       8.903  10.311  18.319  0.00  0.00    +0.000 A 
ATOM     22  C   UNL     1       9.985  10.651  19.134  0.00  0.00    +0.000 A 
ATOM     23  C   UNL     1      10.419  11.974  19.221  0.00  0.00    +0.000 A 
ATOM     24  C   UNL     1       9.800  12.997  18.483  0.00  0.00    +0.000 A 
ATOM     25  C   UNL     1       8.764  12.621  17.608  0.00  0.00    +0.000 A 
ATOM     26  C   UNL     1       8.316  11.297  17.527  0.00  0.00    +0.000 A 
BRANCH  24  27
ATOM     27  C   UNL     1      10.193  14.413  18.665  0.00  0.00    +0.000 A 
ATOM     28  C   UNL     1       9.409  15.470  18.163  0.00  0.00    +0.000 A 
ATOM     29  C   UNL     1       9.820  16.802  18.274  0.00  0.00    +0.000 A 
ATOM     30  C   UNL     1      11.017  17.109  18.910  0.00  0.00    +0.000 A 
ATOM     31  C   UNL     1      11.803  16.090  19.432  0.00  0.00    +0.000 A 
ATOM     32  C   UNL     1      11.398  14.758  19.304  0.00  0.00    +0.000 A 
ENDBRANCH  24  27
ENDBRANCH  18  21
ENDBRANCH   4  16
BRANCH   3  33
ATOM     33  O   UNL     1       8.102   4.697  17.157  0.00  0.00    +0.000 OA
ATOM     34  H   UNL     1       8.330   3.807  16.837  0.00  0.00    +0.000 HD
ENDBRANCH   3  33
BRANCH   4  35
ATOM     35  C   UNL     1       5.104   7.040  16.569  0.00  0.00    +0.000 C 
BRANCH  35  36
ATOM     36  O   UNL     1       5.222   6.822  15.153  0.00  0.00    +0.000 OA
ATOM     37  H   UNL     1       5.189   7.676  14.684  0.00  0.00    +0.000 HD
ENDBRANCH  35  36
ENDBRANCH   4  35
TORSDOF 7
ENDMDL
MODEL 5
REMARK VINA RESULT:      -8.8      6.052      8.538
REMARK  Name = 
REMARK  8 active torsions:
REMARK  status: ('A' for Active; 'I' for Inactive)
REMARK    1  A    between atoms: C_1  and  C_2
REMARK    2  A    between atoms: N_4  and  C_5
REMARK    3  A    between atoms: C_7  and  O_8
REMARK    4  A    between atoms: C_9  and  C_10
REMARK    5  A    between atoms: C_9  and  N_12
REMARK    6  A    between atoms: C_10  and  O_11
REMARK    7  A    between atoms: C_14  and  C_15
REMARK    8  A    between atoms: C_18  and  C_19
REMARK                            x       y       z     vdW  Elec       q    Type
REMARK                         _______ _______ _______ _____ _____    ______ ____
ROOT
ATOM      1  C   UNL     1       5.393   4.256  18.275  0.00  0.00    +0.000 C 
ATOM      2  C   UNL     1       5.863   4.015  16.845  0.00  0.00    +0.000 C 
ATOM      3  C   UNL     1       6.832   5.153  16.626  0.00  0.00    +0.000 C 
ATOM      4  C   UNL     1       6.190   6.304  17.427  0.00  0.00    +0.000 C 
ATOM      5  O   UNL     1       5.494   5.666  18.540  0.00  0.00    +0.000 OA
ENDROOT
BRANCH   1   9
ATOM      6  C   UNL     1       0.568   4.247  17.090  0.00  0.00    +0.000 C 
ATOM      7  C   UNL     1       1.737   3.752  17.874  0.00  0.00    +0.000 A 
ATOM      8  C   UNL     1       2.956   4.303  17.832  0.00  0.00    +0.000 A 
ATOM      9  N   UNL     1       4.038   3.776  18.511  0.00  0.00    +0.000 N 
ATOM     10  C   UNL     1       3.903   2.651  19.319  0.00  0.00    +0.000 A 
ATOM     11  O   UNL     1       4.847   2.083  19.866  0.00  0.00    +0.000 OA
ATOM     12  N   UNL     1       2.627   2.170  19.457  0.00  0.00    +0.000 N 
ATOM     13  C   UNL     1       1.544   2.554  18.721  0.00  0.00    +0.000 A 
ATOM     14  O   UNL     1       0.485   1.939  18.746  0.00  0.00    +0.000 OA
ATOM     15  H   UNL     1       2.519   1.335  20.012  0.00  0.00    +0.000 HD
ENDBRANCH   1   9
BRANCH   4  16
ATOM     16  N   UNL     1       7.189   7.223  17.957  0.00  0.00    +0.000 N 
ATOM     17  C   UNL     1       7.304   8.557  17.705  0.00  0.00    +0.000 A 
ATOM     18  C   UNL     1       8.392   8.941  18.451  0.00  0.00    +0.000 A 
ATOM     19  N   UNL     1       8.922   7.847  19.076  0.00  0.00    +0.000 NA
ATOM     20  N   UNL     1       8.174   6.793  18.766  0.00  0.00    +0.000 NA
BRANCH  18  21
ATOM     21  C   UNL     1       8.932  10.279  18.485  0.00  0.00    +0.000 A 
ATOM     22  C   UNL     1       8.408  11.278  17.661  0.00  0.00    +0.000 A 
ATOM     23  C   UNL     1       9.025  12.526  17.581  0.00  0.00    +0.000 A 
ATOM     24  C   UNL     1      10.172  12.825  18.335  0.00  0.00    +0.000 A 
ATOM     25  C   UNL     1      10.637  11.833  19.218  0.00  0.00    +0.000 A 
ATOM     26  C   UNL     1      10.030  10.575  19.291  0.00  0.00    +0.000 A 
BRANCH  24  27
ATOM     27  C   UNL     1      10.885  14.112  18.160  0.00  0.00    +0.000 A 
ATOM     28  C   UNL     1      11.575  14.727  19.223  0.00  0.00    +0.000 A 
ATOM     29  C   UNL     1      12.185  15.975  19.073  0.00  0.00    +0.000 A 
ATOM     30  C   UNL     1      12.136  16.631  17.848  0.00  0.00    +0.000 A 
ATOM     31  C   UNL     1      11.479  16.041  16.776  0.00  0.00    +0.000 A 
ATOM     32  C   UNL     1      10.855  14.800  16.933  0.00  0.00    +0.000 A 
ENDBRANCH  24  27
ENDBRANCH  18  21
ENDBRANCH   4  16
BRANCH   3  33
ATOM     33  O   UNL     1       8.106   4.702  17.105  0.00  0.00    +0.000 OA
ATOM     34  H   UNL     1       8.784   5.393  17.007  0.00  0.00    +0.000 HD
ENDBRANCH   3  33
BRANCH   4  35
ATOM     35  C   UNL     1       5.122   7.087  16.622  0.00  0.00    +0.000 C 
BRANCH  35  36
ATOM     36  O   UNL     1       5.211   6.897  15.201  0.00  0.00    +0.000 OA
ATOM     37  H   UNL     1       4.716   7.601  14.742  0.00  0.00    +0.000 HD
ENDBRANCH  35  36
ENDBRANCH   4  35
TORSDOF 7
ENDMDL
MODEL 6
REMARK VINA RESULT:      -8.6      5.500     11.789
REMARK  Name = 
REMARK  8 active torsions:
REMARK  status: ('A' for Active; 'I' for Inactive)
REMARK    1  A    between atoms: C_1  and  C_2
REMARK    2  A    between atoms: N_4  and  C_5
REMARK    3  A    between atoms: C_7  and  O_8
REMARK    4  A    between atoms: C_9  and  C_10
REMARK    5  A    between atoms: C_9  and  N_12
REMARK    6  A    between atoms: C_10  and  O_11
REMARK    7  A    between atoms: C_14  and  C_15
REMARK    8  A    between atoms: C_18  and  C_19
REMARK                            x       y       z     vdW  Elec       q    Type
REMARK                         _______ _______ _______ _____ _____    ______ ____
ROOT
ATOM      1  C   UNL     1      -2.779  12.652  21.806  0.00  0.00    +0.000 C 
ATOM      2  C   UNL     1      -2.779  13.194  20.381  0.00  0.00    +0.000 C 
ATOM      3  C   UNL     1      -1.784  12.290  19.691  0.00  0.00    +0.000 C 
ATOM      4  C   UNL     1      -0.747  12.019  20.799  0.00  0.00    +0.000 C 
ATOM      5  O   UNL     1      -1.492  12.060  22.053  0.00  0.00    +0.000 OA
ENDROOT
BRANCH   1   9
ATOM      6  C   UNL     1      -2.506  17.370  23.338  0.00  0.00    +0.000 C 
ATOM      7  C   UNL     1      -2.984  15.963  23.472  0.00  0.00    +0.000 A 
ATOM      8  C   UNL     1      -2.566  14.952  22.700  0.00  0.00    +0.000 A 
ATOM      9  N   UNL     1      -3.084  13.675  22.798  0.00  0.00    +0.000 N 
ATOM     10  C   UNL     1      -4.051  13.359  23.747  0.00  0.00    +0.000 A 
ATOM     11  O   UNL     1      -4.616  12.269  23.815  0.00  0.00    +0.000 OA
ATOM     12  N   UNL     1      -4.379  14.368  24.616  0.00  0.00    +0.000 N 
ATOM     13  C   UNL     1      -4.011  15.677  24.497  0.00  0.00    +0.000 A 
ATOM     14  O   UNL     1      -4.509  16.560  25.184  0.00  0.00    +0.000 OA
ATOM     15  H   UNL     1      -5.103  14.164  25.288  0.00  0.00    +0.000 HD
ENDBRANCH   1   9
BRANCH   4  16
ATOM     16  N   UNL     1      -0.128  10.708  20.658  0.00  0.00    +0.000 N 
ATOM     17  C   UNL     1       0.769  10.311  19.713  0.00  0.00    +0.000 A 
ATOM     18  C   UNL     1       1.034   9.003  20.036  0.00  0.00    +0.000 A 
ATOM     19  N   UNL     1       0.269   8.638  21.110  0.00  0.00    +0.000 NA
ATOM     20  N   UNL     1      -0.442   9.695  21.487  0.00  0.00    +0.000 NA
BRANCH  18  21
ATOM     21  C   UNL     1       1.914   8.135  19.292  0.00  0.00    +0.000 A 
ATOM     22  C   UNL     1       2.288   6.891  19.808  0.00  0.00    +0.000 A 
ATOM     23  C   UNL     1       3.255   6.119  19.163  0.00  0.00    +0.000 A 
ATOM     24  C   UNL     1       3.865   6.553  17.975  0.00  0.00    +0.000 A 
ATOM     25  C   UNL     1       3.417   7.770  17.430  0.00  0.00    +0.000 A 
ATOM     26  C   UNL     1       2.458   8.555  18.079  0.00  0.00    +0.000 A 
BRANCH  24  27
ATOM     27  C   UNL     1       4.969   5.781  17.359  0.00  0.00    +0.000 A 
ATOM     28  C   UNL     1       6.119   5.423  18.087  0.00  0.00    +0.000 A 
ATOM     29  C   UNL     1       7.190   4.757  17.483  0.00  0.00    +0.000 A 
ATOM     30  C   UNL     1       7.125   4.414  16.137  0.00  0.00    +0.000 A 
ATOM     31  C   UNL     1       5.995   4.736  15.397  0.00  0.00    +0.000 A 
ATOM     32  C   UNL     1       4.933   5.418  16.000  0.00  0.00    +0.000 A 
ENDBRANCH  24  27
ENDBRANCH  18  21
ENDBRANCH   4  16
BRANCH   3  33
ATOM     33  O   UNL     1      -2.519  11.145  19.239  0.00  0.00    +0.000 OA
ATOM     34  H   UNL     1      -2.192  10.835  18.376  0.00  0.00    +0.000 HD
ENDBRANCH   3  33
BRANCH   4  35
ATOM     35  C   UNL     1       0.347  13.114  20.893  0.00  0.00    +0.000 C 
BRANCH  35  36
ATOM     36  O   UNL     1       0.671  13.497  22.239  0.00  0.00    +0.000 OA
ATOM     37  H   UNL     1       1.495  14.018  22.245  0.00  0.00    +0.000 HD
ENDBRANCH  35  36
ENDBRANCH   4  35
TORSDOF 7
ENDMDL
MODEL 7
REMARK VINA RESULT:      -8.5      4.014     10.734
REMARK  Name = 
REMARK  8 active torsions:
REMARK  status: ('A' for Active; 'I' for Inactive)
REMARK    1  A    between atoms: C_1  and  C_2
REMARK    2  A    between atoms: N_4  and  C_5
REMARK    3  A    between atoms: C_7  and  O_8
REMARK    4  A    between atoms: C_9  and  C_10
REMARK    5  A    between atoms: C_9  and  N_12
REMARK    6  A    between atoms: C_10  and  O_11
REMARK    7  A    between atoms: C_14  and  C_15
REMARK    8  A    between atoms: C_18  and  C_19
REMARK                            x       y       z     vdW  Elec       q    Type
REMARK                         _______ _______ _______ _____ _____    ______ ____
ROOT
ATOM      1  C   UNL     1      -0.849  10.818  18.357  0.00  0.00    +0.000 C 
ATOM      2  C   UNL     1       0.109  11.875  18.895  0.00  0.00    +0.000 C 
ATOM      3  C   UNL     1       1.348  11.064  19.198  0.00  0.00    +0.000 C 
ATOM      4  C   UNL     1       0.764   9.718  19.673  0.00  0.00    +0.000 C 
ATOM      5  O   UNL     1      -0.491   9.557  18.947  0.00  0.00    +0.000 OA
ENDROOT
BRANCH   1   9
ATOM      6  C   UNL     1      -4.264  13.521  20.748  0.00  0.00    +0.000 C 
ATOM      7  C   UNL     1      -3.856  12.499  19.740  0.00  0.00    +0.000 A 
ATOM      8  C   UNL     1      -2.609  12.030  19.610  0.00  0.00    +0.000 A 
ATOM      9  N   UNL     1      -2.246  11.140  18.617  0.00  0.00    +0.000 N 
ATOM     10  C   UNL     1      -3.182  10.646  17.713  0.00  0.00    +0.000 A 
ATOM     11  O   UNL     1      -2.899   9.932  16.754  0.00  0.00    +0.000 OA
ATOM     12  N   UNL     1      -4.479  11.033  17.934  0.00  0.00    +0.000 N 
ATOM     13  C   UNL     1      -4.888  12.003  18.803  0.00  0.00    +0.000 A 
ATOM     14  O   UNL     1      -6.029  12.446  18.798  0.00  0.00    +0.000 OA
ATOM     15  H   UNL     1      -5.163  10.710  17.267  0.00  0.00    +0.000 HD
ENDBRANCH   1   9
BRANCH   4  16
ATOM     16  N   UNL     1       1.643   8.600  19.356  0.00  0.00    +0.000 N 
ATOM     17  C   UNL     1       2.302   8.369  18.187  0.00  0.00    +0.000 A 
ATOM     18  C   UNL     1       2.987   7.201  18.418  0.00  0.00    +0.000 A 
ATOM     19  N   UNL     1       2.689   6.742  19.672  0.00  0.00    +0.000 NA
ATOM     20  N   UNL     1       1.862   7.611  20.242  0.00  0.00    +0.000 NA
BRANCH  18  21
ATOM     21  C   UNL     1       3.814   6.528  17.446  0.00  0.00    +0.000 A 
ATOM     22  C   UNL     1       4.637   7.259  16.586  0.00  0.00    +0.000 A 
ATOM     23  C   UNL     1       5.320   6.624  15.549  0.00  0.00    +0.000 A 
ATOM     24  C   UNL     1       5.220   5.237  15.348  0.00  0.00    +0.000 A 
ATOM     25  C   UNL     1       4.451   4.508  16.274  0.00  0.00    +0.000 A 
ATOM     26  C   UNL     1       3.753   5.142  17.308  0.00  0.00    +0.000 A 
BRANCH  24  27
ATOM     27  C   UNL     1       5.858   4.588  14.180  0.00  0.00    +0.000 A 
ATOM     28  C   UNL     1       7.157   4.933  13.758  0.00  0.00    +0.000 A 
ATOM     29  C   UNL     1       7.727   4.370  12.612  0.00  0.00    +0.000 A 
ATOM     30  C   UNL     1       7.017   3.432  11.872  0.00  0.00    +0.000 A 
ATOM     31  C   UNL     1       5.741   3.057  12.273  0.00  0.00    +0.000 A 
ATOM     32  C   UNL     1       5.167   3.635  13.410  0.00  0.00    +0.000 A 
ENDBRANCH  24  27
ENDBRANCH  18  21
ENDBRANCH   4  16
BRANCH   3  33
ATOM     33  O   UNL     1       2.109  11.013  17.984  0.00  0.00    +0.000 OA
ATOM     34  H   UNL     1       3.052  11.187  18.152  0.00  0.00    +0.000 HD
ENDBRANCH   3  33
BRANCH   4  35
ATOM     35  C   UNL     1       0.413   9.704  21.182  0.00  0.00    +0.000 C 
BRANCH  35  36
ATOM     36  O   UNL     1      -0.543   8.694  21.547  0.00  0.00    +0.000 OA
ATOM     37  H   UNL     1      -1.432   8.958  21.248  0.00  0.00    +0.000 HD
ENDBRANCH  35  36
ENDBRANCH   4  35
TORSDOF 7
ENDMDL
MODEL 8
REMARK VINA RESULT:      -8.5      5.875     12.167
REMARK  Name = 
REMARK  8 active torsions:
REMARK  status: ('A' for Active; 'I' for Inactive)
REMARK    1  A    between atoms: C_1  and  C_2
REMARK    2  A    between atoms: N_4  and  C_5
REMARK    3  A    between atoms: C_7  and  O_8
REMARK    4  A    between atoms: C_9  and  C_10
REMARK    5  A    between atoms: C_9  and  N_12
REMARK    6  A    between atoms: C_10  and  O_11
REMARK    7  A    between atoms: C_14  and  C_15
REMARK    8  A    between atoms: C_18  and  C_19
REMARK                            x       y       z     vdW  Elec       q    Type
REMARK                         _______ _______ _______ _____ _____    ______ ____
ROOT
ATOM      1  C   UNL     1      -3.729  12.776  21.465  0.00  0.00    +0.000 C 
ATOM      2  C   UNL     1      -3.166  13.759  20.444  0.00  0.00    +0.000 C 
ATOM      3  C   UNL     1      -1.784  13.204  20.189  0.00  0.00    +0.000 C 
ATOM      4  C   UNL     1      -1.380  12.653  21.571  0.00  0.00    +0.000 C 
ATOM      5  O   UNL     1      -2.623  12.225  22.202  0.00  0.00    +0.000 OA
ENDROOT
BRANCH   1   9
ATOM      6  C   UNL     1      -5.115  16.575  24.351  0.00  0.00    +0.000 C 
ATOM      7  C   UNL     1      -5.360  15.260  23.690  0.00  0.00    +0.000 A 
ATOM      8  C   UNL     1      -4.425  14.569  23.027  0.00  0.00    +0.000 A 
ATOM      9  N   UNL     1      -4.700  13.390  22.361  0.00  0.00    +0.000 N 
ATOM     10  C   UNL     1      -5.975  12.831  22.381  0.00  0.00    +0.000 A 
ATOM     11  O   UNL     1      -6.300  11.841  21.728  0.00  0.00    +0.000 OA
ATOM     12  N   UNL     1      -6.893  13.478  23.167  0.00  0.00    +0.000 N 
ATOM     13  C   UNL     1      -6.731  14.706  23.741  0.00  0.00    +0.000 A 
ATOM     14  O   UNL     1      -7.661  15.317  24.251  0.00  0.00    +0.000 OA
ATOM     15  H   UNL     1      -7.829  13.104  23.165  0.00  0.00    +0.000 HD
ENDBRANCH   1   9
BRANCH   4  16
ATOM     16  N   UNL     1      -0.486  11.507  21.461  0.00  0.00    +0.000 N 
ATOM     17  C   UNL     1      -0.141  10.829  20.331  0.00  0.00    +0.000 A 
ATOM     18  C   UNL     1       0.721   9.858  20.778  0.00  0.00    +0.000 A 
ATOM     19  N   UNL     1       0.832   9.941  22.139  0.00  0.00    +0.000 NA
ATOM     20  N   UNL     1       0.085  10.961  22.550  0.00  0.00    +0.000 NA
BRANCH  18  21
ATOM     21  C   UNL     1       1.335   8.856  19.940  0.00  0.00    +0.000 A 
ATOM     22  C   UNL     1       1.695   7.613  20.468  0.00  0.00    +0.000 A 
ATOM     23  C   UNL     1       2.423   6.703  19.701  0.00  0.00    +0.000 A 
ATOM     24  C   UNL     1       2.797   6.994  18.379  0.00  0.00    +0.000 A 
ATOM     25  C   UNL     1       2.356   8.217  17.841  0.00  0.00    +0.000 A 
ATOM     26  C   UNL     1       1.638   9.140  18.610  0.00  0.00    +0.000 A 
BRANCH  24  27
ATOM     27  C   UNL     1       3.664   6.070  17.611  0.00  0.00    +0.000 A 
ATOM     28  C   UNL     1       3.586   4.674  17.775  0.00  0.00    +0.000 A 
ATOM     29  C   UNL     1       4.455   3.810  17.102  0.00  0.00    +0.000 A 
ATOM     30  C   UNL     1       5.411   4.323  16.232  0.00  0.00    +0.000 A 
ATOM     31  C   UNL     1       5.499   5.695  16.035  0.00  0.00    +0.000 A 
ATOM     32  C   UNL     1       4.640   6.558  16.723  0.00  0.00    +0.000 A 
ENDBRANCH  24  27
ENDBRANCH  18  21
ENDBRANCH   4  16
BRANCH   3  33
ATOM     33  O   UNL     1      -1.922  12.226  19.150  0.00  0.00    +0.000 OA
ATOM     34  H   UNL     1      -2.368  11.425  19.476  0.00  0.00    +0.000 HD
ENDBRANCH   3  33
BRANCH   4  35
ATOM     35  C   UNL     1      -0.754  13.726  22.497  0.00  0.00    +0.000 C 
BRANCH  35  36
ATOM     36  O   UNL     1      -1.057  13.540  23.890  0.00  0.00    +0.000 OA
ATOM     37  H   UNL     1      -1.345  14.385  24.280  0.00  0.00    +0.000 HD
ENDBRANCH  35  36
ENDBRANCH   4  35
TORSDOF 7
ENDMDL
MODEL 9
REMARK VINA RESULT:      -8.3      5.362     11.755
REMARK  Name = 
REMARK  8 active torsions:
REMARK  status: ('A' for Active; 'I' for Inactive)
REMARK    1  A    between atoms: C_1  and  C_2
REMARK    2  A    between atoms: N_4  and  C_5
REMARK    3  A    between atoms: C_7  and  O_8
REMARK    4  A    between atoms: C_9  and  C_10
REMARK    5  A    between atoms: C_9  and  N_12
REMARK    6  A    between atoms: C_10  and  O_11
REMARK    7  A    between atoms: C_14  and  C_15
REMARK    8  A    between atoms: C_18  and  C_19
REMARK                            x       y       z     vdW  Elec       q    Type
REMARK                         _______ _______ _______ _____ _____    ______ ____
ROOT
ATOM      1  C   UNL     1      -2.808  12.478  21.648  0.00  0.00    +0.000 C 
ATOM      2  C   UNL     1      -2.904  12.956  20.203  0.00  0.00    +0.000 C 
ATOM      3  C   UNL     1      -1.896  12.075  19.503  0.00  0.00    +0.000 C 
ATOM      4  C   UNL     1      -0.794  11.908  20.569  0.00  0.00    +0.000 C 
ATOM      5  O   UNL     1      -1.480  11.965  21.855  0.00  0.00    +0.000 OA
ENDROOT
BRANCH   1   9
ATOM      6  C   UNL     1      -3.169  17.301  22.782  0.00  0.00    +0.000 C 
ATOM      7  C   UNL     1      -3.339  15.853  23.099  0.00  0.00    +0.000 A 
ATOM      8  C   UNL     1      -2.881  14.858  22.329  0.00  0.00    +0.000 A 
ATOM      9  N   UNL     1      -3.119  13.527  22.610  0.00  0.00    +0.000 N 
ATOM     10  C   UNL     1      -3.824  13.145  23.748  0.00  0.00    +0.000 A 
ATOM     11  O   UNL     1      -4.150  11.985  23.996  0.00  0.00    +0.000 OA
ATOM     12  N   UNL     1      -4.178  14.163  24.595  0.00  0.00    +0.000 N 
ATOM     13  C   UNL     1      -4.093  15.497  24.321  0.00  0.00    +0.000 A 
ATOM     14  O   UNL     1      -4.619  16.345  25.030  0.00  0.00    +0.000 OA
ATOM     15  H   UNL     1      -4.718  13.905  25.406  0.00  0.00    +0.000 HD
ENDBRANCH   1   9
BRANCH   4  16
ATOM     16  N   UNL     1      -0.112  10.625  20.452  0.00  0.00    +0.000 N 
ATOM     17  C   UNL     1       0.852  10.277  19.556  0.00  0.00    +0.000 A 
ATOM     18  C   UNL     1       1.154   8.977  19.883  0.00  0.00    +0.000 A 
ATOM     19  N   UNL     1       0.347   8.569  20.909  0.00  0.00    +0.000 NA
ATOM     20  N   UNL     1      -0.429   9.591  21.254  0.00  0.00    +0.000 NA
BRANCH  18  21
ATOM     21  C   UNL     1       2.111   8.156  19.183  0.00  0.00    +0.000 A 
ATOM     22  C   UNL     1       2.728   8.620  18.018  0.00  0.00    +0.000 A 
ATOM     23  C   UNL     1       3.536   7.773  17.258  0.00  0.00    +0.000 A 
ATOM     24  C   UNL     1       3.770   6.443  17.645  0.00  0.00    +0.000 A 
ATOM     25  C   UNL     1       3.205   6.020  18.863  0.00  0.00    +0.000 A 
ATOM     26  C   UNL     1       2.383   6.861  19.621  0.00  0.00    +0.000 A 
BRANCH  24  27
ATOM     27  C   UNL     1       4.536   5.520  16.777  0.00  0.00    +0.000 A 
ATOM     28  C   UNL     1       4.648   4.148  17.071  0.00  0.00    +0.000 A 
ATOM     29  C   UNL     1       5.430   3.294  16.288  0.00  0.00    +0.000 A 
ATOM     30  C   UNL     1       6.104   3.790  15.179  0.00  0.00    +0.000 A 
ATOM     31  C   UNL     1       5.998   5.136  14.852  0.00  0.00    +0.000 A 
ATOM     32  C   UNL     1       5.228   5.991  15.646  0.00  0.00    +0.000 A 
ENDBRANCH  24  27
ENDBRANCH  18  21
ENDBRANCH   4  16
BRANCH   3  33
ATOM     33  O   UNL     1      -2.588  10.874  19.136  0.00  0.00    +0.000 OA
ATOM     34  H   UNL     1      -3.330  11.064  18.536  0.00  0.00    +0.000 HD
ENDBRANCH   3  33
BRANCH   4  35
ATOM     35  C   UNL     1       0.242  13.060  20.562  0.00  0.00    +0.000 C 
BRANCH  35  36
ATOM     36  O   UNL     1       1.088  13.088  21.723  0.00  0.00    +0.000 OA
ATOM     37  H   UNL     1       0.570  12.850  22.515  0.00  0.00    +0.000 HD
ENDBRANCH  35  36
ENDBRANCH   4  35
TORSDOF 7
ENDMDL
