MODEL 1
REMARK VINA RESULT:     -10.2      0.000      0.000
REMARK  Name = 
REMARK  9 active torsions:
REMARK  status: ('A' for Active; 'I' for Inactive)
REMARK    1  A    between atoms: C_1  and  C_2
REMARK    2  A    between atoms: C_4  and  O_5
REMARK    3  A    between atoms: O_5  and  C_6
REMARK    4  A    between atoms: C_6  and  C_7
REMARK    5  A    between atoms: C_19  and  C_20
REMARK    6  A    between atoms: C_23  and  C_24
REMARK    7  A    between atoms: C_25  and  C_26
REMARK    8  A    between atoms: C_26  and  C_27
REMARK    9  A    between atoms: C_27  and  O_29
REMARK                            x       y       z     vdW  Elec       q    Type
REMARK                         _______ _______ _______ _____ _____    ______ ____
ROOT
ATOM      1  C   UNL     1       0.495   8.864  21.770  0.00  0.00    +0.000 C 
ATOM      2  C   UNL     1       1.126   8.882  20.403  0.00  0.00    +0.000 A 
ATOM      3  C   UNL     1       1.878   7.753  19.996  0.00  0.00    +0.000 A 
ATOM      4  C   UNL     1       2.439   7.671  18.717  0.00  0.00    +0.000 A 
ATOM      5  C   UNL     1       2.274   8.738  17.842  0.00  0.00    +0.000 A 
ATOM      6  C   UNL     1       1.553   9.863  18.227  0.00  0.00    +0.000 A 
ATOM      7  C   UNL     1       1.020   9.974  19.519  0.00  0.00    +0.000 A 
ENDROOT
BRANCH   7   8
ATOM      8  C   UNL     1       0.336  11.260  19.847  0.00  0.00    +0.000 C 
ATOM      9  O   UNL     1       0.997  12.174  20.334  0.00  0.00    +0.000 OA
ATOM     10  N   UNL     1      -1.063  11.495  19.677  0.00  0.00    +0.000 N 
ATOM     11  C   UNL     1      -1.874  12.284  20.505  0.00  0.00    +0.000 A 
ATOM     12  C   UNL     1      -1.390  12.916  21.774  0.00  0.00    +0.000 C 
ATOM     13  C   UNL     1      -3.143  12.373  19.946  0.00  0.00    +0.000 A 
ATOM     14  C   UNL     1      -3.133  11.587  18.757  0.00  0.00    +0.000 A 
ATOM     15  C   UNL     1      -4.103  11.342  17.760  0.00  0.00    +0.000 A 
ATOM     16  C   UNL     1      -3.796  10.532  16.665  0.00  0.00    +0.000 A 
ATOM     17  C   UNL     1      -2.541   9.956  16.555  0.00  0.00    +0.000 A 
ATOM     18  C   UNL     1      -1.558  10.198  17.518  0.00  0.00    +0.000 A 
ATOM     19  C   UNL     1      -1.862  11.015  18.628  0.00  0.00    +0.000 A 
BRANCH  13  20
ATOM     20  C   UNL     1      -4.297  13.213  20.441  0.00  0.00    +0.000 C 
BRANCH  20  21
ATOM     21  C   UNL     1      -5.214  12.559  21.453  0.00  0.00    +0.000 C 
ATOM     22  O   UNL     1      -5.049  12.662  22.658  0.00  0.00    +0.000 OA
BRANCH  21  23
ATOM     23  O   UNL     1      -6.190  11.776  20.940  0.00  0.00    +0.000 OA
ATOM     24  H   UNL     1      -6.665  12.189  20.194  0.00  0.00    +0.000 HD
ENDBRANCH  21  23
ENDBRANCH  20  21
ENDBRANCH  13  20
ENDBRANCH   7   8
BRANCH   4  25
ATOM     25  O   UNL     1       3.139   6.530  18.418  0.00  0.00    +0.000 OA
BRANCH  25  26
ATOM     26  C   UNL     1       3.186   5.552  19.472  0.00  0.00    +0.000 C 
BRANCH  26  27
ATOM     27  C   UNL     1       3.354   4.136  18.896  0.00  0.00    +0.000 C 
ATOM     28  C   UNL     1       4.562   3.425  19.507  0.00  0.00    +0.000 C 
ATOM     29  O   UNL     1       5.754   4.183  19.242  0.00  0.00    +0.000 OA
ATOM     30  C   UNL     1       5.871   4.389  17.890  0.00  0.00    +0.000 A 
ATOM     31  C   UNL     1       7.146   4.660  17.398  0.00  0.00    +0.000 A 
ATOM     32  C   UNL     1       7.355   4.706  16.021  0.00  0.00    +0.000 A 
ATOM     33  C   UNL     1       6.286   4.499  15.145  0.00  0.00    +0.000 A 
ATOM     34  C   UNL     1       4.992   4.326  15.644  0.00  0.00    +0.000 A 
ATOM     35  C   UNL     1       4.777   4.302  17.021  0.00  0.00    +0.000 A 
ATOM     36  O   UNL     1       3.480   4.174  17.457  0.00  0.00    +0.000 OA
ENDBRANCH  26  27
ENDBRANCH  25  26
ENDBRANCH   4  25
TORSDOF 7
ENDMDL
MODEL 2
REMARK VINA RESULT:      -9.6      1.064      2.420
REMARK  Name = 
REMARK  9 active torsions:
REMARK  status: ('A' for Active; 'I' for Inactive)
REMARK    1  A    between atoms: C_1  and  C_2
REMARK    2  A    between atoms: C_4  and  O_5
REMARK    3  A    between atoms: O_5  and  C_6
REMARK    4  A    between atoms: C_6  and  C_7
REMARK    5  A    between atoms: C_19  and  C_20
REMARK    6  A    between atoms: C_23  and  C_24
REMARK    7  A    between atoms: C_25  and  C_26
REMARK    8  A    between atoms: C_26  and  C_27
REMARK    9  A    between atoms: C_27  and  O_29
REMARK                            x       y       z     vdW  Elec       q    Type
REMARK                         _______ _______ _______ _____ _____    ______ ____
ROOT
ATOM      1  C   UNL     1       0.526   8.713  21.586  0.00  0.00    +0.000 C 
ATOM      2  C   UNL     1       1.154   8.787  20.220  0.00  0.00    +0.000 A 
ATOM      3  C   UNL     1       1.823   7.641  19.726  0.00  0.00    +0.000 A 
ATOM      4  C   UNL     1       2.374   7.613  18.440  0.00  0.00    +0.000 A 
ATOM      5  C   UNL     1       2.281   8.750  17.645  0.00  0.00    +0.000 A 
ATOM      6  C   UNL     1       1.643   9.892  18.117  0.00  0.00    +0.000 A 
ATOM      7  C   UNL     1       1.122   9.946  19.418  0.00  0.00    +0.000 A 
ENDROOT
BRANCH   7   8
ATOM      8  C   UNL     1       0.531  11.249  19.843  0.00  0.00    +0.000 C 
ATOM      9  O   UNL     1       1.275  12.119  20.286  0.00  0.00    +0.000 OA
ATOM     10  N   UNL     1      -0.866  11.547  19.817  0.00  0.00    +0.000 N 
ATOM     11  C   UNL     1      -1.558  12.344  20.740  0.00  0.00    +0.000 A 
ATOM     12  C   UNL     1      -0.926  12.917  21.971  0.00  0.00    +0.000 C 
ATOM     13  C   UNL     1      -2.870  12.503  20.310  0.00  0.00    +0.000 A 
ATOM     14  C   UNL     1      -3.009  11.752  19.106  0.00  0.00    +0.000 A 
ATOM     15  C   UNL     1      -4.081  11.577  18.202  0.00  0.00    +0.000 A 
ATOM     16  C   UNL     1      -3.917  10.788  17.063  0.00  0.00    +0.000 A 
ATOM     17  C   UNL     1      -2.705  10.164  16.816  0.00  0.00    +0.000 A 
ATOM     18  C   UNL     1      -1.624  10.336  17.684  0.00  0.00    +0.000 A 
ATOM     19  C   UNL     1      -1.783  11.132  18.839  0.00  0.00    +0.000 A 
BRANCH  13  20
ATOM     20  C   UNL     1      -3.932  13.375  20.936  0.00  0.00    +0.000 C 
BRANCH  20  21
ATOM     21  C   UNL     1      -4.895  12.683  21.877  0.00  0.00    +0.000 C 
ATOM     22  O   UNL     1      -4.761  12.701  23.091  0.00  0.00    +0.000 OA
BRANCH  21  23
ATOM     23  O   UNL     1      -5.878  11.966  21.288  0.00  0.00    +0.000 OA
ATOM     24  H   UNL     1      -6.772  12.318  21.463  0.00  0.00    +0.000 HD
ENDBRANCH  21  23
ENDBRANCH  20  21
ENDBRANCH  13  20
ENDBRANCH   7   8
BRANCH   4  25
ATOM     25  O   UNL     1       2.991   6.451  18.053  0.00  0.00    +0.000 OA
BRANCH  25  26
ATOM     26  C   UNL     1       4.419   6.542  17.903  0.00  0.00    +0.000 C 
BRANCH  26  27
ATOM     27  C   UNL     1       5.123   5.417  18.680  0.00  0.00    +0.000 C 
ATOM     28  C   UNL     1       5.447   4.231  17.772  0.00  0.00    +0.000 C 
ATOM     29  O   UNL     1       4.235   3.716  17.198  0.00  0.00    +0.000 OA
ATOM     30  C   UNL     1       3.351   3.406  18.201  0.00  0.00    +0.000 A 
ATOM     31  C   UNL     1       2.356   2.478  17.905  0.00  0.00    +0.000 A 
ATOM     32  C   UNL     1       1.540   1.996  18.927  0.00  0.00    +0.000 A 
ATOM     33  C   UNL     1       1.713   2.458  20.234  0.00  0.00    +0.000 A 
ATOM     34  C   UNL     1       2.647   3.461  20.508  0.00  0.00    +0.000 A 
ATOM     35  C   UNL     1       3.448   3.960  19.482  0.00  0.00    +0.000 A 
ATOM     36  O   UNL     1       4.318   4.977  19.797  0.00  0.00    +0.000 OA
ENDBRANCH  26  27
ENDBRANCH  25  26
ENDBRANCH   4  25
TORSDOF 7
ENDMDL
MODEL 3
REMARK VINA RESULT:      -9.4      1.108      1.246
REMARK  Name = 
REMARK  9 active torsions:
REMARK  status: ('A' for Active; 'I' for Inactive)
REMARK    1  A    between atoms: C_1  and  C_2
REMARK    2  A    between atoms: C_4  and  O_5
REMARK    3  A    between atoms: O_5  and  C_6
REMARK    4  A    between atoms: C_6  and  C_7
REMARK    5  A    between atoms: C_19  and  C_20
REMARK    6  A    between atoms: C_23  and  C_24
REMARK    7  A    between atoms: C_25  and  C_26
REMARK    8  A    between atoms: C_26  and  C_27
REMARK    9  A    between atoms: C_27  and  O_29
REMARK                            x       y       z     vdW  Elec       q    Type
REMARK                         _______ _______ _______ _____ _____    ______ ____
ROOT
ATOM      1  C   UNL     1       0.565   8.867  21.789  0.00  0.00    +0.000 C 
ATOM      2  C   UNL     1       1.158   8.915  20.405  0.00  0.00    +0.000 A 
ATOM      3  C   UNL     1       1.790   7.751  19.905  0.00  0.00    +0.000 A 
ATOM      4  C   UNL     1       2.306   7.700  18.605  0.00  0.00    +0.000 A 
ATOM      5  C   UNL     1       2.215   8.831  17.802  0.00  0.00    +0.000 A 
ATOM      6  C   UNL     1       1.612   9.990  18.280  0.00  0.00    +0.000 A 
ATOM      7  C   UNL     1       1.128  10.067  19.593  0.00  0.00    +0.000 A 
ENDROOT
BRANCH   7   8
ATOM      8  C   UNL     1       0.575  11.385  20.021  0.00  0.00    +0.000 C 
ATOM      9  O   UNL     1       1.350  12.250  20.420  0.00  0.00    +0.000 OA
ATOM     10  N   UNL     1      -0.818  11.706  20.047  0.00  0.00    +0.000 N 
ATOM     11  C   UNL     1      -1.459  12.528  20.983  0.00  0.00    +0.000 A 
ATOM     12  C   UNL     1      -0.769  13.110  22.179  0.00  0.00    +0.000 C 
ATOM     13  C   UNL     1      -2.785  12.701  20.604  0.00  0.00    +0.000 A 
ATOM     14  C   UNL     1      -2.984  11.934  19.418  0.00  0.00    +0.000 A 
ATOM     15  C   UNL     1      -4.094  11.763  18.561  0.00  0.00    +0.000 A 
ATOM     16  C   UNL     1      -3.988  10.954  17.429  0.00  0.00    +0.000 A 
ATOM     17  C   UNL     1      -2.798  10.307  17.144  0.00  0.00    +0.000 A 
ATOM     18  C   UNL     1      -1.680  10.475  17.965  0.00  0.00    +0.000 A 
ATOM     19  C   UNL     1      -1.780  11.291  19.112  0.00  0.00    +0.000 A 
BRANCH  13  20
ATOM     20  C   UNL     1      -3.807  13.600  21.258  0.00  0.00    +0.000 C 
BRANCH  20  21
ATOM     21  C   UNL     1      -3.642  15.086  21.017  0.00  0.00    +0.000 C 
ATOM     22  O   UNL     1      -4.310  15.927  21.597  0.00  0.00    +0.000 OA
BRANCH  21  23
ATOM     23  O   UNL     1      -2.762  15.430  20.050  0.00  0.00    +0.000 OA
ATOM     24  H   UNL     1      -1.834  15.418  20.351  0.00  0.00    +0.000 HD
ENDBRANCH  21  23
ENDBRANCH  20  21
ENDBRANCH  13  20
ENDBRANCH   7   8
BRANCH   4  25
ATOM     25  O   UNL     1       2.889   6.522  18.214  0.00  0.00    +0.000 OA
BRANCH  25  26
ATOM     26  C   UNL     1       3.214   5.620  19.286  0.00  0.00    +0.000 C 
BRANCH  26  27
ATOM     27  C   UNL     1       3.405   4.189  18.756  0.00  0.00    +0.000 C 
ATOM     28  C   UNL     1       4.605   3.506  19.413  0.00  0.00    +0.000 C 
ATOM     29  O   UNL     1       5.796   4.265  19.150  0.00  0.00    +0.000 OA
ATOM     30  C   UNL     1       5.940   4.433  17.795  0.00  0.00    +0.000 A 
ATOM     31  C   UNL     1       7.224   4.699  17.323  0.00  0.00    +0.000 A 
ATOM     32  C   UNL     1       7.461   4.707  15.950  0.00  0.00    +0.000 A 
ATOM     33  C   UNL     1       6.413   4.465  15.058  0.00  0.00    +0.000 A 
ATOM     34  C   UNL     1       5.110   4.296  15.535  0.00  0.00    +0.000 A 
ATOM     35  C   UNL     1       4.866   4.311  16.907  0.00  0.00    +0.000 A 
ATOM     36  O   UNL     1       3.561   4.185  17.319  0.00  0.00    +0.000 OA
ENDBRANCH  26  27
ENDBRANCH  25  26
ENDBRANCH   4  25
TORSDOF 7
ENDMDL
MODEL 4
REMARK VINA RESULT:      -9.4      1.488      2.951
REMARK  Name = 
REMARK  9 active torsions:
REMARK  status: ('A' for Active; 'I' for Inactive)
REMARK    1  A    between atoms: C_1  and  C_2
REMARK    2  A    between atoms: C_4  and  O_5
REMARK    3  A    between atoms: O_5  and  C_6
REMARK    4  A    between atoms: C_6  and  C_7
REMARK    5  A    between atoms: C_19  and  C_20
REMARK    6  A    between atoms: C_23  and  C_24
REMARK    7  A    between atoms: C_25  and  C_26
REMARK    8  A    between atoms: C_26  and  C_27
REMARK    9  A    between atoms: C_27  and  O_29
REMARK                            x       y       z     vdW  Elec       q    Type
REMARK                         _______ _______ _______ _____ _____    ______ ____
ROOT
ATOM      1  C   UNL     1      -0.029   8.973  21.662  0.00  0.00    +0.000 C 
ATOM      2  C   UNL     1       0.774   9.047  20.391  0.00  0.00    +0.000 A 
ATOM      3  C   UNL     1       1.647   7.975  20.084  0.00  0.00    +0.000 A 
ATOM      4  C   UNL     1       2.376   7.943  18.891  0.00  0.00    +0.000 A 
ATOM      5  C   UNL     1       2.256   9.006  18.003  0.00  0.00    +0.000 A 
ATOM      6  C   UNL     1       1.417  10.077  18.291  0.00  0.00    +0.000 A 
ATOM      7  C   UNL     1       0.712  10.139  19.502  0.00  0.00    +0.000 A 
ENDROOT
BRANCH   7   8
ATOM      8  C   UNL     1      -0.093  11.373  19.738  0.00  0.00    +0.000 C 
ATOM      9  O   UNL     1       0.447  12.340  20.269  0.00  0.00    +0.000 OA
ATOM     10  N   UNL     1      -1.484  11.500  19.431  0.00  0.00    +0.000 N 
ATOM     11  C   UNL     1      -2.427  12.235  20.162  0.00  0.00    +0.000 A 
ATOM     12  C   UNL     1      -2.117  12.915  21.459  0.00  0.00    +0.000 C 
ATOM     13  C   UNL     1      -3.639  12.221  19.482  0.00  0.00    +0.000 A 
ATOM     14  C   UNL     1      -3.455  11.424  18.314  0.00  0.00    +0.000 A 
ATOM     15  C   UNL     1      -4.303  11.095  17.233  0.00  0.00    +0.000 A 
ATOM     16  C   UNL     1      -3.831  10.298  16.188  0.00  0.00    +0.000 A 
ATOM     17  C   UNL     1      -2.532   9.817  16.210  0.00  0.00    +0.000 A 
ATOM     18  C   UNL     1      -1.668  10.144  17.258  0.00  0.00    +0.000 A 
ATOM     19  C   UNL     1      -2.139  10.949  18.318  0.00  0.00    +0.000 A 
BRANCH  13  20
ATOM     20  C   UNL     1      -4.895  12.977  19.848  0.00  0.00    +0.000 C 
BRANCH  20  21
ATOM     21  C   UNL     1      -5.912  12.220  20.676  0.00  0.00    +0.000 C 
ATOM     22  O   UNL     1      -6.887  11.672  20.186  0.00  0.00    +0.000 OA
BRANCH  21  23
ATOM     23  O   UNL     1      -5.723  12.256  22.014  0.00  0.00    +0.000 OA
ATOM     24  H   UNL     1      -4.940  11.752  22.307  0.00  0.00    +0.000 HD
ENDBRANCH  21  23
ENDBRANCH  20  21
ENDBRANCH  13  20
ENDBRANCH   7   8
BRANCH   4  25
ATOM     25  O   UNL     1       3.185   6.855  18.685  0.00  0.00    +0.000 OA
BRANCH  25  26
ATOM     26  C   UNL     1       2.900   6.103  17.492  0.00  0.00    +0.000 C 
BRANCH  26  27
ATOM     27  C   UNL     1       3.560   4.716  17.549  0.00  0.00    +0.000 C 
ATOM     28  C   UNL     1       2.627   3.631  17.012  0.00  0.00    +0.000 C 
ATOM     29  O   UNL     1       1.417   3.607  17.788  0.00  0.00    +0.000 OA
ATOM     30  C   UNL     1       1.730   3.446  19.115  0.00  0.00    +0.000 A 
ATOM     31  C   UNL     1       0.737   2.925  19.941  0.00  0.00    +0.000 A 
ATOM     32  C   UNL     1       1.049   2.580  21.255  0.00  0.00    +0.000 A 
ATOM     33  C   UNL     1       2.346   2.771  21.738  0.00  0.00    +0.000 A 
ATOM     34  C   UNL     1       3.312   3.384  20.935  0.00  0.00    +0.000 A 
ATOM     35  C   UNL     1       2.995   3.752  19.628  0.00  0.00    +0.000 A 
ATOM     36  O   UNL     1       3.968   4.392  18.898  0.00  0.00    +0.000 OA
ENDBRANCH  26  27
ENDBRANCH  25  26
ENDBRANCH   4  25
TORSDOF 7
ENDMDL
MODEL 5
REMARK VINA RESULT:      -9.3      0.760      1.457
REMARK  Name = 
REMARK  9 active torsions:
REMARK  status: ('A' for Active; 'I' for Inactive)
REMARK    1  A    between atoms: C_1  and  C_2
REMARK    2  A    between atoms: C_4  and  O_5
REMARK    3  A    between atoms: O_5  and  C_6
REMARK    4  A    between atoms: C_6  and  C_7
REMARK    5  A    between atoms: C_19  and  C_20
REMARK    6  A    between atoms: C_23  and  C_24
REMARK    7  A    between atoms: C_25  and  C_26
REMARK    8  A    between atoms: C_26  and  C_27
REMARK    9  A    between atoms: C_27  and  O_29
REMARK                            x       y       z     vdW  Elec       q    Type
REMARK                         _______ _______ _______ _____ _____    ______ ____
ROOT
ATOM      1  C   UNL     1       2.148  10.150  17.832  0.00  0.00    +0.000 C 
ATOM      2  C   UNL     1       1.806   9.189  18.939  0.00  0.00    +0.000 A 
ATOM      3  C   UNL     1       2.208   7.838  18.803  0.00  0.00    +0.000 A 
ATOM      4  C   UNL     1       1.984   6.902  19.819  0.00  0.00    +0.000 A 
ATOM      5  C   UNL     1       1.326   7.310  20.973  0.00  0.00    +0.000 A 
ATOM      6  C   UNL     1       0.907   8.627  21.120  0.00  0.00    +0.000 A 
ATOM      7  C   UNL     1       1.091   9.565  20.094  0.00  0.00    +0.000 A 
ENDROOT
BRANCH   7   8
ATOM      8  C   UNL     1       0.530  10.928  20.331  0.00  0.00    +0.000 C 
ATOM      9  O   UNL     1       1.246  11.781  20.847  0.00  0.00    +0.000 OA
ATOM     10  N   UNL     1      -0.818  11.306  20.040  0.00  0.00    +0.000 N 
ATOM     11  C   UNL     1      -1.600  12.205  20.778  0.00  0.00    +0.000 A 
ATOM     12  C   UNL     1      -1.152  12.824  22.066  0.00  0.00    +0.000 C 
ATOM     13  C   UNL     1      -2.804  12.411  20.114  0.00  0.00    +0.000 A 
ATOM     14  C   UNL     1      -2.785  11.587  18.950  0.00  0.00    +0.000 A 
ATOM     15  C   UNL     1      -3.695  11.414  17.882  0.00  0.00    +0.000 A 
ATOM     16  C   UNL     1      -3.392  10.539  16.838  0.00  0.00    +0.000 A 
ATOM     17  C   UNL     1      -2.203   9.828  16.846  0.00  0.00    +0.000 A 
ATOM     18  C   UNL     1      -1.279   9.996  17.881  0.00  0.00    +0.000 A 
ATOM     19  C   UNL     1      -1.579  10.879  18.941  0.00  0.00    +0.000 A 
BRANCH  13  20
ATOM     20  C   UNL     1      -3.894  13.386  20.490  0.00  0.00    +0.000 C 
BRANCH  20  21
ATOM     21  C   UNL     1      -4.814  12.958  21.613  0.00  0.00    +0.000 C 
ATOM     22  O   UNL     1      -5.662  12.090  21.478  0.00  0.00    +0.000 OA
BRANCH  21  23
ATOM     23  O   UNL     1      -4.700  13.657  22.765  0.00  0.00    +0.000 OA
ATOM     24  H   UNL     1      -3.897  14.210  22.803  0.00  0.00    +0.000 HD
ENDBRANCH  21  23
ENDBRANCH  20  21
ENDBRANCH  13  20
ENDBRANCH   7   8
BRANCH   4  25
ATOM     25  O   UNL     1       2.423   5.622  19.593  0.00  0.00    +0.000 OA
BRANCH  25  26
ATOM     26  C   UNL     1       2.563   5.264  18.207  0.00  0.00    +0.000 C 
BRANCH  26  27
ATOM     27  C   UNL     1       3.247   3.895  18.063  0.00  0.00    +0.000 C 
ATOM     28  C   UNL     1       4.440   3.764  19.009  0.00  0.00    +0.000 C 
ATOM     29  O   UNL     1       5.397   4.798  18.724  0.00  0.00    +0.000 OA
ATOM     30  C   UNL     1       5.746   4.743  17.398  0.00  0.00    +0.000 A 
ATOM     31  C   UNL     1       6.969   5.308  17.041  0.00  0.00    +0.000 A 
ATOM     32  C   UNL     1       7.454   5.131  15.747  0.00  0.00    +0.000 A 
ATOM     33  C   UNL     1       6.708   4.405  14.814  0.00  0.00    +0.000 A 
ATOM     34  C   UNL     1       5.439   3.925  15.150  0.00  0.00    +0.000 A 
ATOM     35  C   UNL     1       4.942   4.121  16.437  0.00  0.00    +0.000 A 
ATOM     36  O   UNL     1       3.671   3.669  16.700  0.00  0.00    +0.000 OA
ENDBRANCH  26  27
ENDBRANCH  25  26
ENDBRANCH   4  25
TORSDOF 7
ENDMDL
MODEL 6
REMARK VINA RESULT:      -9.2      1.348      1.904
REMARK  Name = 
REMARK  9 active torsions:
REMARK  status: ('A' for Active; 'I' for Inactive)
REMARK    1  A    between atoms: C_1  and  C_2
REMARK    2  A    between atoms: C_4  and  O_5
REMARK    3  A    between atoms: O_5  and  C_6
REMARK    4  A    between atoms: C_6  and  C_7
REMARK    5  A    between atoms: C_19  and  C_20
REMARK    6  A    between atoms: C_23  and  C_24
REMARK    7  A    between atoms: C_25  and  C_26
REMARK    8  A    between atoms: C_26  and  C_27
REMARK    9  A    between atoms: C_27  and  O_29
REMARK                            x       y       z     vdW  Elec       q    Type
REMARK                         _______ _______ _______ _____ _____    ______ ____
ROOT
ATOM      1  C   UNL     1       2.085   9.923  17.855  0.00  0.00    +0.000 C 
ATOM      2  C   UNL     1       1.696   8.989  18.970  0.00  0.00    +0.000 A 
ATOM      3  C   UNL     1       1.967   7.607  18.814  0.00  0.00    +0.000 A 
ATOM      4  C   UNL     1       1.693   6.689  19.833  0.00  0.00    +0.000 A 
ATOM      5  C   UNL     1       1.116   7.147  21.012  0.00  0.00    +0.000 A 
ATOM      6  C   UNL     1       0.827   8.496  21.180  0.00  0.00    +0.000 A 
ATOM      7  C   UNL     1       1.060   9.421  20.151  0.00  0.00    +0.000 A 
ENDROOT
BRANCH   7   8
ATOM      8  C   UNL     1       0.635  10.827  20.413  0.00  0.00    +0.000 C 
ATOM      9  O   UNL     1       1.451  11.613  20.887  0.00  0.00    +0.000 OA
ATOM     10  N   UNL     1      -0.687  11.324  20.195  0.00  0.00    +0.000 N 
ATOM     11  C   UNL     1      -1.346  12.288  20.972  0.00  0.00    +0.000 A 
ATOM     12  C   UNL     1      -0.775  12.863  22.231  0.00  0.00    +0.000 C 
ATOM     13  C   UNL     1      -2.560  12.601  20.373  0.00  0.00    +0.000 A 
ATOM     14  C   UNL     1      -2.679  11.780  19.213  0.00  0.00    +0.000 A 
ATOM     15  C   UNL     1      -3.657  11.690  18.197  0.00  0.00    +0.000 A 
ATOM     16  C   UNL     1      -3.491  10.793  17.141  0.00  0.00    +0.000 A 
ATOM     17  C   UNL     1      -2.371   9.979  17.087  0.00  0.00    +0.000 A 
ATOM     18  C   UNL     1      -1.380  10.063  18.069  0.00  0.00    +0.000 A 
ATOM     19  C   UNL     1      -1.542  10.967  19.140  0.00  0.00    +0.000 A 
BRANCH  13  20
ATOM     20  C   UNL     1      -3.537  13.668  20.805  0.00  0.00    +0.000 C 
BRANCH  20  21
ATOM     21  C   UNL     1      -4.851  13.179  21.377  0.00  0.00    +0.000 C 
ATOM     22  O   UNL     1      -4.915  12.357  22.278  0.00  0.00    +0.000 OA
BRANCH  21  23
ATOM     23  O   UNL     1      -5.966  13.648  20.772  0.00  0.00    +0.000 OA
ATOM     24  H   UNL     1      -6.713  13.779  21.386  0.00  0.00    +0.000 HD
ENDBRANCH  21  23
ENDBRANCH  20  21
ENDBRANCH  13  20
ENDBRANCH   7   8
BRANCH   4  25
ATOM     25  O   UNL     1       2.004   5.376  19.586  0.00  0.00    +0.000 OA
BRANCH  25  26
ATOM     26  C   UNL     1       3.390   5.036  19.763  0.00  0.00    +0.000 C 
BRANCH  26  27
ATOM     27  C   UNL     1       4.015   4.586  18.432  0.00  0.00    +0.000 C 
ATOM     28  C   UNL     1       5.211   3.662  18.661  0.00  0.00    +0.000 C 
ATOM     29  O   UNL     1       6.208   4.346  19.440  0.00  0.00    +0.000 OA
ATOM     30  C   UNL     1       6.541   5.523  18.818  0.00  0.00    +0.000 A 
ATOM     31  C   UNL     1       7.783   6.074  19.130  0.00  0.00    +0.000 A 
ATOM     32  C   UNL     1       8.248   7.170  18.406  0.00  0.00    +0.000 A 
ATOM     33  C   UNL     1       7.464   7.719  17.388  0.00  0.00    +0.000 A 
ATOM     34  C   UNL     1       6.180   7.224  17.146  0.00  0.00    +0.000 A 
ATOM     35  C   UNL     1       5.703   6.142  17.885  0.00  0.00    +0.000 A 
ATOM     36  O   UNL     1       4.417   5.724  17.637  0.00  0.00    +0.000 OA
ENDBRANCH  26  27
ENDBRANCH  25  26
ENDBRANCH   4  25
TORSDOF 7
ENDMDL
MODEL 7
REMARK VINA RESULT:      -9.2      0.876      1.015
REMARK  Name = 
REMARK  9 active torsions:
REMARK  status: ('A' for Active; 'I' for Inactive)
REMARK    1  A    between atoms: C_1  and  C_2
REMARK    2  A    between atoms: C_4  and  O_5
REMARK    3  A    between atoms: O_5  and  C_6
REMARK    4  A    between atoms: C_6  and  C_7
REMARK    5  A    between atoms: C_19  and  C_20
REMARK    6  A    between atoms: C_23  and  C_24
REMARK    7  A    between atoms: C_25  and  C_26
REMARK    8  A    between atoms: C_26  and  C_27
REMARK    9  A    between atoms: C_27  and  O_29
REMARK                            x       y       z     vdW  Elec       q    Type
REMARK                         _______ _______ _______ _____ _____    ______ ____
ROOT
ATOM      1  C   UNL     1      -0.037   9.197  22.836  0.00  0.00    +0.000 C 
ATOM      2  C   UNL     1       0.681   8.921  21.542  0.00  0.00    +0.000 A 
ATOM      3  C   UNL     1       1.242   7.636  21.347  0.00  0.00    +0.000 A 
ATOM      4  C   UNL     1       1.867   7.285  20.145  0.00  0.00    +0.000 A 
ATOM      5  C   UNL     1       1.959   8.236  19.135  0.00  0.00    +0.000 A 
ATOM      6  C   UNL     1       1.430   9.509  19.312  0.00  0.00    +0.000 A 
ATOM      7  C   UNL     1       0.836   9.885  20.526  0.00  0.00    +0.000 A 
ENDROOT
BRANCH   7   8
ATOM      8  C   UNL     1       0.376  11.301  20.629  0.00  0.00    +0.000 C 
ATOM      9  O   UNL     1       1.179  12.160  20.983  0.00  0.00    +0.000 OA
ATOM     10  N   UNL     1      -0.966  11.732  20.389  0.00  0.00    +0.000 N 
ATOM     11  C   UNL     1      -1.634  12.764  21.062  0.00  0.00    +0.000 A 
ATOM     12  C   UNL     1      -1.051  13.502  22.227  0.00  0.00    +0.000 C 
ATOM     13  C   UNL     1      -2.872  12.970  20.463  0.00  0.00    +0.000 A 
ATOM     14  C   UNL     1      -2.993  12.012  19.414  0.00  0.00    +0.000 A 
ATOM     15  C   UNL     1      -3.992  11.774  18.443  0.00  0.00    +0.000 A 
ATOM     16  C   UNL     1      -3.824  10.760  17.498  0.00  0.00    +0.000 A 
ATOM     17  C   UNL     1      -2.682   9.977  17.512  0.00  0.00    +0.000 A 
ATOM     18  C   UNL     1      -1.671  10.205  18.449  0.00  0.00    +0.000 A 
ATOM     19  C   UNL     1      -1.834  11.227  19.408  0.00  0.00    +0.000 A 
BRANCH  13  20
ATOM     20  C   UNL     1      -3.870  14.055  20.790  0.00  0.00    +0.000 C 
BRANCH  20  21
ATOM     21  C   UNL     1      -4.755  13.808  21.994  0.00  0.00    +0.000 C 
ATOM     22  O   UNL     1      -4.997  14.669  22.824  0.00  0.00    +0.000 OA
BRANCH  21  23
ATOM     23  O   UNL     1      -5.203  12.541  22.143  0.00  0.00    +0.000 OA
ATOM     24  H   UNL     1      -4.576  11.868  21.815  0.00  0.00    +0.000 HD
ENDBRANCH  21  23
ENDBRANCH  20  21
ENDBRANCH  13  20
ENDBRANCH   7   8
BRANCH   4  25
ATOM     25  O   UNL     1       2.368   6.012  20.053  0.00  0.00    +0.000 OA
BRANCH  25  26
ATOM     26  C   UNL     1       3.472   5.857  19.145  0.00  0.00    +0.000 C 
BRANCH  26  27
ATOM     27  C   UNL     1       3.524   4.426  18.585  0.00  0.00    +0.000 C 
ATOM     28  C   UNL     1       4.694   3.638  19.173  0.00  0.00    +0.000 C 
ATOM     29  O   UNL     1       5.929   4.306  18.865  0.00  0.00    +0.000 OA
ATOM     30  C   UNL     1       6.022   4.487  17.507  0.00  0.00    +0.000 A 
ATOM     31  C   UNL     1       7.299   4.660  16.978  0.00  0.00    +0.000 A 
ATOM     32  C   UNL     1       7.472   4.675  15.595  0.00  0.00    +0.000 A 
ATOM     33  C   UNL     1       6.367   4.534  14.751  0.00  0.00    +0.000 A 
ATOM     34  C   UNL     1       5.079   4.459  15.287  0.00  0.00    +0.000 A 
ATOM     35  C   UNL     1       4.902   4.467  16.670  0.00  0.00    +0.000 A 
ATOM     36  O   UNL     1       3.611   4.437  17.143  0.00  0.00    +0.000 OA
ENDBRANCH  26  27
ENDBRANCH  25  26
ENDBRANCH   4  25
TORSDOF 7
ENDMDL
MODEL 8
REMARK VINA RESULT:      -9.0      1.914      3.372
REMARK  Name = 
REMARK  9 active torsions:
REMARK  status: ('A' for Active; 'I' for Inactive)
REMARK    1  A    between atoms: C_1  and  C_2
REMARK    2  A    between atoms: C_4  and  O_5
REMARK    3  A    between atoms: O_5  and  C_6
REMARK    4  A    between atoms: C_6  and  C_7
REMARK    5  A    between atoms: C_19  and  C_20
REMARK    6  A    between atoms: C_23  and  C_24
REMARK    7  A    between atoms: C_25  and  C_26
REMARK    8  A    between atoms: C_26  and  C_27
REMARK    9  A    between atoms: C_27  and  O_29
REMARK                            x       y       z     vdW  Elec       q    Type
REMARK                         _______ _______ _______ _____ _____    ______ ____
ROOT
ATOM      1  C   UNL     1      -0.387   9.536  21.380  0.00  0.00    +0.000 C 
ATOM      2  C   UNL     1       0.416  10.121  20.248  0.00  0.00    +0.000 A 
ATOM      3  C   UNL     1       1.151   9.238  19.421  0.00  0.00    +0.000 A 
ATOM      4  C   UNL     1       1.868   9.700  18.312  0.00  0.00    +0.000 A 
ATOM      5  C   UNL     1       1.875  11.063  18.038  0.00  0.00    +0.000 A 
ATOM      6  C   UNL     1       1.173  11.950  18.847  0.00  0.00    +0.000 A 
ATOM      7  C   UNL     1       0.484  11.503  19.984  0.00  0.00    +0.000 A 
ENDROOT
BRANCH   7   8
ATOM      8  C   UNL     1      -0.166  12.554  20.822  0.00  0.00    +0.000 C 
ATOM      9  O   UNL     1       0.540  13.404  21.358  0.00  0.00    +0.000 OA
ATOM     10  N   UNL     1      -1.568  12.619  21.090  0.00  0.00    +0.000 N 
ATOM     11  C   UNL     1      -2.161  13.050  22.285  0.00  0.00    +0.000 A 
ATOM     12  C   UNL     1      -1.380  13.409  23.511  0.00  0.00    +0.000 C 
ATOM     13  C   UNL     1      -3.541  13.091  22.118  0.00  0.00    +0.000 A 
ATOM     14  C   UNL     1      -3.816  12.635  20.795  0.00  0.00    +0.000 A 
ATOM     15  C   UNL     1      -5.012  12.509  20.053  0.00  0.00    +0.000 A 
ATOM     16  C   UNL     1      -4.974  12.050  18.735  0.00  0.00    +0.000 A 
ATOM     17  C   UNL     1      -3.766  11.708  18.150  0.00  0.00    +0.000 A 
ATOM     18  C   UNL     1      -2.568  11.842  18.857  0.00  0.00    +0.000 A 
ATOM     19  C   UNL     1      -2.598  12.304  20.190  0.00  0.00    +0.000 A 
BRANCH  13  20
ATOM     20  C   UNL     1      -4.560  13.605  23.106  0.00  0.00    +0.000 C 
BRANCH  20  21
ATOM     21  C   UNL     1      -5.377  12.555  23.831  0.00  0.00    +0.000 C 
ATOM     22  O   UNL     1      -6.475  12.188  23.443  0.00  0.00    +0.000 OA
BRANCH  21  23
ATOM     23  O   UNL     1      -4.851  12.100  24.990  0.00  0.00    +0.000 OA
ATOM     24  H   UNL     1      -5.359  11.365  25.383  0.00  0.00    +0.000 HD
ENDBRANCH  21  23
ENDBRANCH  20  21
ENDBRANCH  13  20
ENDBRANCH   7   8
BRANCH   4  25
ATOM     25  O   UNL     1       2.538   8.762  17.569  0.00  0.00    +0.000 OA
BRANCH  25  26
ATOM     26  C   UNL     1       2.161   7.399  17.829  0.00  0.00    +0.000 C 
BRANCH  26  27
ATOM     27  C   UNL     1       3.349   6.599  18.387  0.00  0.00    +0.000 C 
ATOM     28  C   UNL     1       3.658   5.379  17.520  0.00  0.00    +0.000 C 
ATOM     29  O   UNL     1       2.505   4.524  17.461  0.00  0.00    +0.000 OA
ATOM     30  C   UNL     1       2.113   4.199  18.736  0.00  0.00    +0.000 A 
ATOM     31  C   UNL     1       1.357   3.039  18.890  0.00  0.00    +0.000 A 
ATOM     32  C   UNL     1       1.078   2.567  20.172  0.00  0.00    +0.000 A 
ATOM     33  C   UNL     1       1.542   3.266  21.289  0.00  0.00    +0.000 A 
ATOM     34  C   UNL     1       2.216   4.480  21.130  0.00  0.00    +0.000 A 
ATOM     35  C   UNL     1       2.476   4.965  19.849  0.00  0.00    +0.000 A 
ATOM     36  O   UNL     1       3.101   6.185  19.750  0.00  0.00    +0.000 OA
ENDBRANCH  26  27
ENDBRANCH  25  26
ENDBRANCH   4  25
TORSDOF 7
ENDMDL
MODEL 9
REMARK VINA RESULT:      -9.0      1.446      2.924
REMARK  Name = 
REMARK  9 active torsions:
REMARK  status: ('A' for Active; 'I' for Inactive)
REMARK    1  A    between atoms: C_1  and  C_2
REMARK    2  A    between atoms: C_4  and  O_5
REMARK    3  A    between atoms: O_5  and  C_6
REMARK    4  A    between atoms: C_6  and  C_7
REMARK    5  A    between atoms: C_19  and  C_20
REMARK    6  A    between atoms: C_23  and  C_24
REMARK    7  A    between atoms: C_25  and  C_26
REMARK    8  A    between atoms: C_26  and  C_27
REMARK    9  A    between atoms: C_27  and  O_29
REMARK                            x       y       z     vdW  Elec       q    Type
REMARK                         _______ _______ _______ _____ _____    ______ ____
ROOT
ATOM      1  C   UNL     1       0.350   9.224  21.935  0.00  0.00    +0.000 C 
ATOM      2  C   UNL     1       0.893   9.335  20.535  0.00  0.00    +0.000 A 
ATOM      3  C   UNL     1       1.437   8.175  19.932  0.00  0.00    +0.000 A 
ATOM      4  C   UNL     1       1.900   8.186  18.612  0.00  0.00    +0.000 A 
ATOM      5  C   UNL     1       1.846   9.374  17.891  0.00  0.00    +0.000 A 
ATOM      6  C   UNL     1       1.330  10.528  18.470  0.00  0.00    +0.000 A 
ATOM      7  C   UNL     1       0.900  10.540  19.805  0.00  0.00    +0.000 A 
ENDROOT
BRANCH   7   8
ATOM      8  C   UNL     1       0.441  11.855  20.342  0.00  0.00    +0.000 C 
ATOM      9  O   UNL     1       1.284  12.684  20.676  0.00  0.00    +0.000 OA
ATOM     10  N   UNL     1      -0.928  12.209  20.546  0.00  0.00    +0.000 N 
ATOM     11  C   UNL     1      -1.429  13.010  21.582  0.00  0.00    +0.000 A 
ATOM     12  C   UNL     1      -0.585  13.527  22.706  0.00  0.00    +0.000 C 
ATOM     13  C   UNL     1      -2.785  13.231  21.371  0.00  0.00    +0.000 A 
ATOM     14  C   UNL     1      -3.146  12.516  20.191  0.00  0.00    +0.000 A 
ATOM     15  C   UNL     1      -4.355  12.407  19.468  0.00  0.00    +0.000 A 
ATOM     16  C   UNL     1      -4.409  11.640  18.303  0.00  0.00    +0.000 A 
ATOM     17  C   UNL     1      -3.280  10.975  17.854  0.00  0.00    +0.000 A 
ATOM     18  C   UNL     1      -2.068  11.082  18.540  0.00  0.00    +0.000 A 
ATOM     19  C   UNL     1      -2.007  11.855  19.720  0.00  0.00    +0.000 A 
BRANCH  13  20
ATOM     20  C   UNL     1      -3.695  14.129  22.175  0.00  0.00    +0.000 C 
BRANCH  20  21
ATOM     21  C   UNL     1      -4.449  13.471  23.311  0.00  0.00    +0.000 C 
ATOM     22  O   UNL     1      -4.911  12.343  23.231  0.00  0.00    +0.000 OA
BRANCH  21  23
ATOM     23  O   UNL     1      -4.656  14.241  24.402  0.00  0.00    +0.000 OA
ATOM     24  H   UNL     1      -5.018  13.747  25.162  0.00  0.00    +0.000 HD
ENDBRANCH  21  23
ENDBRANCH  20  21
ENDBRANCH  13  20
ENDBRANCH   7   8
BRANCH   4  25
ATOM     25  O   UNL     1       2.399   7.007  18.118  0.00  0.00    +0.000 OA
BRANCH  25  26
ATOM     26  C   UNL     1       3.804   7.022  17.814  0.00  0.00    +0.000 C 
BRANCH  26  27
ATOM     27  C   UNL     1       4.536   5.891  18.554  0.00  0.00    +0.000 C 
ATOM     28  C   UNL     1       4.679   4.649  17.674  0.00  0.00    +0.000 C 
ATOM     29  O   UNL     1       3.378   4.185  17.278  0.00  0.00    +0.000 OA
ATOM     30  C   UNL     1       2.610   3.973  18.396  0.00  0.00    +0.000 A 
ATOM     31  C   UNL     1       1.536   3.095  18.269  0.00  0.00    +0.000 A 
ATOM     32  C   UNL     1       0.828   2.709  19.406  0.00  0.00    +0.000 A 
ATOM     33  C   UNL     1       1.187   3.214  20.658  0.00  0.00    +0.000 A 
ATOM     34  C   UNL     1       2.202   4.169  20.765  0.00  0.00    +0.000 A 
ATOM     35  C   UNL     1       2.896   4.574  19.626  0.00  0.00    +0.000 A 
ATOM     36  O   UNL     1       3.853   5.549  19.782  0.00  0.00    +0.000 OA
ENDBRANCH  26  27
ENDBRANCH  25  26
ENDBRANCH   4  25
TORSDOF 7
ENDMDL
