MODEL 1
REMARK VINA RESULT:      -7.3      0.000      0.000
REMARK  Name = 
REMARK  7 active torsions:
REMARK  status: ('A' for Active; 'I' for Inactive)
REMARK    1  A    between atoms: C_1  and  S_2
REMARK    2  A    between atoms: S_2  and  C_3
REMARK    3  A    between atoms: C_6  and  C_7
REMARK    4  A    between atoms: C_7  and  N_8
REMARK    5  A    between atoms: C_11  and  C_12
REMARK    6  A    between atoms: C_11  and  O_13
REMARK    7  A    between atoms: O_13  and  C_14
REMARK                            x       y       z     vdW  Elec       q    Type
REMARK                         _______ _______ _______ _____ _____    ______ ____
ROOT
ATOM      1  N   UNL     1       2.460   6.947  19.790  0.00  0.00    +0.000 NA
ATOM      2  C   UNL     1       1.532   6.131  20.565  0.00  0.00    +0.000 C 
ATOM      3  C   UNL     1       2.155   4.734  20.491  0.00  0.00    +0.000 C 
ATOM      4  C   UNL     1       2.661   4.619  19.037  0.00  0.00    +0.000 C 
ATOM      5  C   UNL     1       1.539   3.995  18.186  0.00  0.00    +0.000 C 
ATOM      6  C   UNL     1       2.964   6.095  18.712  0.00  0.00    +0.000 C 
ENDROOT
BRANCH   1   7
ATOM      7  C   UNL     1       1.916   8.189  19.235  0.00  0.00    +0.000 C 
BRANCH   7  11
ATOM      8  C   UNL     1      -0.430  10.489  22.038  0.00  0.00    +0.000 A 
ATOM      9  C   UNL     1       0.524   9.579  22.501  0.00  0.00    +0.000 A 
ATOM     10  C   UNL     1       1.293   8.843  21.595  0.00  0.00    +0.000 A 
ATOM     11  C   UNL     1       1.104   8.996  20.215  0.00  0.00    +0.000 A 
ATOM     12  C   UNL     1       0.179   9.937  19.755  0.00  0.00    +0.000 A 
ATOM     13  C   UNL     1      -0.590  10.673  20.661  0.00  0.00    +0.000 A 
BRANCH   8  15
ATOM     14  C   UNL     1      -1.055  13.058  22.836  0.00  0.00    +0.000 C 
ATOM     15  S   UNL     1      -1.531  11.342  23.151  0.00  0.00    +0.000 S 
ENDBRANCH   8  15
ENDBRANCH   7  11
ENDBRANCH   1   7
BRANCH   4  16
ATOM     16  O   UNL     1       3.840   3.785  18.993  0.00  0.00    +0.000 OA
BRANCH  16  17
ATOM     17  C   UNL     1       4.766   4.008  18.003  0.00  0.00    +0.000 A 
ATOM     18  C   UNL     1       4.570   3.795  16.632  0.00  0.00    +0.000 A 
ATOM     19  C   UNL     1       5.588   4.035  15.706  0.00  0.00    +0.000 A 
ATOM     20  C   UNL     1       6.810   4.505  16.151  0.00  0.00    +0.000 A 
ATOM     21  F   UNL     1       7.786   4.721  15.272  0.00  0.00    +0.000 F 
ATOM     22  C   UNL     1       7.020   4.753  17.502  0.00  0.00    +0.000 A 
ATOM     23  C   UNL     1       5.998   4.516  18.428  0.00  0.00    +0.000 A 
ENDBRANCH  16  17
ENDBRANCH   4  16
TORSDOF 5
ENDMDL
MODEL 2
REMARK VINA RESULT:      -7.2      2.660      4.307
REMARK  Name = 
REMARK  7 active torsions:
REMARK  status: ('A' for Active; 'I' for Inactive)
REMARK    1  A    between atoms: C_1  and  S_2
REMARK    2  A    between atoms: S_2  and  C_3
REMARK    3  A    between atoms: C_6  and  C_7
REMARK    4  A    between atoms: C_7  and  N_8
REMARK    5  A    between atoms: C_11  and  C_12
REMARK    6  A    between atoms: C_11  and  O_13
REMARK    7  A    between atoms: O_13  and  C_14
REMARK                            x       y       z     vdW  Elec       q    Type
REMARK                         _______ _______ _______ _____ _____    ______ ____
ROOT
ATOM      1  N   UNL     1       4.665   6.644  17.203  0.00  0.00    +0.000 NA
ATOM      2  C   UNL     1       5.742   7.210  18.008  0.00  0.00    +0.000 C 
ATOM      3  C   UNL     1       6.971   7.037  17.111  0.00  0.00    +0.000 C 
ATOM      4  C   UNL     1       6.784   5.643  16.474  0.00  0.00    +0.000 C 
ATOM      5  C   UNL     1       7.485   4.607  17.372  0.00  0.00    +0.000 C 
ATOM      6  C   UNL     1       5.248   5.533  16.450  0.00  0.00    +0.000 C 
ENDROOT
BRANCH   1   7
ATOM      7  C   UNL     1       3.484   6.186  17.940  0.00  0.00    +0.000 C 
BRANCH   7  11
ATOM      8  C   UNL     1       1.098   9.388  19.585  0.00  0.00    +0.000 A 
ATOM      9  C   UNL     1       1.477   9.414  18.240  0.00  0.00    +0.000 A 
ATOM     10  C   UNL     1       2.239   8.372  17.703  0.00  0.00    +0.000 A 
ATOM     11  C   UNL     1       2.645   7.301  18.509  0.00  0.00    +0.000 A 
ATOM     12  C   UNL     1       2.228   7.256  19.843  0.00  0.00    +0.000 A 
ATOM     13  C   UNL     1       1.466   8.298  20.379  0.00  0.00    +0.000 A 
BRANCH   8  15
ATOM     14  C   UNL     1       0.073  10.138  22.037  0.00  0.00    +0.000 C 
ATOM     15  S   UNL     1       0.252  10.760  20.348  0.00  0.00    +0.000 S 
ENDBRANCH   8  15
ENDBRANCH   7  11
ENDBRANCH   1   7
BRANCH   4  16
ATOM     16  O   UNL     1       7.365   5.628  15.151  0.00  0.00    +0.000 OA
BRANCH  16  17
ATOM     17  C   UNL     1       6.787   4.836  14.189  0.00  0.00    +0.000 A 
ATOM     18  C   UNL     1       5.558   4.172  14.301  0.00  0.00    +0.000 A 
ATOM     19  C   UNL     1       5.069   3.370  13.267  0.00  0.00    +0.000 A 
ATOM     20  C   UNL     1       5.806   3.242  12.103  0.00  0.00    +0.000 A 
ATOM     21  F   UNL     1       5.347   2.467  11.123  0.00  0.00    +0.000 F 
ATOM     22  C   UNL     1       7.013   3.913  11.956  0.00  0.00    +0.000 A 
ATOM     23  C   UNL     1       7.501   4.719  12.992  0.00  0.00    +0.000 A 
ENDBRANCH  16  17
ENDBRANCH   4  16
TORSDOF 5
ENDMDL
MODEL 3
REMARK VINA RESULT:      -7.1      2.097      2.992
REMARK  Name = 
REMARK  7 active torsions:
REMARK  status: ('A' for Active; 'I' for Inactive)
REMARK    1  A    between atoms: C_1  and  S_2
REMARK    2  A    between atoms: S_2  and  C_3
REMARK    3  A    between atoms: C_6  and  C_7
REMARK    4  A    between atoms: C_7  and  N_8
REMARK    5  A    between atoms: C_11  and  C_12
REMARK    6  A    between atoms: C_11  and  O_13
REMARK    7  A    between atoms: O_13  and  C_14
REMARK                            x       y       z     vdW  Elec       q    Type
REMARK                         _______ _______ _______ _____ _____    ______ ____
ROOT
ATOM      1  N   UNL     1       3.109   4.562  20.104  0.00  0.00    +0.000 NA
ATOM      2  C   UNL     1       3.335   3.191  20.550  0.00  0.00    +0.000 C 
ATOM      3  C   UNL     1       4.215   2.607  19.441  0.00  0.00    +0.000 C 
ATOM      4  C   UNL     1       3.618   3.182  18.138  0.00  0.00    +0.000 C 
ATOM      5  C   UNL     1       2.566   2.188  17.613  0.00  0.00    +0.000 C 
ATOM      6  C   UNL     1       3.040   4.518  18.643  0.00  0.00    +0.000 C 
ENDROOT
BRANCH   1   7
ATOM      7  C   UNL     1       1.920   5.226  20.644  0.00  0.00    +0.000 C 
BRANCH   7  11
ATOM      8  C   UNL     1       1.471   9.332  19.383  0.00  0.00    +0.000 A 
ATOM      9  C   UNL     1       0.986   8.923  20.628  0.00  0.00    +0.000 A 
ATOM     10  C   UNL     1       1.143   7.597  21.043  0.00  0.00    +0.000 A 
ATOM     11  C   UNL     1       1.768   6.661  20.210  0.00  0.00    +0.000 A 
ATOM     12  C   UNL     1       2.289   7.083  18.982  0.00  0.00    +0.000 A 
ATOM     13  C   UNL     1       2.133   8.409  18.568  0.00  0.00    +0.000 A 
BRANCH   8  15
ATOM     14  C   UNL     1      -0.568  11.188  19.213  0.00  0.00    +0.000 C 
ATOM     15  S   UNL     1       1.168  10.972  18.752  0.00  0.00    +0.000 S 
ENDBRANCH   8  15
ENDBRANCH   7  11
ENDBRANCH   1   7
BRANCH   4  16
ATOM     16  O   UNL     1       4.665   3.362  17.158  0.00  0.00    +0.000 OA
BRANCH  16  17
ATOM     17  C   UNL     1       5.451   4.486  17.235  0.00  0.00    +0.000 A 
ATOM     18  C   UNL     1       6.672   4.590  17.915  0.00  0.00    +0.000 A 
ATOM     19  C   UNL     1       7.385   5.790  17.948  0.00  0.00    +0.000 A 
ATOM     20  C   UNL     1       6.882   6.895  17.284  0.00  0.00    +0.000 A 
ATOM     21  F   UNL     1       7.554   8.043  17.327  0.00  0.00    +0.000 F 
ATOM     22  C   UNL     1       5.689   6.810  16.578  0.00  0.00    +0.000 A 
ATOM     23  C   UNL     1       4.977   5.605  16.543  0.00  0.00    +0.000 A 
ENDBRANCH  16  17
ENDBRANCH   4  16
TORSDOF 5
ENDMDL
MODEL 4
REMARK VINA RESULT:      -7.1      2.086      2.901
REMARK  Name = 
REMARK  7 active torsions:
REMARK  status: ('A' for Active; 'I' for Inactive)
REMARK    1  A    between atoms: C_1  and  S_2
REMARK    2  A    between atoms: S_2  and  C_3
REMARK    3  A    between atoms: C_6  and  C_7
REMARK    4  A    between atoms: C_7  and  N_8
REMARK    5  A    between atoms: C_11  and  C_12
REMARK    6  A    between atoms: C_11  and  O_13
REMARK    7  A    between atoms: O_13  and  C_14
REMARK                            x       y       z     vdW  Elec       q    Type
REMARK                         _______ _______ _______ _____ _____    ______ ____
ROOT
ATOM      1  N   UNL     1       3.075   4.388  20.261  0.00  0.00    +0.000 NA
ATOM      2  C   UNL     1       3.225   2.990  20.649  0.00  0.00    +0.000 C 
ATOM      3  C   UNL     1       4.110   2.416  19.539  0.00  0.00    +0.000 C 
ATOM      4  C   UNL     1       3.579   3.076  18.248  0.00  0.00    +0.000 C 
ATOM      5  C   UNL     1       2.498   2.157  17.649  0.00  0.00    +0.000 C 
ATOM      6  C   UNL     1       3.047   4.414  18.798  0.00  0.00    +0.000 C 
ENDROOT
BRANCH   1   7
ATOM      7  C   UNL     1       1.903   5.083  20.798  0.00  0.00    +0.000 C 
BRANCH   7  11
ATOM      8  C   UNL     1       1.490   9.159  19.434  0.00  0.00    +0.000 A 
ATOM      9  C   UNL     1       0.993   8.784  20.685  0.00  0.00    +0.000 A 
ATOM     10  C   UNL     1       1.137   7.467  21.133  0.00  0.00    +0.000 A 
ATOM     11  C   UNL     1       1.764   6.508  20.328  0.00  0.00    +0.000 A 
ATOM     12  C   UNL     1       2.297   6.896  19.095  0.00  0.00    +0.000 A 
ATOM     13  C   UNL     1       2.154   8.213  18.648  0.00  0.00    +0.000 A 
BRANCH   8  15
ATOM     14  C   UNL     1      -0.492  11.079  19.319  0.00  0.00    +0.000 C 
ATOM     15  S   UNL     1       1.203  10.785  18.761  0.00  0.00    +0.000 S 
ENDBRANCH   8  15
ENDBRANCH   7  11
ENDBRANCH   1   7
BRANCH   4  16
ATOM     16  O   UNL     1       4.661   3.251  17.306  0.00  0.00    +0.000 OA
BRANCH  16  17
ATOM     17  C   UNL     1       5.310   4.461  17.268  0.00  0.00    +0.000 A 
ATOM     18  C   UNL     1       4.871   5.607  16.592  0.00  0.00    +0.000 A 
ATOM     19  C   UNL     1       5.619   6.786  16.600  0.00  0.00    +0.000 A 
ATOM     20  C   UNL     1       6.811   6.827  17.301  0.00  0.00    +0.000 A 
ATOM     21  F   UNL     1       7.532   7.946  17.298  0.00  0.00    +0.000 F 
ATOM     22  C   UNL     1       7.253   5.714  18.004  0.00  0.00    +0.000 A 
ATOM     23  C   UNL     1       6.500   4.533  17.998  0.00  0.00    +0.000 A 
ENDBRANCH  16  17
ENDBRANCH   4  16
TORSDOF 5
ENDMDL
MODEL 5
REMARK VINA RESULT:      -7.1      2.649      4.340
REMARK  Name = 
REMARK  7 active torsions:
REMARK  status: ('A' for Active; 'I' for Inactive)
REMARK    1  A    between atoms: C_1  and  S_2
REMARK    2  A    between atoms: S_2  and  C_3
REMARK    3  A    between atoms: C_6  and  C_7
REMARK    4  A    between atoms: C_7  and  N_8
REMARK    5  A    between atoms: C_11  and  C_12
REMARK    6  A    between atoms: C_11  and  O_13
REMARK    7  A    between atoms: O_13  and  C_14
REMARK                            x       y       z     vdW  Elec       q    Type
REMARK                         _______ _______ _______ _____ _____    ______ ____
ROOT
ATOM      1  N   UNL     1       4.656   6.619  17.132  0.00  0.00    +0.000 NA
ATOM      2  C   UNL     1       5.693   7.084  18.046  0.00  0.00    +0.000 C 
ATOM      3  C   UNL     1       6.969   6.973  17.207  0.00  0.00    +0.000 C 
ATOM      4  C   UNL     1       6.799   5.650  16.429  0.00  0.00    +0.000 C 
ATOM      5  C   UNL     1       7.432   4.519  17.261  0.00  0.00    +0.000 C 
ATOM      6  C   UNL     1       5.265   5.573  16.309  0.00  0.00    +0.000 C 
ENDROOT
BRANCH   1   7
ATOM      7  C   UNL     1       3.428   6.117  17.753  0.00  0.00    +0.000 C 
BRANCH   7  11
ATOM      8  C   UNL     1       1.175   9.139  19.861  0.00  0.00    +0.000 A 
ATOM      9  C   UNL     1       1.484   9.309  18.509  0.00  0.00    +0.000 A 
ATOM     10  C   UNL     1       2.202   8.326  17.822  0.00  0.00    +0.000 A 
ATOM     11  C   UNL     1       2.635   7.170  18.484  0.00  0.00    +0.000 A 
ATOM     12  C   UNL     1       2.288   6.983  19.826  0.00  0.00    +0.000 A 
ATOM     13  C   UNL     1       1.569   7.966  20.512  0.00  0.00    +0.000 A 
BRANCH   8  15
ATOM     14  C   UNL     1      -0.209   9.471  22.227  0.00  0.00    +0.000 C 
ATOM     15  S   UNL     1       0.388  10.426  20.812  0.00  0.00    +0.000 S 
ENDBRANCH   8  15
ENDBRANCH   7  11
ENDBRANCH   1   7
BRANCH   4  16
ATOM     16  O   UNL     1       7.454   5.749  15.145  0.00  0.00    +0.000 OA
BRANCH  16  17
ATOM     17  C   UNL     1       7.019   4.944  14.121  0.00  0.00    +0.000 A 
ATOM     18  C   UNL     1       7.628   4.810  12.866  0.00  0.00    +0.000 A 
ATOM     19  C   UNL     1       7.090   3.976  11.883  0.00  0.00    +0.000 A 
ATOM     20  C   UNL     1       5.940   3.258  12.160  0.00  0.00    +0.000 A 
ATOM     21  F   UNL     1       5.418   2.474  11.219  0.00  0.00    +0.000 F 
ATOM     22  C   UNL     1       5.334   3.351  13.406  0.00  0.00    +0.000 A 
ATOM     23  C   UNL     1       5.876   4.185  14.392  0.00  0.00    +0.000 A 
ENDBRANCH  16  17
ENDBRANCH   4  16
TORSDOF 5
ENDMDL
MODEL 6
REMARK VINA RESULT:      -7.0      1.518      1.715
REMARK  Name = 
REMARK  7 active torsions:
REMARK  status: ('A' for Active; 'I' for Inactive)
REMARK    1  A    between atoms: C_1  and  S_2
REMARK    2  A    between atoms: S_2  and  C_3
REMARK    3  A    between atoms: C_6  and  C_7
REMARK    4  A    between atoms: C_7  and  N_8
REMARK    5  A    between atoms: C_11  and  C_12
REMARK    6  A    between atoms: C_11  and  O_13
REMARK    7  A    between atoms: O_13  and  C_14
REMARK                            x       y       z     vdW  Elec       q    Type
REMARK                         _______ _______ _______ _____ _____    ______ ____
ROOT
ATOM      1  N   UNL     1       2.512   8.126  18.611  0.00  0.00    +0.000 NA
ATOM      2  C   UNL     1       1.735   7.512  19.682  0.00  0.00    +0.000 C 
ATOM      3  C   UNL     1       2.505   6.221  19.971  0.00  0.00    +0.000 C 
ATOM      4  C   UNL     1       2.924   5.707  18.577  0.00  0.00    +0.000 C 
ATOM      5  C   UNL     1       1.826   4.755  18.067  0.00  0.00    +0.000 C 
ATOM      6  C   UNL     1       3.036   7.030  17.796  0.00  0.00    +0.000 C 
ENDROOT
BRANCH   1   7
ATOM      7  C   UNL     1       1.796   9.084  17.764  0.00  0.00    +0.000 C 
BRANCH   7  11
ATOM      8  C   UNL     1      -0.923  11.642  19.934  0.00  0.00    +0.000 A 
ATOM      9  C   UNL     1       0.448  11.695  20.194  0.00  0.00    +0.000 A 
ATOM     10  C   UNL     1       1.331  10.877  19.483  0.00  0.00    +0.000 A 
ATOM     11  C   UNL     1       0.850   9.983  18.518  0.00  0.00    +0.000 A 
ATOM     12  C   UNL     1      -0.518   9.962  18.231  0.00  0.00    +0.000 A 
ATOM     13  C   UNL     1      -1.400  10.781  18.941  0.00  0.00    +0.000 A 
BRANCH   8  15
ATOM     14  C   UNL     1      -1.774  11.868  22.552  0.00  0.00    +0.000 C 
ATOM     15  S   UNL     1      -2.099  12.559  20.913  0.00  0.00    +0.000 S 
ENDBRANCH   8  15
ENDBRANCH   7  11
ENDBRANCH   1   7
BRANCH   4  16
ATOM     16  O   UNL     1       4.184   5.006  18.671  0.00  0.00    +0.000 OA
BRANCH  16  17
ATOM     17  C   UNL     1       4.992   4.954  17.562  0.00  0.00    +0.000 A 
ATOM     18  C   UNL     1       4.762   4.182  16.414  0.00  0.00    +0.000 A 
ATOM     19  C   UNL     1       5.661   4.186  15.345  0.00  0.00    +0.000 A 
ATOM     20  C   UNL     1       6.793   4.979  15.415  0.00  0.00    +0.000 A 
ATOM     21  F   UNL     1       7.657   4.972  14.402  0.00  0.00    +0.000 F 
ATOM     22  C   UNL     1       7.028   5.775  16.528  0.00  0.00    +0.000 A 
ATOM     23  C   UNL     1       6.125   5.773  17.598  0.00  0.00    +0.000 A 
ENDBRANCH  16  17
ENDBRANCH   4  16
TORSDOF 5
ENDMDL
MODEL 7
REMARK VINA RESULT:      -7.0      4.635      5.987
REMARK  Name = 
REMARK  7 active torsions:
REMARK  status: ('A' for Active; 'I' for Inactive)
REMARK    1  A    between atoms: C_1  and  S_2
REMARK    2  A    between atoms: S_2  and  C_3
REMARK    3  A    between atoms: C_6  and  C_7
REMARK    4  A    between atoms: C_7  and  N_8
REMARK    5  A    between atoms: C_11  and  C_12
REMARK    6  A    between atoms: C_11  and  O_13
REMARK    7  A    between atoms: O_13  and  C_14
REMARK                            x       y       z     vdW  Elec       q    Type
REMARK                         _______ _______ _______ _____ _____    ______ ____
ROOT
ATOM      1  N   UNL     1       5.177   7.423  17.021  0.00  0.00    +0.000 NA
ATOM      2  C   UNL     1       6.310   7.534  17.934  0.00  0.00    +0.000 C 
ATOM      3  C   UNL     1       7.464   6.931  17.129  0.00  0.00    +0.000 C 
ATOM      4  C   UNL     1       6.835   5.718  16.411  0.00  0.00    +0.000 C 
ATOM      5  C   UNL     1       7.019   4.480  17.308  0.00  0.00    +0.000 C 
ATOM      6  C   UNL     1       5.375   6.187  16.261  0.00  0.00    +0.000 C 
ENDROOT
BRANCH   1   7
ATOM      7  C   UNL     1       3.849   7.425  17.639  0.00  0.00    +0.000 C 
BRANCH   7  11
ATOM      8  C   UNL     1       2.603   3.591  19.185  0.00  0.00    +0.000 A 
ATOM      9  C   UNL     1       1.915   4.175  18.119  0.00  0.00    +0.000 A 
ATOM     10  C   UNL     1       2.325   5.411  17.609  0.00  0.00    +0.000 A 
ATOM     11  C   UNL     1       3.417   6.084  18.172  0.00  0.00    +0.000 A 
ATOM     12  C   UNL     1       4.129   5.477  19.210  0.00  0.00    +0.000 A 
ATOM     13  C   UNL     1       3.719   4.241  19.719  0.00  0.00    +0.000 A 
BRANCH   8  15
ATOM     14  C   UNL     1       1.533   2.725  21.579  0.00  0.00    +0.000 C 
ATOM     15  S   UNL     1       2.032   2.090  19.960  0.00  0.00    +0.000 S 
ENDBRANCH   8  15
ENDBRANCH   7  11
ENDBRANCH   1   7
BRANCH   4  16
ATOM     16  O   UNL     1       7.486   5.510  15.138  0.00  0.00    +0.000 OA
BRANCH  16  17
ATOM     17  C   UNL     1       6.837   4.769  14.181  0.00  0.00    +0.000 A 
ATOM     18  C   UNL     1       5.571   4.183  14.314  0.00  0.00    +0.000 A 
ATOM     19  C   UNL     1       5.007   3.429  13.282  0.00  0.00    +0.000 A 
ATOM     20  C   UNL     1       5.707   3.269  12.100  0.00  0.00    +0.000 A 
ATOM     21  F   UNL     1       5.177   2.538  11.122  0.00  0.00    +0.000 F 
ATOM     22  C   UNL     1       6.951   3.864  11.932  0.00  0.00    +0.000 A 
ATOM     23  C   UNL     1       7.514   4.623  12.965  0.00  0.00    +0.000 A 
ENDBRANCH  16  17
ENDBRANCH   4  16
TORSDOF 5
ENDMDL
MODEL 8
REMARK VINA RESULT:      -7.0      2.472      3.472
REMARK  Name = 
REMARK  7 active torsions:
REMARK  status: ('A' for Active; 'I' for Inactive)
REMARK    1  A    between atoms: C_1  and  S_2
REMARK    2  A    between atoms: S_2  and  C_3
REMARK    3  A    between atoms: C_6  and  C_7
REMARK    4  A    between atoms: C_7  and  N_8
REMARK    5  A    between atoms: C_11  and  C_12
REMARK    6  A    between atoms: C_11  and  O_13
REMARK    7  A    between atoms: O_13  and  C_14
REMARK                            x       y       z     vdW  Elec       q    Type
REMARK                         _______ _______ _______ _____ _____    ______ ____
ROOT
ATOM      1  N   UNL     1       3.127   4.141  20.491  0.00  0.00    +0.000 NA
ATOM      2  C   UNL     1       3.040   2.724  20.155  0.00  0.00    +0.000 C 
ATOM      3  C   UNL     1       4.412   2.428  19.544  0.00  0.00    +0.000 C 
ATOM      4  C   UNL     1       4.724   3.673  18.686  0.00  0.00    +0.000 C 
ATOM      5  C   UNL     1       4.205   3.415  17.260  0.00  0.00    +0.000 C 
ATOM      6  C   UNL     1       3.957   4.763  19.458  0.00  0.00    +0.000 C 
ENDROOT
BRANCH   1   7
ATOM      7  C   UNL     1       1.853   4.854  20.610  0.00  0.00    +0.000 C 
BRANCH   7  11
ATOM      8  C   UNL     1       1.862   8.803  18.862  0.00  0.00    +0.000 A 
ATOM      9  C   UNL     1       1.582   8.637  20.221  0.00  0.00    +0.000 A 
ATOM     10  C   UNL     1       1.592   7.361  20.791  0.00  0.00    +0.000 A 
ATOM     11  C   UNL     1       1.863   6.234  20.005  0.00  0.00    +0.000 A 
ATOM     12  C   UNL     1       2.183   6.407  18.655  0.00  0.00    +0.000 A 
ATOM     13  C   UNL     1       2.175   7.684  18.086  0.00  0.00    +0.000 A 
BRANCH   8  15
ATOM     14  C   UNL     1       0.726  11.285  19.280  0.00  0.00    +0.000 C 
ATOM     15  S   UNL     1       1.720  10.391  18.063  0.00  0.00    +0.000 S 
ENDBRANCH   8  15
ENDBRANCH   7  11
ENDBRANCH   1   7
BRANCH   4  16
ATOM     16  O   UNL     1       6.150   3.906  18.662  0.00  0.00    +0.000 OA
BRANCH  16  17
ATOM     17  C   UNL     1       6.605   5.158  18.329  0.00  0.00    +0.000 A 
ATOM     18  C   UNL     1       6.088   5.978  17.316  0.00  0.00    +0.000 A 
ATOM     19  C   UNL     1       6.640   7.232  17.044  0.00  0.00    +0.000 A 
ATOM     20  C   UNL     1       7.710   7.679  17.799  0.00  0.00    +0.000 A 
ATOM     21  F   UNL     1       8.245   8.867  17.530  0.00  0.00    +0.000 F 
ATOM     22  C   UNL     1       8.221   6.898  18.827  0.00  0.00    +0.000 A 
ATOM     23  C   UNL     1       7.666   5.643  19.102  0.00  0.00    +0.000 A 
ENDBRANCH  16  17
ENDBRANCH   4  16
TORSDOF 5
ENDMDL
MODEL 9
REMARK VINA RESULT:      -7.0      2.121      3.017
REMARK  Name = 
REMARK  7 active torsions:
REMARK  status: ('A' for Active; 'I' for Inactive)
REMARK    1  A    between atoms: C_1  and  S_2
REMARK    2  A    between atoms: S_2  and  C_3
REMARK    3  A    between atoms: C_6  and  C_7
REMARK    4  A    between atoms: C_7  and  N_8
REMARK    5  A    between atoms: C_11  and  C_12
REMARK    6  A    between atoms: C_11  and  O_13
REMARK    7  A    between atoms: O_13  and  C_14
REMARK                            x       y       z     vdW  Elec       q    Type
REMARK                         _______ _______ _______ _____ _____    ______ ____
ROOT
ATOM      1  N   UNL     1       3.181   5.030  20.013  0.00  0.00    +0.000 NA
ATOM      2  C   UNL     1       3.361   3.611  20.297  0.00  0.00    +0.000 C 
ATOM      3  C   UNL     1       4.296   3.149  19.176  0.00  0.00    +0.000 C 
ATOM      4  C   UNL     1       3.785   3.891  17.923  0.00  0.00    +0.000 C 
ATOM      5  C   UNL     1       2.751   2.991  17.221  0.00  0.00    +0.000 C 
ATOM      6  C   UNL     1       3.197   5.167  18.555  0.00  0.00    +0.000 C 
ENDROOT
BRANCH   1   7
ATOM      7  C   UNL     1       1.972   5.648  20.563  0.00  0.00    +0.000 C 
BRANCH   7  11
ATOM      8  C   UNL     1       1.364   9.736  19.312  0.00  0.00    +0.000 A 
ATOM      9  C   UNL     1       1.989   8.826  18.456  0.00  0.00    +0.000 A 
ATOM     10  C   UNL     1       2.175   7.499  18.855  0.00  0.00    +0.000 A 
ATOM     11  C   UNL     1       1.755   7.072  20.120  0.00  0.00    +0.000 A 
ATOM     12  C   UNL     1       1.092   7.975  20.958  0.00  0.00    +0.000 A 
ATOM     13  C   UNL     1       0.905   9.301  20.559  0.00  0.00    +0.000 A 
BRANCH   8  15
ATOM     14  C   UNL     1       1.252  12.196  20.562  0.00  0.00    +0.000 C 
ATOM     15  S   UNL     1       1.235  11.468  18.906  0.00  0.00    +0.000 S 
ENDBRANCH   8  15
ENDBRANCH   7  11
ENDBRANCH   1   7
BRANCH   4  16
ATOM     16  O   UNL     1       4.889   4.168  17.033  0.00  0.00    +0.000 OA
BRANCH  16  17
ATOM     17  C   UNL     1       5.857   5.052  17.443  0.00  0.00    +0.000 A 
ATOM     18  C   UNL     1       6.862   4.791  18.385  0.00  0.00    +0.000 A 
ATOM     19  C   UNL     1       7.789   5.770  18.747  0.00  0.00    +0.000 A 
ATOM     20  C   UNL     1       7.724   7.017  18.153  0.00  0.00    +0.000 A 
ATOM     21  F   UNL     1       8.599   7.956  18.509  0.00  0.00    +0.000 F 
ATOM     22  C   UNL     1       6.757   7.292  17.195  0.00  0.00    +0.000 A 
ATOM     23  C   UNL     1       5.829   6.309  16.830  0.00  0.00    +0.000 A 
ENDBRANCH  16  17
ENDBRANCH   4  16
TORSDOF 5
ENDMDL
