MODEL 1
REMARK VINA RESULT:      -7.3      0.000      0.000
REMARK  Name = 
REMARK  5 active torsions:
REMARK  status: ('A' for Active; 'I' for Inactive)
REMARK    1  A    between atoms: C_1  and  C_2
REMARK    2  A    between atoms: C_2  and  C_3
REMARK    3  A    between atoms: C_16  and  O_17
REMARK    4  A    between atoms: O_17  and  C_18
REMARK    5  A    between atoms: C_18  and  C_20
REMARK                            x       y       z     vdW  Elec       q    Type
REMARK                         _______ _______ _______ _____ _____    ______ ____
ROOT
ATOM      1  C   UNL     1      -1.465  13.597  23.643  0.00  0.00    +0.000 C 
ATOM      2  C   UNL     1      -2.512  12.912  22.749  0.00  0.00    +0.000 C 
ATOM      3  C   UNL     1      -3.775  12.645  23.589  0.00  0.00    +0.000 C 
ATOM      4  O   UNL     1      -2.920  13.936  21.793  0.00  0.00    +0.000 OA
ATOM      5  C   UNL     1      -3.489  13.369  20.684  0.00  0.00    +0.000 A 
ATOM      6  C   UNL     1      -4.835  13.617  20.438  0.00  0.00    +0.000 A 
ATOM      7  C   UNL     1      -5.457  12.934  19.402  0.00  0.00    +0.000 A 
ATOM      8  C   UNL     1      -4.701  12.129  18.544  0.00  0.00    +0.000 A 
ATOM      9  C   UNL     1      -5.324  11.473  17.410  0.00  0.00    +0.000 A 
ATOM     10  C   UNL     1      -4.556  10.872  16.499  0.00  0.00    +0.000 A 
ATOM     11  C   UNL     1      -3.090  10.809  16.635  0.00  0.00    +0.000 A 
ATOM     12  O   UNL     1      -2.399  10.394  15.715  0.00  0.00    +0.000 OA
ATOM     13  O   UNL     1      -2.561  11.191  17.866  0.00  0.00    +0.000 OA
ATOM     14  C   UNL     1      -3.330  11.931  18.787  0.00  0.00    +0.000 A 
ATOM     15  C   UNL     1      -2.730  12.474  19.927  0.00  0.00    +0.000 A 
ATOM     16  C   UNL     1      -1.441  12.034  20.607  0.00  0.00    +0.000 C 
ATOM     17  C   UNL     1      -1.968  11.638  22.017  0.00  0.00    +0.000 C 
ATOM     18 BR   UNL     1      -0.688  10.596  23.056  0.00  0.00    +0.000 Br
ENDROOT
BRANCH  16  19
ATOM     19  O   UNL     1      -0.823  10.927  19.948  0.00  0.00    +0.000 OA
BRANCH  19  20
ATOM     20  C   UNL     1       0.348  11.197  19.301  0.00  0.00    +0.000 C 
ATOM     21  O   UNL     1       0.687  12.260  18.820  0.00  0.00    +0.000 OA
BRANCH  20  22
ATOM     22  C   UNL     1       1.123   9.938  19.164  0.00  0.00    +0.000 A 
ATOM     23  C   UNL     1       1.169   8.992  20.196  0.00  0.00    +0.000 A 
ATOM     24  C   UNL     1       1.809   7.768  19.992  0.00  0.00    +0.000 A 
ATOM     25  C   UNL     1       2.414   7.493  18.766  0.00  0.00    +0.000 A 
ATOM     26  C   UNL     1       2.420   8.455  17.756  0.00  0.00    +0.000 A 
ATOM     27  C   UNL     1       1.786   9.682  17.955  0.00  0.00    +0.000 A 
ENDBRANCH  20  22
ENDBRANCH  19  20
ENDBRANCH  16  19
TORSDOF 3
ENDMDL
MODEL 2
REMARK VINA RESULT:      -6.8      1.816      2.461
REMARK  Name = 
REMARK  5 active torsions:
REMARK  status: ('A' for Active; 'I' for Inactive)
REMARK    1  A    between atoms: C_1  and  C_2
REMARK    2  A    between atoms: C_2  and  C_3
REMARK    3  A    between atoms: C_16  and  O_17
REMARK    4  A    between atoms: O_17  and  C_18
REMARK    5  A    between atoms: C_18  and  C_20
REMARK                            x       y       z     vdW  Elec       q    Type
REMARK                         _______ _______ _______ _____ _____    ______ ____
ROOT
ATOM      1  C   UNL     1      -2.666  14.107  24.507  0.00  0.00    +0.000 C 
ATOM      2  C   UNL     1      -3.683  13.220  23.770  0.00  0.00    +0.000 C 
ATOM      3  C   UNL     1      -4.515  12.454  24.815  0.00  0.00    +0.000 C 
ATOM      4  O   UNL     1      -4.628  14.152  23.163  0.00  0.00    +0.000 OA
ATOM      5  C   UNL     1      -5.304  13.559  22.132  0.00  0.00    +0.000 A 
ATOM      6  C   UNL     1      -6.675  13.372  22.268  0.00  0.00    +0.000 A 
ATOM      7  C   UNL     1      -7.346  12.645  21.294  0.00  0.00    +0.000 A 
ATOM      8  C   UNL     1      -6.673  12.240  20.138  0.00  0.00    +0.000 A 
ATOM      9  C   UNL     1      -7.380  11.549  19.077  0.00  0.00    +0.000 A 
ATOM     10  C   UNL     1      -6.770  11.345  17.908  0.00  0.00    +0.000 A 
ATOM     11  C   UNL     1      -5.373  11.758  17.676  0.00  0.00    +0.000 A 
ATOM     12  O   UNL     1      -4.889  11.704  16.553  0.00  0.00    +0.000 OA
ATOM     13  O   UNL     1      -4.645  12.150  18.795  0.00  0.00    +0.000 OA
ATOM     14  C   UNL     1      -5.294  12.482  20.003  0.00  0.00    +0.000 A 
ATOM     15  C   UNL     1      -4.573  13.059  21.052  0.00  0.00    +0.000 A 
ATOM     16  C   UNL     1      -3.072  12.998  21.304  0.00  0.00    +0.000 C 
ATOM     17  C   UNL     1      -3.031  12.291  22.689  0.00  0.00    +0.000 C 
ATOM     18 BR   UNL     1      -1.262  11.622  23.163  0.00  0.00    +0.000 Br
ENDROOT
BRANCH  16  19
ATOM     19  O   UNL     1      -2.380  12.242  20.307  0.00  0.00    +0.000 OA
BRANCH  19  20
ATOM     20  C   UNL     1      -1.319  12.866  19.716  0.00  0.00    +0.000 C 
ATOM     21  O   UNL     1      -1.124  14.063  19.646  0.00  0.00    +0.000 OA
BRANCH  20  22
ATOM     22  C   UNL     1      -0.471  11.845  19.052  0.00  0.00    +0.000 A 
ATOM     23  C   UNL     1       0.928  11.924  19.081  0.00  0.00    +0.000 A 
ATOM     24  C   UNL     1       1.696  10.888  18.549  0.00  0.00    +0.000 A 
ATOM     25  C   UNL     1       1.073   9.780  17.977  0.00  0.00    +0.000 A 
ATOM     26  C   UNL     1      -0.319   9.724  17.894  0.00  0.00    +0.000 A 
ATOM     27  C   UNL     1      -1.093  10.758  18.420  0.00  0.00    +0.000 A 
ENDBRANCH  20  22
ENDBRANCH  19  20
ENDBRANCH  16  19
TORSDOF 3
ENDMDL
MODEL 3
REMARK VINA RESULT:      -6.6      4.632      9.693
REMARK  Name = 
REMARK  5 active torsions:
REMARK  status: ('A' for Active; 'I' for Inactive)
REMARK    1  A    between atoms: C_1  and  C_2
REMARK    2  A    between atoms: C_2  and  C_3
REMARK    3  A    between atoms: C_16  and  O_17
REMARK    4  A    between atoms: O_17  and  C_18
REMARK    5  A    between atoms: C_18  and  C_20
REMARK                            x       y       z     vdW  Elec       q    Type
REMARK                         _______ _______ _______ _____ _____    ______ ____
ROOT
ATOM      1  C   UNL     1       0.374   3.017  18.401  0.00  0.00    +0.000 C 
ATOM      2  C   UNL     1       1.905   3.149  18.446  0.00  0.00    +0.000 C 
ATOM      3  C   UNL     1       2.497   1.818  18.947  0.00  0.00    +0.000 C 
ATOM      4  O   UNL     1       2.319   3.229  17.049  0.00  0.00    +0.000 OA
ATOM      5  C   UNL     1       3.563   3.788  16.940  0.00  0.00    +0.000 A 
ATOM      6  C   UNL     1       4.598   2.995  16.458  0.00  0.00    +0.000 A 
ATOM      7  C   UNL     1       5.889   3.504  16.478  0.00  0.00    +0.000 A 
ATOM      8  C   UNL     1       6.109   4.836  16.842  0.00  0.00    +0.000 A 
ATOM      9  C   UNL     1       7.442   5.404  16.792  0.00  0.00    +0.000 A 
ATOM     10  C   UNL     1       7.600   6.719  16.955  0.00  0.00    +0.000 A 
ATOM     11  C   UNL     1       6.461   7.611  17.237  0.00  0.00    +0.000 A 
ATOM     12  O   UNL     1       6.608   8.826  17.226  0.00  0.00    +0.000 OA
ATOM     13  O   UNL     1       5.254   6.998  17.561  0.00  0.00    +0.000 OA
ATOM     14  C   UNL     1       5.037   5.633  17.283  0.00  0.00    +0.000 A 
ATOM     15  C   UNL     1       3.762   5.080  17.431  0.00  0.00    +0.000 A 
ATOM     16  C   UNL     1       2.610   5.595  18.285  0.00  0.00    +0.000 C 
ATOM     17  C   UNL     1       2.399   4.396  19.255  0.00  0.00    +0.000 C 
ATOM     18 BR   UNL     1       1.301   4.840  20.804  0.00  0.00    +0.000 Br
ENDROOT
BRANCH  16  19
ATOM     19  O   UNL     1       2.944   6.791  18.992  0.00  0.00    +0.000 OA
BRANCH  19  20
ATOM     20  C   UNL     1       2.382   7.940  18.518  0.00  0.00    +0.000 C 
ATOM     21  O   UNL     1       2.558   8.442  17.426  0.00  0.00    +0.000 OA
BRANCH  20  22
ATOM     22  C   UNL     1       1.588   8.570  19.604  0.00  0.00    +0.000 A 
ATOM     23  C   UNL     1       1.689   8.134  20.931  0.00  0.00    +0.000 A 
ATOM     24  C   UNL     1       1.019   8.822  21.944  0.00  0.00    +0.000 A 
ATOM     25  C   UNL     1       0.238   9.936  21.632  0.00  0.00    +0.000 A 
ATOM     26  C   UNL     1       0.088  10.338  20.305  0.00  0.00    +0.000 A 
ATOM     27  C   UNL     1       0.752   9.651  19.287  0.00  0.00    +0.000 A 
ENDBRANCH  20  22
ENDBRANCH  19  20
ENDBRANCH  16  19
TORSDOF 3
ENDMDL
MODEL 4
REMARK VINA RESULT:      -6.5      4.757      7.686
REMARK  Name = 
REMARK  5 active torsions:
REMARK  status: ('A' for Active; 'I' for Inactive)
REMARK    1  A    between atoms: C_1  and  C_2
REMARK    2  A    between atoms: C_2  and  C_3
REMARK    3  A    between atoms: C_16  and  O_17
REMARK    4  A    between atoms: O_17  and  C_18
REMARK    5  A    between atoms: C_18  and  C_20
REMARK                            x       y       z     vdW  Elec       q    Type
REMARK                         _______ _______ _______ _____ _____    ______ ____
ROOT
ATOM      1  C   UNL     1       3.134   3.184  20.311  0.00  0.00    +0.000 C 
ATOM      2  C   UNL     1       2.129   4.314  20.036  0.00  0.00    +0.000 C 
ATOM      3  C   UNL     1       0.708   3.782  20.302  0.00  0.00    +0.000 C 
ATOM      4  O   UNL     1       2.357   5.289  21.097  0.00  0.00    +0.000 OA
ATOM      5  C   UNL     1       1.873   6.520  20.742  0.00  0.00    +0.000 A 
ATOM      6  C   UNL     1       0.810   7.042  21.470  0.00  0.00    +0.000 A 
ATOM      7  C   UNL     1       0.219   8.218  21.031  0.00  0.00    +0.000 A 
ATOM      8  C   UNL     1       0.781   8.926  19.966  0.00  0.00    +0.000 A 
ATOM      9  C   UNL     1       0.221  10.197  19.548  0.00  0.00    +0.000 A 
ATOM     10  C   UNL     1       0.883  10.945  18.664  0.00  0.00    +0.000 A 
ATOM     11  C   UNL     1       2.149  10.496  18.056  0.00  0.00    +0.000 A 
ATOM     12  O   UNL     1       2.815  11.262  17.372  0.00  0.00    +0.000 OA
ATOM     13  O   UNL     1       2.501   9.164  18.260  0.00  0.00    +0.000 OA
ATOM     14  C   UNL     1       1.887   8.400  19.274  0.00  0.00    +0.000 A 
ATOM     15  C   UNL     1       2.383   7.134  19.596  0.00  0.00    +0.000 A 
ATOM     16  C   UNL     1       3.228   6.209  18.730  0.00  0.00    +0.000 C 
ATOM     17  C   UNL     1       2.296   4.967  18.622  0.00  0.00    +0.000 C 
ATOM     18 BR   UNL     1       2.826   3.723  17.217  0.00  0.00    +0.000 Br
ENDROOT
BRANCH  16  19
ATOM     19  O   UNL     1       3.510   6.768  17.445  0.00  0.00    +0.000 OA
BRANCH  19  20
ATOM     20  C   UNL     1       4.813   7.099  17.212  0.00  0.00    +0.000 C 
ATOM     21  O   UNL     1       5.357   8.152  17.478  0.00  0.00    +0.000 OA
BRANCH  20  22
ATOM     22  C   UNL     1       5.462   5.995  16.460  0.00  0.00    +0.000 A 
ATOM     23  C   UNL     1       5.180   5.766  15.107  0.00  0.00    +0.000 A 
ATOM     24  C   UNL     1       5.893   4.797  14.401  0.00  0.00    +0.000 A 
ATOM     25  C   UNL     1       6.877   4.046  15.045  0.00  0.00    +0.000 A 
ATOM     26  C   UNL     1       7.120   4.230  16.406  0.00  0.00    +0.000 A 
ATOM     27  C   UNL     1       6.408   5.195  17.119  0.00  0.00    +0.000 A 
ENDBRANCH  20  22
ENDBRANCH  19  20
ENDBRANCH  16  19
TORSDOF 3
ENDMDL
MODEL 5
REMARK VINA RESULT:      -6.5      2.416      6.378
REMARK  Name = 
REMARK  5 active torsions:
REMARK  status: ('A' for Active; 'I' for Inactive)
REMARK    1  A    between atoms: C_1  and  C_2
REMARK    2  A    between atoms: C_2  and  C_3
REMARK    3  A    between atoms: C_16  and  O_17
REMARK    4  A    between atoms: O_17  and  C_18
REMARK    5  A    between atoms: C_18  and  C_20
REMARK                            x       y       z     vdW  Elec       q    Type
REMARK                         _______ _______ _______ _____ _____    ______ ____
ROOT
ATOM      1  C   UNL     1      -7.468  12.717  18.622  0.00  0.00    +0.000 C 
ATOM      2  C   UNL     1      -6.282  11.778  18.899  0.00  0.00    +0.000 C 
ATOM      3  C   UNL     1      -6.759  10.323  18.733  0.00  0.00    +0.000 C 
ATOM      4  O   UNL     1      -5.364  11.989  17.785  0.00  0.00    +0.000 OA
ATOM      5  C   UNL     1      -4.099  11.580  18.111  0.00  0.00    +0.000 A 
ATOM      6  C   UNL     1      -3.559  10.502  17.418  0.00  0.00    +0.000 A 
ATOM      7  C   UNL     1      -2.340   9.988  17.836  0.00  0.00    +0.000 A 
ATOM      8  C   UNL     1      -1.614  10.640  18.837  0.00  0.00    +0.000 A 
ATOM      9  C   UNL     1      -0.303  10.160  19.228  0.00  0.00    +0.000 A 
ATOM     10  C   UNL     1       0.451  10.902  20.041  0.00  0.00    +0.000 A 
ATOM     11  C   UNL     1      -0.031  12.179  20.600  0.00  0.00    +0.000 A 
ATOM     12  O   UNL     1       0.732  12.914  21.212  0.00  0.00    +0.000 OA
ATOM     13  O   UNL     1      -1.385  12.460  20.436  0.00  0.00    +0.000 OA
ATOM     14  C   UNL     1      -2.161  11.758  19.492  0.00  0.00    +0.000 A 
ATOM     15  C   UNL     1      -3.462  12.179  19.200  0.00  0.00    +0.000 A 
ATOM     16  C   UNL     1      -4.387  13.030  20.060  0.00  0.00    +0.000 C 
ATOM     17  C   UNL     1      -5.579  12.052  20.272  0.00  0.00    +0.000 C 
ATOM     18 BR   UNL     1      -6.786  12.605  21.700  0.00  0.00    +0.000 Br
ENDROOT
BRANCH  16  19
ATOM     19  O   UNL     1      -3.789  13.406  21.302  0.00  0.00    +0.000 OA
BRANCH  19  20
ATOM     20  C   UNL     1      -3.736  14.746  21.555  0.00  0.00    +0.000 C 
ATOM     21  O   UNL     1      -3.990  15.646  20.779  0.00  0.00    +0.000 OA
BRANCH  20  22
ATOM     22  C   UNL     1      -3.196  14.956  22.923  0.00  0.00    +0.000 A 
ATOM     23  C   UNL     1      -1.918  14.508  23.281  0.00  0.00    +0.000 A 
ATOM     24  C   UNL     1      -1.395  14.823  24.536  0.00  0.00    +0.000 A 
ATOM     25  C   UNL     1      -2.151  15.572  25.439  0.00  0.00    +0.000 A 
ATOM     26  C   UNL     1      -3.446  15.970  25.107  0.00  0.00    +0.000 A 
ATOM     27  C   UNL     1      -3.976  15.655  23.856  0.00  0.00    +0.000 A 
ENDBRANCH  20  22
ENDBRANCH  19  20
ENDBRANCH  16  19
TORSDOF 3
ENDMDL
MODEL 6
REMARK VINA RESULT:      -6.5      5.023      8.033
REMARK  Name = 
REMARK  5 active torsions:
REMARK  status: ('A' for Active; 'I' for Inactive)
REMARK    1  A    between atoms: C_1  and  C_2
REMARK    2  A    between atoms: C_2  and  C_3
REMARK    3  A    between atoms: C_16  and  O_17
REMARK    4  A    between atoms: O_17  and  C_18
REMARK    5  A    between atoms: C_18  and  C_20
REMARK                            x       y       z     vdW  Elec       q    Type
REMARK                         _______ _______ _______ _____ _____    ______ ____
ROOT
ATOM      1  C   UNL     1       3.829   2.899  19.593  0.00  0.00    +0.000 C 
ATOM      2  C   UNL     1       2.742   3.980  19.472  0.00  0.00    +0.000 C 
ATOM      3  C   UNL     1       1.377   3.340  19.787  0.00  0.00    +0.000 C 
ATOM      4  O   UNL     1       2.986   4.887  20.588  0.00  0.00    +0.000 OA
ATOM      5  C   UNL     1       2.407   6.107  20.361  0.00  0.00    +0.000 A 
ATOM      6  C   UNL     1       1.368   6.505  21.195  0.00  0.00    +0.000 A 
ATOM      7  C   UNL     1       0.679   7.670  20.887  0.00  0.00    +0.000 A 
ATOM      8  C   UNL     1       1.124   8.489  19.845  0.00  0.00    +0.000 A 
ATOM      9  C   UNL     1       0.462   9.748  19.564  0.00  0.00    +0.000 A 
ATOM     10  C   UNL     1       1.016  10.600  18.699  0.00  0.00    +0.000 A 
ATOM     11  C   UNL     1       2.261  10.278  17.978  0.00  0.00    +0.000 A 
ATOM     12  O   UNL     1       2.832  11.133  17.314  0.00  0.00    +0.000 OA
ATOM     13  O   UNL     1       2.704   8.960  18.055  0.00  0.00    +0.000 OA
ATOM     14  C   UNL     1       2.208   8.086  19.045  0.00  0.00    +0.000 A 
ATOM     15  C   UNL     1       2.799   6.834  19.235  0.00  0.00    +0.000 A 
ATOM     16  C   UNL     1       3.635   6.031  18.247  0.00  0.00    +0.000 C 
ATOM     17  C   UNL     1       2.772   4.744  18.105  0.00  0.00    +0.000 C 
ATOM     18 BR   UNL     1       3.277   3.642  16.576  0.00  0.00    +0.000 Br
ENDROOT
BRANCH  16  19
ATOM     19  O   UNL     1       3.793   6.700  16.994  0.00  0.00    +0.000 OA
BRANCH  19  20
ATOM     20  C   UNL     1       4.979   6.488  16.352  0.00  0.00    +0.000 C 
ATOM     21  O   UNL     1       5.133   6.191  15.184  0.00  0.00    +0.000 OA
BRANCH  20  22
ATOM     22  C   UNL     1       6.082   6.563  17.343  0.00  0.00    +0.000 A 
ATOM     23  C   UNL     1       6.369   5.493  18.201  0.00  0.00    +0.000 A 
ATOM     24  C   UNL     1       7.484   5.551  19.038  0.00  0.00    +0.000 A 
ATOM     25  C   UNL     1       8.306   6.678  19.030  0.00  0.00    +0.000 A 
ATOM     26  C   UNL     1       7.991   7.769  18.220  0.00  0.00    +0.000 A 
ATOM     27  C   UNL     1       6.875   7.720  17.384  0.00  0.00    +0.000 A 
ENDBRANCH  20  22
ENDBRANCH  19  20
ENDBRANCH  16  19
TORSDOF 3
ENDMDL
MODEL 7
REMARK VINA RESULT:      -6.4      2.367      5.736
REMARK  Name = 
REMARK  5 active torsions:
REMARK  status: ('A' for Active; 'I' for Inactive)
REMARK    1  A    between atoms: C_1  and  C_2
REMARK    2  A    between atoms: C_2  and  C_3
REMARK    3  A    between atoms: C_16  and  O_17
REMARK    4  A    between atoms: O_17  and  C_18
REMARK    5  A    between atoms: C_18  and  C_20
REMARK                            x       y       z     vdW  Elec       q    Type
REMARK                         _______ _______ _______ _____ _____    ______ ____
ROOT
ATOM      1  C   UNL     1       2.548  13.438  20.617  0.00  0.00    +0.000 C 
ATOM      2  C   UNL     1       1.509  13.025  19.561  0.00  0.00    +0.000 C 
ATOM      3  C   UNL     1       2.229  12.831  18.214  0.00  0.00    +0.000 C 
ATOM      4  O   UNL     1       1.091  11.682  19.947  0.00  0.00    +0.000 OA
ATOM      5  C   UNL     1      -0.120  11.369  19.391  0.00  0.00    +0.000 A 
ATOM      6  C   UNL     1      -0.166  10.341  18.455  0.00  0.00    +0.000 A 
ATOM      7  C   UNL     1      -1.357  10.111  17.780  0.00  0.00    +0.000 A 
ATOM      8  C   UNL     1      -2.512  10.808  18.146  0.00  0.00    +0.000 A 
ATOM      9  C   UNL     1      -3.780  10.522  17.503  0.00  0.00    +0.000 A 
ATOM     10  C   UNL     1      -4.900  11.054  17.996  0.00  0.00    +0.000 A 
ATOM     11  C   UNL     1      -4.883  11.972  19.150  0.00  0.00    +0.000 A 
ATOM     12  O   UNL     1      -5.929  12.321  19.680  0.00  0.00    +0.000 OA
ATOM     13  O   UNL     1      -3.637  12.445  19.553  0.00  0.00    +0.000 OA
ATOM     14  C   UNL     1      -2.450  11.812  19.129  0.00  0.00    +0.000 A 
ATOM     15  C   UNL     1      -1.223  12.172  19.692  0.00  0.00    +0.000 A 
ATOM     16  C   UNL     1      -0.859  13.473  20.396  0.00  0.00    +0.000 C 
ATOM     17  C   UNL     1       0.284  13.998  19.480  0.00  0.00    +0.000 C 
ATOM     18 BR   UNL     1       0.721  15.873  19.789  0.00  0.00    +0.000 Br
ENDROOT
BRANCH  16  19
ATOM     19  O   UNL     1      -1.953  14.390  20.451  0.00  0.00    +0.000 OA
BRANCH  19  20
ATOM     20  C   UNL     1      -2.188  14.966  21.665  0.00  0.00    +0.000 C 
ATOM     21  O   UNL     1      -1.607  15.920  22.145  0.00  0.00    +0.000 OA
BRANCH  20  22
ATOM     22  C   UNL     1      -3.208  14.166  22.388  0.00  0.00    +0.000 A 
ATOM     23  C   UNL     1      -2.844  13.163  23.296  0.00  0.00    +0.000 A 
ATOM     24  C   UNL     1      -3.824  12.510  24.045  0.00  0.00    +0.000 A 
ATOM     25  C   UNL     1      -5.167  12.846  23.879  0.00  0.00    +0.000 A 
ATOM     26  C   UNL     1      -5.540  13.803  22.934  0.00  0.00    +0.000 A 
ATOM     27  C   UNL     1      -4.565  14.456  22.180  0.00  0.00    +0.000 A 
ENDBRANCH  20  22
ENDBRANCH  19  20
ENDBRANCH  16  19
TORSDOF 3
ENDMDL
MODEL 8
REMARK VINA RESULT:      -6.4      2.951      5.774
REMARK  Name = 
REMARK  5 active torsions:
REMARK  status: ('A' for Active; 'I' for Inactive)
REMARK    1  A    between atoms: C_1  and  C_2
REMARK    2  A    between atoms: C_2  and  C_3
REMARK    3  A    between atoms: C_16  and  O_17
REMARK    4  A    between atoms: O_17  and  C_18
REMARK    5  A    between atoms: C_18  and  C_20
REMARK                            x       y       z     vdW  Elec       q    Type
REMARK                         _______ _______ _______ _____ _____    ______ ____
ROOT
ATOM      1  C   UNL     1      -4.928  14.926  23.724  0.00  0.00    +0.000 C 
ATOM      2  C   UNL     1      -3.902  14.644  22.615  0.00  0.00    +0.000 C 
ATOM      3  C   UNL     1      -2.664  15.528  22.855  0.00  0.00    +0.000 C 
ATOM      4  O   UNL     1      -3.433  13.286  22.869  0.00  0.00    +0.000 OA
ATOM      5  C   UNL     1      -2.877  12.742  21.743  0.00  0.00    +0.000 A 
ATOM      6  C   UNL     1      -1.518  12.449  21.759  0.00  0.00    +0.000 A 
ATOM      7  C   UNL     1      -0.914  12.034  20.580  0.00  0.00    +0.000 A 
ATOM      8  C   UNL     1      -1.694  11.783  19.447  0.00  0.00    +0.000 A 
ATOM      9  C   UNL     1      -1.088  11.273  18.233  0.00  0.00    +0.000 A 
ATOM     10  C   UNL     1      -1.870  10.859  17.234  0.00  0.00    +0.000 A 
ATOM     11  C   UNL     1      -3.340  10.951  17.307  0.00  0.00    +0.000 A 
ATOM     12  O   UNL     1      -4.037  10.423  16.451  0.00  0.00    +0.000 OA
ATOM     13  O   UNL     1      -3.867  11.702  18.353  0.00  0.00    +0.000 OA
ATOM     14  C   UNL     1      -3.076  12.044  19.470  0.00  0.00    +0.000 A 
ATOM     15  C   UNL     1      -3.666  12.625  20.596  0.00  0.00    +0.000 A 
ATOM     16  C   UNL     1      -4.983  13.385  20.678  0.00  0.00    +0.000 C 
ATOM     17  C   UNL     1      -4.493  14.778  21.171  0.00  0.00    +0.000 C 
ATOM     18 BR   UNL     1      -5.834  16.181  20.975  0.00  0.00    +0.000 Br
ENDROOT
BRANCH  16  19
ATOM     19  O   UNL     1      -5.643  13.476  19.414  0.00  0.00    +0.000 OA
BRANCH  19  20
ATOM     20  C   UNL     1      -6.969  13.156  19.410  0.00  0.00    +0.000 C 
ATOM     21  O   UNL     1      -7.901  13.910  19.209  0.00  0.00    +0.000 OA
BRANCH  20  22
ATOM     22  C   UNL     1      -7.122  11.734  19.810  0.00  0.00    +0.000 A 
ATOM     23  C   UNL     1      -7.680  11.378  21.045  0.00  0.00    +0.000 A 
ATOM     24  C   UNL     1      -7.917  10.035  21.341  0.00  0.00    +0.000 A 
ATOM     25  C   UNL     1      -7.587   9.047  20.414  0.00  0.00    +0.000 A 
ATOM     26  C   UNL     1      -6.978   9.393  19.207  0.00  0.00    +0.000 A 
ATOM     27  C   UNL     1      -6.735  10.734  18.907  0.00  0.00    +0.000 A 
ENDBRANCH  20  22
ENDBRANCH  19  20
ENDBRANCH  16  19
TORSDOF 3
ENDMDL
MODEL 9
REMARK VINA RESULT:      -6.3      2.809      6.343
REMARK  Name = 
REMARK  5 active torsions:
REMARK  status: ('A' for Active; 'I' for Inactive)
REMARK    1  A    between atoms: C_1  and  C_2
REMARK    2  A    between atoms: C_2  and  C_3
REMARK    3  A    between atoms: C_16  and  O_17
REMARK    4  A    between atoms: O_17  and  C_18
REMARK    5  A    between atoms: C_18  and  C_20
REMARK                            x       y       z     vdW  Elec       q    Type
REMARK                         _______ _______ _______ _____ _____    ______ ____
ROOT
ATOM      1  C   UNL     1       0.927  12.781  20.786  0.00  0.00    +0.000 C 
ATOM      2  C   UNL     1      -0.225  12.954  19.782  0.00  0.00    +0.000 C 
ATOM      3  C   UNL     1       0.349  13.522  18.470  0.00  0.00    +0.000 C 
ATOM      4  O   UNL     1      -0.636  11.597  19.442  0.00  0.00    +0.000 OA
ATOM      5  C   UNL     1      -1.905  11.585  18.929  0.00  0.00    +0.000 A 
ATOM      6  C   UNL     1      -2.073  11.204  17.603  0.00  0.00    +0.000 A 
ATOM      7  C   UNL     1      -3.332  11.326  17.031  0.00  0.00    +0.000 A 
ATOM      8  C   UNL     1      -4.426  11.689  17.823  0.00  0.00    +0.000 A 
ATOM      9  C   UNL     1      -5.760  11.744  17.257  0.00  0.00    +0.000 A 
ATOM     10  C   UNL     1      -6.809  11.901  18.066  0.00  0.00    +0.000 A 
ATOM     11  C   UNL     1      -6.650  12.073  19.522  0.00  0.00    +0.000 A 
ATOM     12  O   UNL     1      -7.627  12.058  20.258  0.00  0.00    +0.000 OA
ATOM     13  O   UNL     1      -5.358  12.303  19.986  0.00  0.00    +0.000 OA
ATOM     14  C   UNL     1      -4.237  12.026  19.175  0.00  0.00    +0.000 A 
ATOM     15  C   UNL     1      -2.950  12.074  19.717  0.00  0.00    +0.000 A 
ATOM     16  C   UNL     1      -2.482  12.819  20.960  0.00  0.00    +0.000 C 
ATOM     17  C   UNL     1      -1.426  13.785  20.349  0.00  0.00    +0.000 C 
ATOM     18 BR   UNL     1      -0.910  15.229  21.554  0.00  0.00    +0.000 Br
ENDROOT
BRANCH  16  19
ATOM     19  O   UNL     1      -3.541  13.536  21.600  0.00  0.00    +0.000 OA
BRANCH  19  20
ATOM     20  C   UNL     1      -3.780  13.208  22.903  0.00  0.00    +0.000 C 
ATOM     21  O   UNL     1      -3.738  12.099  23.395  0.00  0.00    +0.000 OA
BRANCH  20  22
ATOM     22  C   UNL     1      -4.223  14.425  23.630  0.00  0.00    +0.000 A 
ATOM     23  C   UNL     1      -3.358  15.124  24.481  0.00  0.00    +0.000 A 
ATOM     24  C   UNL     1      -3.769  16.327  25.057  0.00  0.00    +0.000 A 
ATOM     25  C   UNL     1      -5.045  16.826  24.797  0.00  0.00    +0.000 A 
ATOM     26  C   UNL     1      -5.930  16.103  23.997  0.00  0.00    +0.000 A 
ATOM     27  C   UNL     1      -5.527  14.898  23.421  0.00  0.00    +0.000 A 
ENDBRANCH  20  22
ENDBRANCH  19  20
ENDBRANCH  16  19
TORSDOF 3
ENDMDL
