MODEL 1
REMARK VINA RESULT:      -7.8      0.000      0.000
REMARK  Name = 
REMARK  9 active torsions:
REMARK  status: ('A' for Active; 'I' for Inactive)
REMARK    1  A    between atoms: C_1  and  C_2
REMARK    2  A    between atoms: C_2  and  C_3
REMARK    3  A    between atoms: C_4  and  C_5
REMARK    4  A    between atoms: C_5  and  C_7
REMARK    5  A    between atoms: C_9  and  C_10
REMARK    6  A    between atoms: C_12  and  C_13
REMARK    7  A    between atoms: N_15  and  C_16
REMARK    8  A    between atoms: C_16  and  C_17
REMARK    9  A    between atoms: C_17  and  C_18
REMARK                            x       y       z     vdW  Elec       q    Type
REMARK                         _______ _______ _______ _____ _____    ______ ____
ROOT
ATOM      1  C   UNL     1       6.844   5.918  17.893  0.00  0.00    +0.000 A 
ATOM      2  C   UNL     1       5.765   5.352  17.290  0.00  0.00    +0.000 A 
ATOM      3  N   UNL     1       4.941   4.454  18.005  0.00  0.00    +0.000 N 
ATOM      4  C   UNL     1       5.247   4.064  19.304  0.00  0.00    +0.000 A 
ATOM      5  O   UNL     1       4.685   3.152  19.908  0.00  0.00    +0.000 OA
ATOM      6  N   UNL     1       6.266   4.723  19.910  0.00  0.00    +0.000 N 
ATOM      7  C   UNL     1       7.227   5.385  19.229  0.00  0.00    +0.000 A 
ATOM      8  O   UNL     1       8.352   5.513  19.694  0.00  0.00    +0.000 OA
ATOM      9  H   UNL     1       6.546   4.336  20.798  0.00  0.00    +0.000 HD
ENDROOT
BRANCH   1  11
ATOM     10  C   UNL     1       7.302   8.415  17.689  0.00  0.00    +0.000 C 
ATOM     11  C   UNL     1       7.803   6.994  17.407  0.00  0.00    +0.000 C 
ENDBRANCH   1  11
BRANCH   2  12
ATOM     12  C   UNL     1       5.459   5.792  15.863  0.00  0.00    +0.000 C 
ATOM     13  O   UNL     1       4.646   6.694  15.654  0.00  0.00    +0.000 OA
BRANCH  12  14
ATOM     14  C   UNL     1       6.052   5.124  14.657  0.00  0.00    +0.000 A 
ATOM     15  C   UNL     1       7.248   5.679  14.160  0.00  0.00    +0.000 A 
ATOM     16  C   UNL     1       7.806   5.244  12.951  0.00  0.00    +0.000 A 
ATOM     17  C   UNL     1       9.097   5.819  12.447  0.00  0.00    +0.000 C 
ATOM     18  C   UNL     1       7.147   4.250  12.221  0.00  0.00    +0.000 A 
ATOM     19  C   UNL     1       5.967   3.664  12.701  0.00  0.00    +0.000 A 
ATOM     20  C   UNL     1       5.255   2.627  11.876  0.00  0.00    +0.000 C 
ATOM     21  C   UNL     1       5.438   4.084  13.939  0.00  0.00    +0.000 A 
ENDBRANCH  12  14
ENDBRANCH   2  12
BRANCH   3  22
ATOM     22  C   UNL     1       3.768   3.795  17.429  0.00  0.00    +0.000 C 
BRANCH  22  23
ATOM     23  C   UNL     1       2.450   4.574  17.421  0.00  0.00    +0.000 C 
BRANCH  23  24
ATOM     24  C   UNL     1       1.382   3.800  18.218  0.00  0.00    +0.000 C 
ATOM     25  C   UNL     1       1.636   2.322  18.336  0.00  0.00    +0.000 C 
ATOM     26  C   UNL     1       1.617   1.905  19.602  0.00  0.00    +0.000 C 
ATOM     27  C   UNL     1       1.345   3.013  20.559  0.00  0.00    +0.000 C 
ATOM     28  C   UNL     1       1.312   4.267  19.681  0.00  0.00    +0.000 C 
ENDBRANCH  23  24
ENDBRANCH  22  23
ENDBRANCH   3  22
TORSDOF 6
ENDMDL
MODEL 2
REMARK VINA RESULT:      -7.6      3.341      5.253
REMARK  Name = 
REMARK  9 active torsions:
REMARK  status: ('A' for Active; 'I' for Inactive)
REMARK    1  A    between atoms: C_1  and  C_2
REMARK    2  A    between atoms: C_2  and  C_3
REMARK    3  A    between atoms: C_4  and  C_5
REMARK    4  A    between atoms: C_5  and  C_7
REMARK    5  A    between atoms: C_9  and  C_10
REMARK    6  A    between atoms: C_12  and  C_13
REMARK    7  A    between atoms: N_15  and  C_16
REMARK    8  A    between atoms: C_16  and  C_17
REMARK    9  A    between atoms: C_17  and  C_18
REMARK                            x       y       z     vdW  Elec       q    Type
REMARK                         _______ _______ _______ _____ _____    ______ ____
ROOT
ATOM      1  C   UNL     1       2.805   3.509  19.876  0.00  0.00    +0.000 A 
ATOM      2  C   UNL     1       2.672   4.407  18.863  0.00  0.00    +0.000 A 
ATOM      3  N   UNL     1       2.253   5.729  19.135  0.00  0.00    +0.000 N 
ATOM      4  C   UNL     1       1.892   6.127  20.418  0.00  0.00    +0.000 A 
ATOM      5  O   UNL     1       1.344   7.194  20.687  0.00  0.00    +0.000 OA
ATOM      6  N   UNL     1       2.134   5.242  21.417  0.00  0.00    +0.000 N 
ATOM      7  C   UNL     1       2.286   3.916  21.210  0.00  0.00    +0.000 A 
ATOM      8  O   UNL     1       1.988   3.105  22.078  0.00  0.00    +0.000 OA
ATOM      9  H   UNL     1       1.747   5.504  22.311  0.00  0.00    +0.000 HD
ENDROOT
BRANCH   1  11
ATOM     10  C   UNL     1       4.792   2.004  20.398  0.00  0.00    +0.000 C 
ATOM     11  C   UNL     1       3.352   2.090  19.879  0.00  0.00    +0.000 C 
ENDBRANCH   1  11
BRANCH   2  12
ATOM     12  C   UNL     1       3.068   3.940  17.467  0.00  0.00    +0.000 C 
ATOM     13  O   UNL     1       2.246   3.372  16.747  0.00  0.00    +0.000 OA
BRANCH  12  14
ATOM     14  C   UNL     1       4.463   4.071  16.927  0.00  0.00    +0.000 A 
ATOM     15  C   UNL     1       5.437   4.553  17.822  0.00  0.00    +0.000 A 
ATOM     16  C   UNL     1       6.732   4.869  17.390  0.00  0.00    +0.000 A 
ATOM     17  C   UNL     1       7.772   5.351  18.358  0.00  0.00    +0.000 C 
ATOM     18  C   UNL     1       7.050   4.714  16.037  0.00  0.00    +0.000 A 
ATOM     19  C   UNL     1       6.107   4.215  15.126  0.00  0.00    +0.000 A 
ATOM     20  C   UNL     1       6.461   4.099  13.669  0.00  0.00    +0.000 C 
ATOM     21  C   UNL     1       4.820   3.865  15.583  0.00  0.00    +0.000 A 
ENDBRANCH  12  14
ENDBRANCH   2  12
BRANCH   3  22
ATOM     22  C   UNL     1       2.077   6.753  18.105  0.00  0.00    +0.000 C 
BRANCH  22  23
ATOM     23  C   UNL     1       2.781   8.096  18.312  0.00  0.00    +0.000 C 
BRANCH  23  24
ATOM     24  C   UNL     1       1.919   9.232  17.730  0.00  0.00    +0.000 C 
ATOM     25  C   UNL     1       0.498   9.256  18.219  0.00  0.00    +0.000 C 
ATOM     26  C   UNL     1       0.155  10.442  18.722  0.00  0.00    +0.000 C 
ATOM     27  C   UNL     1       1.270  11.427  18.659  0.00  0.00    +0.000 C 
ATOM     28  C   UNL     1       2.456  10.617  18.128  0.00  0.00    +0.000 C 
ENDBRANCH  23  24
ENDBRANCH  22  23
ENDBRANCH   3  22
TORSDOF 6
ENDMDL
MODEL 3
REMARK VINA RESULT:      -7.4      2.837      6.944
REMARK  Name = 
REMARK  9 active torsions:
REMARK  status: ('A' for Active; 'I' for Inactive)
REMARK    1  A    between atoms: C_1  and  C_2
REMARK    2  A    between atoms: C_2  and  C_3
REMARK    3  A    between atoms: C_4  and  C_5
REMARK    4  A    between atoms: C_5  and  C_7
REMARK    5  A    between atoms: C_9  and  C_10
REMARK    6  A    between atoms: C_12  and  C_13
REMARK    7  A    between atoms: N_15  and  C_16
REMARK    8  A    between atoms: C_16  and  C_17
REMARK    9  A    between atoms: C_17  and  C_18
REMARK                            x       y       z     vdW  Elec       q    Type
REMARK                         _______ _______ _______ _____ _____    ______ ____
ROOT
ATOM      1  C   UNL     1       2.978   3.810  19.586  0.00  0.00    +0.000 A 
ATOM      2  C   UNL     1       3.356   4.875  18.830  0.00  0.00    +0.000 A 
ATOM      3  N   UNL     1       4.710   5.041  18.461  0.00  0.00    +0.000 N 
ATOM      4  C   UNL     1       5.698   4.176  18.918  0.00  0.00    +0.000 A 
ATOM      5  O   UNL     1       6.906   4.371  18.793  0.00  0.00    +0.000 OA
ATOM      6  N   UNL     1       5.276   3.071  19.581  0.00  0.00    +0.000 N 
ATOM      7  C   UNL     1       4.065   2.980  20.173  0.00  0.00    +0.000 A 
ATOM      8  O   UNL     1       3.895   2.263  21.151  0.00  0.00    +0.000 OA
ATOM      9  H   UNL     1       6.013   2.532  20.009  0.00  0.00    +0.000 HD
ENDROOT
BRANCH   1  11
ATOM     10  C   UNL     1       0.956   2.382  18.989  0.00  0.00    +0.000 C 
ATOM     11  C   UNL     1       1.597   3.331  20.007  0.00  0.00    +0.000 C 
ENDBRANCH   1  11
BRANCH   2  12
ATOM     12  C   UNL     1       2.252   5.811  18.350  0.00  0.00    +0.000 C 
ATOM     13  O   UNL     1       1.489   5.458  17.449  0.00  0.00    +0.000 OA
BRANCH  12  14
ATOM     14  C   UNL     1       2.077   7.206  18.876  0.00  0.00    +0.000 A 
ATOM     15  C   UNL     1       1.615   7.321  20.201  0.00  0.00    +0.000 A 
ATOM     16  C   UNL     1       1.262   8.563  20.745  0.00  0.00    +0.000 A 
ATOM     17  C   UNL     1       0.801   8.680  22.168  0.00  0.00    +0.000 C 
ATOM     18  C   UNL     1       1.358   9.705  19.942  0.00  0.00    +0.000 A 
ATOM     19  C   UNL     1       1.835   9.623  18.626  0.00  0.00    +0.000 A 
ATOM     20  C   UNL     1       1.888  10.860  17.770  0.00  0.00    +0.000 C 
ATOM     21  C   UNL     1       2.224   8.372  18.105  0.00  0.00    +0.000 A 
ENDBRANCH  12  14
ENDBRANCH   2  12
BRANCH   3  22
ATOM     22  C   UNL     1       5.201   6.162  17.658  0.00  0.00    +0.000 C 
BRANCH  22  23
ATOM     23  C   UNL     1       5.022   6.078  16.141  0.00  0.00    +0.000 C 
BRANCH  23  24
ATOM     24  C   UNL     1       5.712   4.811  15.603  0.00  0.00    +0.000 C 
ATOM     25  C   UNL     1       5.034   4.183  14.417  0.00  0.00    +0.000 C 
ATOM     26  C   UNL     1       5.867   4.007  13.391  0.00  0.00    +0.000 C 
ATOM     27  C   UNL     1       7.248   4.474  13.697  0.00  0.00    +0.000 C 
ATOM     28  C   UNL     1       7.130   5.109  15.086  0.00  0.00    +0.000 C 
ENDBRANCH  23  24
ENDBRANCH  22  23
ENDBRANCH   3  22
TORSDOF 6
ENDMDL
MODEL 4
REMARK VINA RESULT:      -7.4      3.425      5.393
REMARK  Name = 
REMARK  9 active torsions:
REMARK  status: ('A' for Active; 'I' for Inactive)
REMARK    1  A    between atoms: C_1  and  C_2
REMARK    2  A    between atoms: C_2  and  C_3
REMARK    3  A    between atoms: C_4  and  C_5
REMARK    4  A    between atoms: C_5  and  C_7
REMARK    5  A    between atoms: C_9  and  C_10
REMARK    6  A    between atoms: C_12  and  C_13
REMARK    7  A    between atoms: N_15  and  C_16
REMARK    8  A    between atoms: C_16  and  C_17
REMARK    9  A    between atoms: C_17  and  C_18
REMARK                            x       y       z     vdW  Elec       q    Type
REMARK                         _______ _______ _______ _____ _____    ______ ____
ROOT
ATOM      1  C   UNL     1       3.084   3.880  19.806  0.00  0.00    +0.000 A 
ATOM      2  C   UNL     1       2.806   4.795  18.838  0.00  0.00    +0.000 A 
ATOM      3  N   UNL     1       2.224   6.036  19.180  0.00  0.00    +0.000 N 
ATOM      4  C   UNL     1       1.849   6.328  20.487  0.00  0.00    +0.000 A 
ATOM      5  O   UNL     1       1.172   7.300  20.816  0.00  0.00    +0.000 OA
ATOM      6  N   UNL     1       2.233   5.442  21.439  0.00  0.00    +0.000 N 
ATOM      7  C   UNL     1       2.553   4.157  21.168  0.00  0.00    +0.000 A 
ATOM      8  O   UNL     1       2.389   3.279  22.005  0.00  0.00    +0.000 OA
ATOM      9  H   UNL     1       1.840   5.612  22.352  0.00  0.00    +0.000 HD
ENDROOT
BRANCH   1  11
ATOM     10  C   UNL     1       2.965   1.435  19.107  0.00  0.00    +0.000 C 
ATOM     11  C   UNL     1       3.813   2.548  19.733  0.00  0.00    +0.000 C 
ENDBRANCH   1  11
BRANCH   2  12
ATOM     12  C   UNL     1       3.221   4.444  17.414  0.00  0.00    +0.000 C 
ATOM     13  O   UNL     1       2.536   3.674  16.740  0.00  0.00    +0.000 OA
BRANCH  12  14
ATOM     14  C   UNL     1       4.493   4.940  16.788  0.00  0.00    +0.000 A 
ATOM     15  C   UNL     1       4.868   4.336  15.573  0.00  0.00    +0.000 A 
ATOM     16  C   UNL     1       6.110   4.600  14.980  0.00  0.00    +0.000 A 
ATOM     17  C   UNL     1       6.487   3.975  13.669  0.00  0.00    +0.000 C 
ATOM     18  C   UNL     1       6.995   5.470  15.624  0.00  0.00    +0.000 A 
ATOM     19  C   UNL     1       6.639   6.104  16.824  0.00  0.00    +0.000 A 
ATOM     20  C   UNL     1       7.626   7.003  17.517  0.00  0.00    +0.000 C 
ATOM     21  C   UNL     1       5.371   5.859  17.388  0.00  0.00    +0.000 A 
ENDBRANCH  12  14
ENDBRANCH   2  12
BRANCH   3  22
ATOM     22  C   UNL     1       1.886   7.070  18.201  0.00  0.00    +0.000 C 
BRANCH  22  23
ATOM     23  C   UNL     1       2.693   8.369  18.234  0.00  0.00    +0.000 C 
BRANCH  23  24
ATOM     24  C   UNL     1       1.830   9.535  17.715  0.00  0.00    +0.000 C 
ATOM     25  C   UNL     1       0.402   9.515  18.184  0.00  0.00    +0.000 C 
ATOM     26  C   UNL     1       0.041  10.663  18.758  0.00  0.00    +0.000 C 
ATOM     27  C   UNL     1       1.149  11.659  18.775  0.00  0.00    +0.000 C 
ATOM     28  C   UNL     1       2.349  10.895  18.211  0.00  0.00    +0.000 C 
ENDBRANCH  23  24
ENDBRANCH  22  23
ENDBRANCH   3  22
TORSDOF 6
ENDMDL
MODEL 5
REMARK VINA RESULT:      -7.4      1.983      5.897
REMARK  Name = 
REMARK  9 active torsions:
REMARK  status: ('A' for Active; 'I' for Inactive)
REMARK    1  A    between atoms: C_1  and  C_2
REMARK    2  A    between atoms: C_2  and  C_3
REMARK    3  A    between atoms: C_4  and  C_5
REMARK    4  A    between atoms: C_5  and  C_7
REMARK    5  A    between atoms: C_9  and  C_10
REMARK    6  A    between atoms: C_12  and  C_13
REMARK    7  A    between atoms: N_15  and  C_16
REMARK    8  A    between atoms: C_16  and  C_17
REMARK    9  A    between atoms: C_17  and  C_18
REMARK                            x       y       z     vdW  Elec       q    Type
REMARK                         _______ _______ _______ _____ _____    ______ ____
ROOT
ATOM      1  C   UNL     1       3.007   6.069  18.314  0.00  0.00    +0.000 A 
ATOM      2  C   UNL     1       3.925   5.584  17.436  0.00  0.00    +0.000 A 
ATOM      3  N   UNL     1       3.913   4.217  17.077  0.00  0.00    +0.000 N 
ATOM      4  C   UNL     1       3.026   3.320  17.663  0.00  0.00    +0.000 A 
ATOM      5  O   UNL     1       3.088   2.098  17.540  0.00  0.00    +0.000 OA
ATOM      6  N   UNL     1       2.061   3.852  18.454  0.00  0.00    +0.000 N 
ATOM      7  C   UNL     1       2.163   5.072  19.026  0.00  0.00    +0.000 A 
ATOM      8  O   UNL     1       1.598   5.319  20.084  0.00  0.00    +0.000 OA
ATOM      9  H   UNL     1       1.516   3.174  18.963  0.00  0.00    +0.000 HD
ENDROOT
BRANCH   1  11
ATOM     10  C   UNL     1       1.895   8.288  17.745  0.00  0.00    +0.000 C 
ATOM     11  C   UNL     1       2.719   7.493  18.764  0.00  0.00    +0.000 C 
ENDBRANCH   1  11
BRANCH   2  12
ATOM     12  C   UNL     1       4.889   6.589  16.816  0.00  0.00    +0.000 C 
ATOM     13  O   UNL     1       4.621   7.122  15.739  0.00  0.00    +0.000 OA
BRANCH  12  14
ATOM     14  C   UNL     1       6.221   6.924  17.422  0.00  0.00    +0.000 A 
ATOM     15  C   UNL     1       6.762   5.972  18.307  0.00  0.00    +0.000 A 
ATOM     16  C   UNL     1       7.916   6.244  19.055  0.00  0.00    +0.000 A 
ATOM     17  C   UNL     1       8.502   5.212  19.972  0.00  0.00    +0.000 C 
ATOM     18  C   UNL     1       8.526   7.496  18.924  0.00  0.00    +0.000 A 
ATOM     19  C   UNL     1       8.023   8.455  18.033  0.00  0.00    +0.000 A 
ATOM     20  C   UNL     1       8.673   9.809  17.944  0.00  0.00    +0.000 C 
ATOM     21  C   UNL     1       6.884   8.153  17.260  0.00  0.00    +0.000 A 
ENDBRANCH  12  14
ENDBRANCH   2  12
BRANCH   3  22
ATOM     22  C   UNL     1       4.869   3.613  16.148  0.00  0.00    +0.000 C 
BRANCH  22  23
ATOM     23  C   UNL     1       4.961   4.209  14.741  0.00  0.00    +0.000 C 
BRANCH  23  24
ATOM     24  C   UNL     1       6.337   3.887  14.127  0.00  0.00    +0.000 C 
ATOM     25  C   UNL     1       6.300   3.495  12.676  0.00  0.00    +0.000 C 
ATOM     26  C   UNL     1       7.122   4.234  11.931  0.00  0.00    +0.000 C 
ATOM     27  C   UNL     1       7.861   5.246  12.737  0.00  0.00    +0.000 C 
ATOM     28  C   UNL     1       7.269   5.110  14.142  0.00  0.00    +0.000 C 
ENDBRANCH  23  24
ENDBRANCH  22  23
ENDBRANCH   3  22
TORSDOF 6
ENDMDL
MODEL 6
REMARK VINA RESULT:      -7.2      8.315     10.609
REMARK  Name = 
REMARK  9 active torsions:
REMARK  status: ('A' for Active; 'I' for Inactive)
REMARK    1  A    between atoms: C_1  and  C_2
REMARK    2  A    between atoms: C_2  and  C_3
REMARK    3  A    between atoms: C_4  and  C_5
REMARK    4  A    between atoms: C_5  and  C_7
REMARK    5  A    between atoms: C_9  and  C_10
REMARK    6  A    between atoms: C_12  and  C_13
REMARK    7  A    between atoms: N_15  and  C_16
REMARK    8  A    between atoms: C_16  and  C_17
REMARK    9  A    between atoms: C_17  and  C_18
REMARK                            x       y       z     vdW  Elec       q    Type
REMARK                         _______ _______ _______ _____ _____    ______ ____
ROOT
ATOM      1  C   UNL     1       0.892   9.436  19.841  0.00  0.00    +0.000 A 
ATOM      2  C   UNL     1       0.189  10.480  20.356  0.00  0.00    +0.000 A 
ATOM      3  N   UNL     1       0.097  10.655  21.755  0.00  0.00    +0.000 N 
ATOM      4  C   UNL     1       0.646   9.733  22.639  0.00  0.00    +0.000 A 
ATOM      5  O   UNL     1       0.440   9.724  23.852  0.00  0.00    +0.000 OA
ATOM      6  N   UNL     1       1.426   8.764  22.098  0.00  0.00    +0.000 N 
ATOM      7  C   UNL     1       1.353   8.396  20.800  0.00  0.00    +0.000 A 
ATOM      8  O   UNL     1       1.635   7.256  20.454  0.00  0.00    +0.000 OA
ATOM      9  H   UNL     1       1.704   8.041  22.743  0.00  0.00    +0.000 HD
ENDROOT
BRANCH   1  11
ATOM     10  C   UNL     1       2.365   9.985  17.837  0.00  0.00    +0.000 C 
ATOM     11  C   UNL     1       1.253   9.094  18.404  0.00  0.00    +0.000 C 
ENDBRANCH   1  11
BRANCH   2  12
ATOM     12  C   UNL     1      -0.408  11.470  19.362  0.00  0.00    +0.000 C 
ATOM     13  O   UNL     1       0.194  12.506  19.080  0.00  0.00    +0.000 OA
BRANCH  12  14
ATOM     14  C   UNL     1      -1.763  11.286  18.740  0.00  0.00    +0.000 A 
ATOM     15  C   UNL     1      -1.792  10.664  17.478  0.00  0.00    +0.000 A 
ATOM     16  C   UNL     1      -2.975  10.583  16.731  0.00  0.00    +0.000 A 
ATOM     17  C   UNL     1      -3.002   9.890  15.401  0.00  0.00    +0.000 C 
ATOM     18  C   UNL     1      -4.142  11.150  17.251  0.00  0.00    +0.000 A 
ATOM     19  C   UNL     1      -4.149  11.757  18.516  0.00  0.00    +0.000 A 
ATOM     20  C   UNL     1      -5.408  12.397  19.034  0.00  0.00    +0.000 C 
ATOM     21  C   UNL     1      -2.960  11.796  19.272  0.00  0.00    +0.000 A 
ENDBRANCH  12  14
ENDBRANCH   2  12
BRANCH   3  22
ATOM     22  C   UNL     1      -0.646  11.745  22.390  0.00  0.00    +0.000 C 
BRANCH  22  23
ATOM     23  C   UNL     1      -2.076  11.454  22.849  0.00  0.00    +0.000 C 
BRANCH  23  24
ATOM     24  C   UNL     1      -2.742  12.755  23.336  0.00  0.00    +0.000 C 
ATOM     25  C   UNL     1      -3.375  13.580  22.251  0.00  0.00    +0.000 C 
ATOM     26  C   UNL     1      -4.651  13.867  22.511  0.00  0.00    +0.000 C 
ATOM     27  C   UNL     1      -5.105  13.298  23.811  0.00  0.00    +0.000 C 
ATOM     28  C   UNL     1      -3.911  12.472  24.296  0.00  0.00    +0.000 C 
ENDBRANCH  23  24
ENDBRANCH  22  23
ENDBRANCH   3  22
TORSDOF 6
ENDMDL
MODEL 7
REMARK VINA RESULT:      -7.1      2.471      5.413
REMARK  Name = 
REMARK  9 active torsions:
REMARK  status: ('A' for Active; 'I' for Inactive)
REMARK    1  A    between atoms: C_1  and  C_2
REMARK    2  A    between atoms: C_2  and  C_3
REMARK    3  A    between atoms: C_4  and  C_5
REMARK    4  A    between atoms: C_5  and  C_7
REMARK    5  A    between atoms: C_9  and  C_10
REMARK    6  A    between atoms: C_12  and  C_13
REMARK    7  A    between atoms: N_15  and  C_16
REMARK    8  A    between atoms: C_16  and  C_17
REMARK    9  A    between atoms: C_17  and  C_18
REMARK                            x       y       z     vdW  Elec       q    Type
REMARK                         _______ _______ _______ _____ _____    ______ ____
ROOT
ATOM      1  C   UNL     1       6.226   5.749  17.736  0.00  0.00    +0.000 A 
ATOM      2  C   UNL     1       4.994   5.187  17.861  0.00  0.00    +0.000 A 
ATOM      3  N   UNL     1       4.481   4.362  16.836  0.00  0.00    +0.000 N 
ATOM      4  C   UNL     1       5.175   4.164  15.647  0.00  0.00    +0.000 A 
ATOM      5  O   UNL     1       4.706   3.619  14.649  0.00  0.00    +0.000 OA
ATOM      6  N   UNL     1       6.440   4.651  15.596  0.00  0.00    +0.000 N 
ATOM      7  C   UNL     1       6.887   5.634  16.407  0.00  0.00    +0.000 A 
ATOM      8  O   UNL     1       7.776   6.394  16.043  0.00  0.00    +0.000 OA
ATOM      9  H   UNL     1       6.870   4.606  14.685  0.00  0.00    +0.000 HD
ENDROOT
BRANCH   1  11
ATOM     10  C   UNL     1       8.003   5.687  19.559  0.00  0.00    +0.000 C 
ATOM     11  C   UNL     1       7.055   6.555  18.723  0.00  0.00    +0.000 C 
ENDBRANCH   1  11
BRANCH   2  12
ATOM     12  C   UNL     1       4.254   5.428  19.172  0.00  0.00    +0.000 C 
ATOM     13  O   UNL     1       4.480   4.717  20.152  0.00  0.00    +0.000 OA
BRANCH  12  14
ATOM     14  C   UNL     1       3.179   6.466  19.324  0.00  0.00    +0.000 A 
ATOM     15  C   UNL     1       3.079   7.418  18.292  0.00  0.00    +0.000 A 
ATOM     16  C   UNL     1       2.226   8.524  18.400  0.00  0.00    +0.000 A 
ATOM     17  C   UNL     1       2.103   9.516  17.281  0.00  0.00    +0.000 C 
ATOM     18  C   UNL     1       1.475   8.687  19.568  0.00  0.00    +0.000 A 
ATOM     19  C   UNL     1       1.537   7.743  20.604  0.00  0.00    +0.000 A 
ATOM     20  C   UNL     1       0.751   7.963  21.868  0.00  0.00    +0.000 C 
ATOM     21  C   UNL     1       2.371   6.614  20.464  0.00  0.00    +0.000 A 
ENDBRANCH  12  14
ENDBRANCH   2  12
BRANCH   3  22
ATOM     22  C   UNL     1       3.163   3.727  16.888  0.00  0.00    +0.000 C 
BRANCH  22  23
ATOM     23  C   UNL     1       3.074   2.330  17.504  0.00  0.00    +0.000 C 
BRANCH  23  24
ATOM     24  C   UNL     1       1.813   2.226  18.383  0.00  0.00    +0.000 C 
ATOM     25  C   UNL     1       2.078   1.880  19.822  0.00  0.00    +0.000 C 
ATOM     26  C   UNL     1       1.522   2.752  20.664  0.00  0.00    +0.000 C 
ATOM     27  C   UNL     1       0.783   3.832  19.952  0.00  0.00    +0.000 C 
ATOM     28  C   UNL     1       1.068   3.569  18.471  0.00  0.00    +0.000 C 
ENDBRANCH  23  24
ENDBRANCH  22  23
ENDBRANCH   3  22
TORSDOF 6
ENDMDL
MODEL 8
REMARK VINA RESULT:      -7.0      2.689      6.774
REMARK  Name = 
REMARK  9 active torsions:
REMARK  status: ('A' for Active; 'I' for Inactive)
REMARK    1  A    between atoms: C_1  and  C_2
REMARK    2  A    between atoms: C_2  and  C_3
REMARK    3  A    between atoms: C_4  and  C_5
REMARK    4  A    between atoms: C_5  and  C_7
REMARK    5  A    between atoms: C_9  and  C_10
REMARK    6  A    between atoms: C_12  and  C_13
REMARK    7  A    between atoms: N_15  and  C_16
REMARK    8  A    between atoms: C_16  and  C_17
REMARK    9  A    between atoms: C_17  and  C_18
REMARK                            x       y       z     vdW  Elec       q    Type
REMARK                         _______ _______ _______ _____ _____    ______ ____
ROOT
ATOM      1  C   UNL     1       3.240   3.514  19.500  0.00  0.00    +0.000 A 
ATOM      2  C   UNL     1       3.465   4.659  18.802  0.00  0.00    +0.000 A 
ATOM      3  N   UNL     1       4.783   5.039  18.464  0.00  0.00    +0.000 N 
ATOM      4  C   UNL     1       5.883   4.306  18.896  0.00  0.00    +0.000 A 
ATOM      5  O   UNL     1       7.051   4.682  18.800  0.00  0.00    +0.000 OA
ATOM      6  N   UNL     1       5.622   3.120  19.498  0.00  0.00    +0.000 N 
ATOM      7  C   UNL     1       4.432   2.824  20.064  0.00  0.00    +0.000 A 
ATOM      8  O   UNL     1       4.360   2.042  21.004  0.00  0.00    +0.000 OA
ATOM      9  H   UNL     1       6.427   2.674  19.912  0.00  0.00    +0.000 HD
ENDROOT
BRANCH   1  11
ATOM     10  C   UNL     1       1.321   3.362  21.167  0.00  0.00    +0.000 C 
ATOM     11  C   UNL     1       1.942   2.818  19.875  0.00  0.00    +0.000 C 
ENDBRANCH   1  11
BRANCH   2  12
ATOM     12  C   UNL     1       2.240   5.445  18.349  0.00  0.00    +0.000 C 
ATOM     13  O   UNL     1       1.537   5.023  17.430  0.00  0.00    +0.000 OA
BRANCH  12  14
ATOM     14  C   UNL     1       1.867   6.781  18.926  0.00  0.00    +0.000 A 
ATOM     15  C   UNL     1       2.009   7.891  18.073  0.00  0.00    +0.000 A 
ATOM     16  C   UNL     1       1.846   9.200  18.546  0.00  0.00    +0.000 A 
ATOM     17  C   UNL     1       1.968  10.376  17.621  0.00  0.00    +0.000 C 
ATOM     18  C   UNL     1       1.553   9.398  19.899  0.00  0.00    +0.000 A 
ATOM     19  C   UNL     1       1.384   8.310  20.768  0.00  0.00    +0.000 A 
ATOM     20  C   UNL     1       1.111   8.552  22.227  0.00  0.00    +0.000 C 
ATOM     21  C   UNL     1       1.512   6.998  20.268  0.00  0.00    +0.000 A 
ENDBRANCH  12  14
ENDBRANCH   2  12
BRANCH   3  22
ATOM     22  C   UNL     1       5.112   6.258  17.724  0.00  0.00    +0.000 C 
BRANCH  22  23
ATOM     23  C   UNL     1       5.040   6.201  16.197  0.00  0.00    +0.000 C 
BRANCH  23  24
ATOM     24  C   UNL     1       5.788   4.954  15.685  0.00  0.00    +0.000 C 
ATOM     25  C   UNL     1       5.043   4.156  14.651  0.00  0.00    +0.000 C 
ATOM     26  C   UNL     1       5.765   3.958  13.548  0.00  0.00    +0.000 C 
ATOM     27  C   UNL     1       7.118   4.575  13.639  0.00  0.00    +0.000 C 
ATOM     28  C   UNL     1       7.098   5.327  14.972  0.00  0.00    +0.000 C 
ENDBRANCH  23  24
ENDBRANCH  22  23
ENDBRANCH   3  22
TORSDOF 6
ENDMDL
MODEL 9
REMARK VINA RESULT:      -6.9      8.568     10.894
REMARK  Name = 
REMARK  9 active torsions:
REMARK  status: ('A' for Active; 'I' for Inactive)
REMARK    1  A    between atoms: C_1  and  C_2
REMARK    2  A    between atoms: C_2  and  C_3
REMARK    3  A    between atoms: C_4  and  C_5
REMARK    4  A    between atoms: C_5  and  C_7
REMARK    5  A    between atoms: C_9  and  C_10
REMARK    6  A    between atoms: C_12  and  C_13
REMARK    7  A    between atoms: N_15  and  C_16
REMARK    8  A    between atoms: C_16  and  C_17
REMARK    9  A    between atoms: C_17  and  C_18
REMARK                            x       y       z     vdW  Elec       q    Type
REMARK                         _______ _______ _______ _____ _____    ______ ____
ROOT
ATOM      1  C   UNL     1       0.699   9.780  19.861  0.00  0.00    +0.000 A 
ATOM      2  C   UNL     1       0.032  10.806  20.455  0.00  0.00    +0.000 A 
ATOM      3  N   UNL     1      -0.065  10.872  21.863  0.00  0.00    +0.000 N 
ATOM      4  C   UNL     1       0.442   9.862  22.673  0.00  0.00    +0.000 A 
ATOM      5  O   UNL     1       0.227   9.764  23.880  0.00  0.00    +0.000 OA
ATOM      6  N   UNL     1       1.188   8.910  22.060  0.00  0.00    +0.000 N 
ATOM      7  C   UNL     1       1.111   8.649  20.737  0.00  0.00    +0.000 A 
ATOM      8  O   UNL     1       1.353   7.530  20.301  0.00  0.00    +0.000 OA
ATOM      9  H   UNL     1       1.434   8.127  22.647  0.00  0.00    +0.000 HD
ENDROOT
BRANCH   1  11
ATOM     10  C   UNL     1       2.262  10.366  17.939  0.00  0.00    +0.000 C 
ATOM     11  C   UNL     1       1.058   9.540  18.404  0.00  0.00    +0.000 C 
ENDBRANCH   1  11
BRANCH   2  12
ATOM     12  C   UNL     1      -0.520  11.894  19.540  0.00  0.00    +0.000 C 
ATOM     13  O   UNL     1       0.045  12.986  19.465  0.00  0.00    +0.000 OA
BRANCH  12  14
ATOM     14  C   UNL     1      -1.790  11.735  18.755  0.00  0.00    +0.000 A 
ATOM     15  C   UNL     1      -2.982  12.083  19.417  0.00  0.00    +0.000 A 
ATOM     16  C   UNL     1      -4.235  11.827  18.847  0.00  0.00    +0.000 A 
ATOM     17  C   UNL     1      -5.499  12.231  19.547  0.00  0.00    +0.000 C 
ATOM     18  C   UNL     1      -4.294  11.196  17.600  0.00  0.00    +0.000 A 
ATOM     19  C   UNL     1      -3.123  10.857  16.906  0.00  0.00    +0.000 A 
ATOM     20  C   UNL     1      -3.214  10.141  15.587  0.00  0.00    +0.000 C 
ATOM     21  C   UNL     1      -1.869  11.157  17.476  0.00  0.00    +0.000 A 
ENDBRANCH  12  14
ENDBRANCH   2  12
BRANCH   3  22
ATOM     22  C   UNL     1      -0.770  11.936  22.579  0.00  0.00    +0.000 C 
BRANCH  22  23
ATOM     23  C   UNL     1      -2.237  11.693  22.941  0.00  0.00    +0.000 C 
BRANCH  23  24
ATOM     24  C   UNL     1      -2.902  13.024  23.341  0.00  0.00    +0.000 C 
ATOM     25  C   UNL     1      -2.502  14.204  22.499  0.00  0.00    +0.000 C 
ATOM     26  C   UNL     1      -3.555  14.844  21.992  0.00  0.00    +0.000 C 
ATOM     27  C   UNL     1      -4.846  14.223  22.400  0.00  0.00    +0.000 C 
ATOM     28  C   UNL     1      -4.430  12.970  23.176  0.00  0.00    +0.000 C 
ENDBRANCH  23  24
ENDBRANCH  22  23
ENDBRANCH   3  22
TORSDOF 6
ENDMDL
