MODEL 1
REMARK VINA RESULT:      -8.1      0.000      0.000
REMARK  Name = 
REMARK  7 active torsions:
REMARK  status: ('A' for Active; 'I' for Inactive)
REMARK    1  A    between atoms: N_1  and  C_2
REMARK    2  A    between atoms: C_6  and  S_7
REMARK    3  A    between atoms: S_7  and  N_10
REMARK    4  A    between atoms: N_10  and  C_11
REMARK    5  A    between atoms: C_18  and  S_19
REMARK    6  A    between atoms: S_19  and  N_22
REMARK    7  A    between atoms: N_22  and  C_23
REMARK                            x       y       z     vdW  Elec       q    Type
REMARK                         _______ _______ _______ _____ _____    ______ ____
ROOT
ATOM      1  C   UNL     1       4.797   3.525  19.466  0.00  0.00    +0.000 A 
ATOM      2  C   UNL     1       5.979   4.261  19.654  0.00  0.00    +0.000 A 
ATOM      3  C   UNL     1       6.476   5.155  18.695  0.00  0.00    +0.000 A 
ATOM      4 CL   UNL     1       7.967   5.923  19.093  0.00  0.00    +0.000 Cl
ATOM      5  C   UNL     1       5.790   5.312  17.494  0.00  0.00    +0.000 A 
ATOM      6  C   UNL     1       4.618   4.565  17.267  0.00  0.00    +0.000 A 
ATOM      7  C   UNL     1       4.141   3.655  18.233  0.00  0.00    +0.000 A 
ENDROOT
BRANCH   1   8
ATOM      8  N   UNL     1       4.490   2.573  20.438  0.00  0.00    +0.000 N 
ATOM      9  H   UNL     1       3.985   1.749  20.129  0.00  0.00    +0.000 HD
ATOM     10  H   UNL     1       5.235   2.339  21.096  0.00  0.00    +0.000 HD
ENDBRANCH   1   8
BRANCH   5  11
ATOM     11  S   UNL     1       6.316   6.452  16.227  0.00  0.00    +0.000 S 
ATOM     12  O   UNL     1       5.188   6.643  15.341  0.00  0.00    +0.000 OA
ATOM     13  O   UNL     1       6.937   7.598  16.851  0.00  0.00    +0.000 OA
BRANCH  11  14
ATOM     14  N   UNL     1       7.528   5.607  15.408  0.00  0.00    +0.000 N 
ATOM     15  H   UNL     1       8.283   5.255  15.995  0.00  0.00    +0.000 HD
BRANCH  14  16
ATOM     16  C   UNL     1       7.182   4.897  14.228  0.00  0.00    +0.000 A 
ATOM     17  C   UNL     1       7.821   5.233  13.035  0.00  0.00    +0.000 A 
ATOM     18  C   UNL     1       7.431   4.626  11.840  0.00  0.00    +0.000 A 
ATOM     19  C   UNL     1       6.390   3.700  11.841  0.00  0.00    +0.000 A 
ATOM     20  C   UNL     1       5.761   3.356  13.038  0.00  0.00    +0.000 A 
ATOM     21  C   UNL     1       6.167   3.941  14.238  0.00  0.00    +0.000 A 
ENDBRANCH  14  16
ENDBRANCH  11  14
ENDBRANCH   5  11
BRANCH   7  22
ATOM     22  S   UNL     1       2.721   2.654  17.783  0.00  0.00    +0.000 S 
ATOM     23  O   UNL     1       2.450   2.907  16.381  0.00  0.00    +0.000 OA
ATOM     24  O   UNL     1       2.915   1.310  18.273  0.00  0.00    +0.000 OA
BRANCH  22  25
ATOM     25  N   UNL     1       1.441   3.367  18.638  0.00  0.00    +0.000 N 
ATOM     26  H   UNL     1       0.534   3.078  18.275  0.00  0.00    +0.000 HD
BRANCH  25  27
ATOM     27  C   UNL     1       1.587   4.725  19.036  0.00  0.00    +0.000 A 
ATOM     28  C   UNL     1       1.852   5.695  18.071  0.00  0.00    +0.000 A 
ATOM     29  C   UNL     1       2.143   7.001  18.465  0.00  0.00    +0.000 A 
ATOM     30  C   UNL     1       2.153   7.338  19.820  0.00  0.00    +0.000 A 
ATOM     31  C   UNL     1       1.866   6.370  20.782  0.00  0.00    +0.000 A 
ATOM     32  C   UNL     1       1.591   5.059  20.392  0.00  0.00    +0.000 A 
ENDBRANCH  25  27
ENDBRANCH  22  25
ENDBRANCH   7  22
TORSDOF 7
ENDMDL
MODEL 2
REMARK VINA RESULT:      -8.1      1.310      6.860
REMARK  Name = 
REMARK  7 active torsions:
REMARK  status: ('A' for Active; 'I' for Inactive)
REMARK    1  A    between atoms: N_1  and  C_2
REMARK    2  A    between atoms: C_6  and  S_7
REMARK    3  A    between atoms: S_7  and  N_10
REMARK    4  A    between atoms: N_10  and  C_11
REMARK    5  A    between atoms: C_18  and  S_19
REMARK    6  A    between atoms: S_19  and  N_22
REMARK    7  A    between atoms: N_22  and  C_23
REMARK                            x       y       z     vdW  Elec       q    Type
REMARK                         _______ _______ _______ _____ _____    ______ ____
ROOT
ATOM      1  C   UNL     1       6.483   4.923  18.801  0.00  0.00    +0.000 A 
ATOM      2  C   UNL     1       5.809   4.109  19.727  0.00  0.00    +0.000 A 
ATOM      3  C   UNL     1       4.588   3.482  19.437  0.00  0.00    +0.000 A 
ATOM      4 CL   UNL     1       3.896   2.567  20.724  0.00  0.00    +0.000 Cl
ATOM      5  C   UNL     1       4.000   3.684  18.191  0.00  0.00    +0.000 A 
ATOM      6  C   UNL     1       4.640   4.519  17.255  0.00  0.00    +0.000 A 
ATOM      7  C   UNL     1       5.857   5.158  17.568  0.00  0.00    +0.000 A 
ENDROOT
BRANCH   1   8
ATOM      8  N   UNL     1       7.615   5.593  19.263  0.00  0.00    +0.000 N 
ATOM      9  H   UNL     1       8.484   5.424  18.766  0.00  0.00    +0.000 HD
ATOM     10  H   UNL     1       7.495   6.581  19.495  0.00  0.00    +0.000 HD
ENDBRANCH   1   8
BRANCH   5  11
ATOM     11  S   UNL     1       2.471   2.901  17.711  0.00  0.00    +0.000 S 
ATOM     12  O   UNL     1       2.320   3.117  16.288  0.00  0.00    +0.000 OA
ATOM     13  O   UNL     1       2.444   1.555  18.237  0.00  0.00    +0.000 OA
BRANCH  11  14
ATOM     14  N   UNL     1       1.293   3.787  18.535  0.00  0.00    +0.000 N 
ATOM     15  H   UNL     1       0.603   3.229  19.035  0.00  0.00    +0.000 HD
BRANCH  14  16
ATOM     16  C   UNL     1       1.635   5.072  19.033  0.00  0.00    +0.000 A 
ATOM     17  C   UNL     1       1.486   5.322  20.397  0.00  0.00    +0.000 A 
ATOM     18  C   UNL     1       1.715   6.603  20.901  0.00  0.00    +0.000 A 
ATOM     19  C   UNL     1       2.073   7.635  20.035  0.00  0.00    +0.000 A 
ATOM     20  C   UNL     1       2.234   7.380  18.672  0.00  0.00    +0.000 A 
ATOM     21  C   UNL     1       2.032   6.093  18.170  0.00  0.00    +0.000 A 
ENDBRANCH  14  16
ENDBRANCH  11  14
ENDBRANCH   5  11
BRANCH   7  22
ATOM     22  S   UNL     1       6.512   6.308  16.355  0.00  0.00    +0.000 S 
ATOM     23  O   UNL     1       5.425   6.642  15.455  0.00  0.00    +0.000 OA
ATOM     24  O   UNL     1       7.258   7.340  17.035  0.00  0.00    +0.000 OA
BRANCH  22  25
ATOM     25  N   UNL     1       7.590   5.363  15.448  0.00  0.00    +0.000 N 
ATOM     26  H   UNL     1       8.544   5.719  15.501  0.00  0.00    +0.000 HD
BRANCH  25  27
ATOM     27  C   UNL     1       7.142   4.868  14.193  0.00  0.00    +0.000 A 
ATOM     28  C   UNL     1       6.157   3.883  14.159  0.00  0.00    +0.000 A 
ATOM     29  C   UNL     1       5.817   3.286  12.944  0.00  0.00    +0.000 A 
ATOM     30  C   UNL     1       6.450   3.687  11.767  0.00  0.00    +0.000 A 
ATOM     31  C   UNL     1       7.419   4.688  11.800  0.00  0.00    +0.000 A 
ATOM     32  C   UNL     1       7.773   5.275  13.016  0.00  0.00    +0.000 A 
ENDBRANCH  25  27
ENDBRANCH  22  25
ENDBRANCH   7  22
TORSDOF 7
ENDMDL
MODEL 3
REMARK VINA RESULT:      -7.8      2.680      7.073
REMARK  Name = 
REMARK  7 active torsions:
REMARK  status: ('A' for Active; 'I' for Inactive)
REMARK    1  A    between atoms: N_1  and  C_2
REMARK    2  A    between atoms: C_6  and  S_7
REMARK    3  A    between atoms: S_7  and  N_10
REMARK    4  A    between atoms: N_10  and  C_11
REMARK    5  A    between atoms: C_18  and  S_19
REMARK    6  A    between atoms: S_19  and  N_22
REMARK    7  A    between atoms: N_22  and  C_23
REMARK                            x       y       z     vdW  Elec       q    Type
REMARK                         _______ _______ _______ _____ _____    ______ ____
ROOT
ATOM      1  C   UNL     1       4.646   3.064  17.064  0.00  0.00    +0.000 A 
ATOM      2  C   UNL     1       3.596   2.371  17.690  0.00  0.00    +0.000 A 
ATOM      3  C   UNL     1       2.812   2.938  18.705  0.00  0.00    +0.000 A 
ATOM      4 CL   UNL     1       1.605   1.907  19.379  0.00  0.00    +0.000 Cl
ATOM      5  C   UNL     1       3.089   4.233  19.133  0.00  0.00    +0.000 A 
ATOM      6  C   UNL     1       4.156   4.940  18.545  0.00  0.00    +0.000 A 
ATOM      7  C   UNL     1       4.948   4.349  17.538  0.00  0.00    +0.000 A 
ENDROOT
BRANCH   1   8
ATOM      8  N   UNL     1       5.431   2.338  16.169  0.00  0.00    +0.000 N 
ATOM      9  H   UNL     1       5.564   1.352  16.371  0.00  0.00    +0.000 HD
ATOM     10  H   UNL     1       5.258   2.504  15.176  0.00  0.00    +0.000 HD
ENDBRANCH   1   8
BRANCH   5  11
ATOM     11  S   UNL     1       2.127   5.058  20.388  0.00  0.00    +0.000 S 
ATOM     12  O   UNL     1       0.766   5.117  19.900  0.00  0.00    +0.000 OA
ATOM     13  O   UNL     1       2.401   4.450  21.670  0.00  0.00    +0.000 OA
BRANCH  11  14
ATOM     14  N   UNL     1       2.772   6.619  20.424  0.00  0.00    +0.000 N 
ATOM     15  H   UNL     1       3.789   6.668  20.386  0.00  0.00    +0.000 HD
BRANCH  14  16
ATOM     16  C   UNL     1       2.008   7.682  19.875  0.00  0.00    +0.000 A 
ATOM     17  C   UNL     1       2.190   8.013  18.533  0.00  0.00    +0.000 A 
ATOM     18  C   UNL     1       1.531   9.117  17.990  0.00  0.00    +0.000 A 
ATOM     19  C   UNL     1       0.707   9.898  18.798  0.00  0.00    +0.000 A 
ATOM     20  C   UNL     1       0.515   9.558  20.138  0.00  0.00    +0.000 A 
ATOM     21  C   UNL     1       1.152   8.438  20.676  0.00  0.00    +0.000 A 
ENDBRANCH  14  16
ENDBRANCH  11  14
ENDBRANCH   5  11
BRANCH   7  22
ATOM     22  S   UNL     1       6.365   5.286  16.958  0.00  0.00    +0.000 S 
ATOM     23  O   UNL     1       6.464   6.467  17.793  0.00  0.00    +0.000 OA
ATOM     24  O   UNL     1       7.487   4.393  16.795  0.00  0.00    +0.000 OA
BRANCH  22  25
ATOM     25  N   UNL     1       5.880   5.838  15.429  0.00  0.00    +0.000 N 
ATOM     26  H   UNL     1       4.923   6.189  15.438  0.00  0.00    +0.000 HD
BRANCH  25  27
ATOM     27  C   UNL     1       6.295   5.089  14.293  0.00  0.00    +0.000 A 
ATOM     28  C   UNL     1       7.494   5.413  13.662  0.00  0.00    +0.000 A 
ATOM     29  C   UNL     1       7.836   4.785  12.464  0.00  0.00    +0.000 A 
ATOM     30  C   UNL     1       6.988   3.825  11.910  0.00  0.00    +0.000 A 
ATOM     31  C   UNL     1       5.799   3.487  12.555  0.00  0.00    +0.000 A 
ATOM     32  C   UNL     1       5.446   4.125  13.745  0.00  0.00    +0.000 A 
ENDBRANCH  25  27
ENDBRANCH  22  25
ENDBRANCH   7  22
TORSDOF 7
ENDMDL
MODEL 4
REMARK VINA RESULT:      -7.7      7.165      9.365
REMARK  Name = 
REMARK  7 active torsions:
REMARK  status: ('A' for Active; 'I' for Inactive)
REMARK    1  A    between atoms: N_1  and  C_2
REMARK    2  A    between atoms: C_6  and  S_7
REMARK    3  A    between atoms: S_7  and  N_10
REMARK    4  A    between atoms: N_10  and  C_11
REMARK    5  A    between atoms: C_18  and  S_19
REMARK    6  A    between atoms: S_19  and  N_22
REMARK    7  A    between atoms: N_22  and  C_23
REMARK                            x       y       z     vdW  Elec       q    Type
REMARK                         _______ _______ _______ _____ _____    ______ ____
ROOT
ATOM      1  C   UNL     1      -0.686  12.050  18.193  0.00  0.00    +0.000 A 
ATOM      2  C   UNL     1       0.269  12.390  19.167  0.00  0.00    +0.000 A 
ATOM      3  C   UNL     1       0.543  11.577  20.276  0.00  0.00    +0.000 A 
ATOM      4 CL   UNL     1       1.712  12.195  21.383  0.00  0.00    +0.000 Cl
ATOM      5  C   UNL     1      -0.169  10.392  20.441  0.00  0.00    +0.000 A 
ATOM      6  C   UNL     1      -1.152  10.042  19.497  0.00  0.00    +0.000 A 
ATOM      7  C   UNL     1      -1.430  10.879  18.396  0.00  0.00    +0.000 A 
ENDROOT
BRANCH   1   8
ATOM      8  N   UNL     1      -0.955  13.010  17.218  0.00  0.00    +0.000 N 
ATOM      9  H   UNL     1      -0.603  13.947  17.387  0.00  0.00    +0.000 HD
ATOM     10  H   UNL     1      -0.821  12.721  16.247  0.00  0.00    +0.000 HD
ENDBRANCH   1   8
BRANCH   5  11
ATOM     11  S   UNL     1       0.132   9.270  21.795  0.00  0.00    +0.000 S 
ATOM     12  O   UNL     1       0.180  10.072  22.999  0.00  0.00    +0.000 OA
ATOM     13  O   UNL     1      -0.795   8.165  21.708  0.00  0.00    +0.000 OA
BRANCH  11  14
ATOM     14  N   UNL     1       1.674   8.660  21.473  0.00  0.00    +0.000 N 
ATOM     15  H   UNL     1       2.282   8.569  22.285  0.00  0.00    +0.000 HD
BRANCH  14  16
ATOM     16  C   UNL     1       1.835   7.762  20.385  0.00  0.00    +0.000 A 
ATOM     17  C   UNL     1       1.834   6.391  20.644  0.00  0.00    +0.000 A 
ATOM     18  C   UNL     1       2.092   5.486  19.614  0.00  0.00    +0.000 A 
ATOM     19  C   UNL     1       2.370   5.957  18.331  0.00  0.00    +0.000 A 
ATOM     20  C   UNL     1       2.358   7.328  18.072  0.00  0.00    +0.000 A 
ATOM     21  C   UNL     1       2.073   8.234  19.095  0.00  0.00    +0.000 A 
ENDBRANCH  14  16
ENDBRANCH  11  14
ENDBRANCH   5  11
BRANCH   7  22
ATOM     22  S   UNL     1      -2.798  10.406  17.333  0.00  0.00    +0.000 S 
ATOM     23  O   UNL     1      -2.277  10.323  15.983  0.00  0.00    +0.000 OA
ATOM     24  O   UNL     1      -3.498   9.294  17.931  0.00  0.00    +0.000 OA
BRANCH  22  25
ATOM     25  N   UNL     1      -3.811  11.766  17.358  0.00  0.00    +0.000 N 
ATOM     26  H   UNL     1      -3.295  12.627  17.182  0.00  0.00    +0.000 HD
BRANCH  25  27
ATOM     27  C   UNL     1      -4.842  11.805  18.336  0.00  0.00    +0.000 A 
ATOM     28  C   UNL     1      -4.581  12.373  19.582  0.00  0.00    +0.000 A 
ATOM     29  C   UNL     1      -5.535  12.283  20.596  0.00  0.00    +0.000 A 
ATOM     30  C   UNL     1      -6.751  11.643  20.359  0.00  0.00    +0.000 A 
ATOM     31  C   UNL     1      -7.019  11.095  19.105  0.00  0.00    +0.000 A 
ATOM     32  C   UNL     1      -6.061  11.168  18.093  0.00  0.00    +0.000 A 
ENDBRANCH  25  27
ENDBRANCH  22  25
ENDBRANCH   7  22
TORSDOF 7
ENDMDL
MODEL 5
REMARK VINA RESULT:      -7.6      5.076      8.020
REMARK  Name = 
REMARK  7 active torsions:
REMARK  status: ('A' for Active; 'I' for Inactive)
REMARK    1  A    between atoms: N_1  and  C_2
REMARK    2  A    between atoms: C_6  and  S_7
REMARK    3  A    between atoms: S_7  and  N_10
REMARK    4  A    between atoms: N_10  and  C_11
REMARK    5  A    between atoms: C_18  and  S_19
REMARK    6  A    between atoms: S_19  and  N_22
REMARK    7  A    between atoms: N_22  and  C_23
REMARK                            x       y       z     vdW  Elec       q    Type
REMARK                         _______ _______ _______ _____ _____    ______ ____
ROOT
ATOM      1  C   UNL     1       1.628   7.044  20.785  0.00  0.00    +0.000 A 
ATOM      2  C   UNL     1       0.918   7.828  21.710  0.00  0.00    +0.000 A 
ATOM      3  C   UNL     1       0.508   9.140  21.434  0.00  0.00    +0.000 A 
ATOM      4 CL   UNL     1      -0.308   9.952  22.718  0.00  0.00    +0.000 Cl
ATOM      5  C   UNL     1       0.830   9.708  20.205  0.00  0.00    +0.000 A 
ATOM      6  C   UNL     1       1.568   8.955  19.271  0.00  0.00    +0.000 A 
ATOM      7  C   UNL     1       1.990   7.643  19.570  0.00  0.00    +0.000 A 
ENDROOT
BRANCH   1   8
ATOM      8  N   UNL     1       2.092   5.808  21.237  0.00  0.00    +0.000 N 
ATOM      9  H   UNL     1       1.989   5.614  22.228  0.00  0.00    +0.000 HD
ATOM     10  H   UNL     1       1.855   4.998  20.662  0.00  0.00    +0.000 HD
ENDBRANCH   1   8
BRANCH   5  11
ATOM     11  S   UNL     1       0.322  11.354  19.742  0.00  0.00    +0.000 S 
ATOM     12  O   UNL     1       0.767  12.241  20.795  0.00  0.00    +0.000 OA
ATOM     13  O   UNL     1       0.724  11.606  18.377  0.00  0.00    +0.000 OA
BRANCH  11  14
ATOM     14  N   UNL     1      -1.365  11.271  19.761  0.00  0.00    +0.000 N 
ATOM     15  H   UNL     1      -1.817  11.824  20.488  0.00  0.00    +0.000 HD
BRANCH  14  16
ATOM     16  C   UNL     1      -2.048  11.047  18.537  0.00  0.00    +0.000 A 
ATOM     17  C   UNL     1      -3.211  11.773  18.278  0.00  0.00    +0.000 A 
ATOM     18  C   UNL     1      -3.961  11.504  17.132  0.00  0.00    +0.000 A 
ATOM     19  C   UNL     1      -3.556  10.496  16.260  0.00  0.00    +0.000 A 
ATOM     20  C   UNL     1      -2.385   9.779  16.514  0.00  0.00    +0.000 A 
ATOM     21  C   UNL     1      -1.619  10.066  17.645  0.00  0.00    +0.000 A 
ENDBRANCH  14  16
ENDBRANCH  11  14
ENDBRANCH   5  11
BRANCH   7  22
ATOM     22  S   UNL     1       3.042   6.828  18.365  0.00  0.00    +0.000 S 
ATOM     23  O   UNL     1       3.374   7.814  17.355  0.00  0.00    +0.000 OA
ATOM     24  O   UNL     1       4.074   6.095  19.058  0.00  0.00    +0.000 OA
BRANCH  22  25
ATOM     25  N   UNL     1       2.001   5.722  17.609  0.00  0.00    +0.000 N 
ATOM     26  H   UNL     1       1.036   6.051  17.605  0.00  0.00    +0.000 HD
BRANCH  25  27
ATOM     27  C   UNL     1       2.222   4.337  17.846  0.00  0.00    +0.000 A 
ATOM     28  C   UNL     1       1.371   3.646  18.706  0.00  0.00    +0.000 A 
ATOM     29  C   UNL     1       1.665   2.329  19.060  0.00  0.00    +0.000 A 
ATOM     30  C   UNL     1       2.799   1.702  18.541  0.00  0.00    +0.000 A 
ATOM     31  C   UNL     1       3.637   2.388  17.663  0.00  0.00    +0.000 A 
ATOM     32  C   UNL     1       3.354   3.711  17.320  0.00  0.00    +0.000 A 
ENDBRANCH  25  27
ENDBRANCH  22  25
ENDBRANCH   7  22
TORSDOF 7
ENDMDL
MODEL 6
REMARK VINA RESULT:      -7.5      3.257      7.733
REMARK  Name = 
REMARK  7 active torsions:
REMARK  status: ('A' for Active; 'I' for Inactive)
REMARK    1  A    between atoms: N_1  and  C_2
REMARK    2  A    between atoms: C_6  and  S_7
REMARK    3  A    between atoms: S_7  and  N_10
REMARK    4  A    between atoms: N_10  and  C_11
REMARK    5  A    between atoms: C_18  and  S_19
REMARK    6  A    between atoms: S_19  and  N_22
REMARK    7  A    between atoms: N_22  and  C_23
REMARK                            x       y       z     vdW  Elec       q    Type
REMARK                         _______ _______ _______ _____ _____    ______ ____
ROOT
ATOM      1  C   UNL     1       4.932   4.738  18.669  0.00  0.00    +0.000 A 
ATOM      2  C   UNL     1       3.827   4.898  19.523  0.00  0.00    +0.000 A 
ATOM      3  C   UNL     1       2.927   5.967  19.406  0.00  0.00    +0.000 A 
ATOM      4 CL   UNL     1       1.667   6.013  20.582  0.00  0.00    +0.000 Cl
ATOM      5  C   UNL     1       3.139   6.927  18.421  0.00  0.00    +0.000 A 
ATOM      6  C   UNL     1       4.255   6.808  17.571  0.00  0.00    +0.000 A 
ATOM      7  C   UNL     1       5.161   5.738  17.712  0.00  0.00    +0.000 A 
ENDROOT
BRANCH   1   8
ATOM      8  N   UNL     1       5.821   3.710  18.980  0.00  0.00    +0.000 N 
ATOM      9  H   UNL     1       6.077   3.605  19.957  0.00  0.00    +0.000 HD
ATOM     10  H   UNL     1       5.646   2.808  18.533  0.00  0.00    +0.000 HD
ENDBRANCH   1   8
BRANCH   5  11
ATOM     11  S   UNL     1       2.032   8.303  18.165  0.00  0.00    +0.000 S 
ATOM     12  O   UNL     1       2.824   9.380  17.613  0.00  0.00    +0.000 OA
ATOM     13  O   UNL     1       0.860   7.841  17.455  0.00  0.00    +0.000 OA
BRANCH  11  14
ATOM     14  N   UNL     1       1.542   8.718  19.727  0.00  0.00    +0.000 N 
ATOM     15  H   UNL     1       2.191   8.456  20.468  0.00  0.00    +0.000 HD
BRANCH  14  16
ATOM     16  C   UNL     1       0.722   9.864  19.900  0.00  0.00    +0.000 A 
ATOM     17  C   UNL     1       0.871  10.624  21.061  0.00  0.00    +0.000 A 
ATOM     18  C   UNL     1       0.012  11.695  21.308  0.00  0.00    +0.000 A 
ATOM     19  C   UNL     1      -1.006  11.991  20.403  0.00  0.00    +0.000 A 
ATOM     20  C   UNL     1      -1.145  11.238  19.236  0.00  0.00    +0.000 A 
ATOM     21  C   UNL     1      -0.269  10.183  18.973  0.00  0.00    +0.000 A 
ENDBRANCH  14  16
ENDBRANCH  11  14
ENDBRANCH   5  11
BRANCH   7  22
ATOM     22  S   UNL     1       6.622   5.760  16.669  0.00  0.00    +0.000 S 
ATOM     23  O   UNL     1       7.381   6.943  17.025  0.00  0.00    +0.000 OA
ATOM     24  O   UNL     1       7.233   4.452  16.682  0.00  0.00    +0.000 OA
BRANCH  22  25
ATOM     25  N   UNL     1       6.001   6.056  15.118  0.00  0.00    +0.000 N 
ATOM     26  H   UNL     1       5.068   6.465  15.155  0.00  0.00    +0.000 HD
BRANCH  25  27
ATOM     27  C   UNL     1       6.256   5.088  14.108  0.00  0.00    +0.000 A 
ATOM     28  C   UNL     1       7.397   5.210  13.317  0.00  0.00    +0.000 A 
ATOM     29  C   UNL     1       7.579   4.355  12.230  0.00  0.00    +0.000 A 
ATOM     30  C   UNL     1       6.631   3.371  11.947  0.00  0.00    +0.000 A 
ATOM     31  C   UNL     1       5.501   3.237  12.752  0.00  0.00    +0.000 A 
ATOM     32  C   UNL     1       5.307   4.102  13.831  0.00  0.00    +0.000 A 
ENDBRANCH  25  27
ENDBRANCH  22  25
ENDBRANCH   7  22
TORSDOF 7
ENDMDL
MODEL 7
REMARK VINA RESULT:      -7.3      2.205      7.095
REMARK  Name = 
REMARK  7 active torsions:
REMARK  status: ('A' for Active; 'I' for Inactive)
REMARK    1  A    between atoms: N_1  and  C_2
REMARK    2  A    between atoms: C_6  and  S_7
REMARK    3  A    between atoms: S_7  and  N_10
REMARK    4  A    between atoms: N_10  and  C_11
REMARK    5  A    between atoms: C_18  and  S_19
REMARK    6  A    between atoms: S_19  and  N_22
REMARK    7  A    between atoms: N_22  and  C_23
REMARK                            x       y       z     vdW  Elec       q    Type
REMARK                         _______ _______ _______ _____ _____    ______ ____
ROOT
ATOM      1  C   UNL     1       6.347   4.421  18.101  0.00  0.00    +0.000 A 
ATOM      2  C   UNL     1       5.677   3.713  19.113  0.00  0.00    +0.000 A 
ATOM      3  C   UNL     1       4.356   3.996  19.490  0.00  0.00    +0.000 A 
ATOM      4 CL   UNL     1       3.730   3.047  20.786  0.00  0.00    +0.000 Cl
ATOM      5  C   UNL     1       3.678   5.034  18.857  0.00  0.00    +0.000 A 
ATOM      6  C   UNL     1       4.335   5.780  17.861  0.00  0.00    +0.000 A 
ATOM      7  C   UNL     1       5.670   5.496  17.506  0.00  0.00    +0.000 A 
ENDROOT
BRANCH   1   8
ATOM      8  N   UNL     1       7.699   4.129  17.921  0.00  0.00    +0.000 N 
ATOM      9  H   UNL     1       8.022   4.028  16.964  0.00  0.00    +0.000 HD
ATOM     10  H   UNL     1       8.358   4.659  18.493  0.00  0.00    +0.000 HD
ENDBRANCH   1   8
BRANCH   5  11
ATOM     11  S   UNL     1       1.984   5.448  19.235  0.00  0.00    +0.000 S 
ATOM     12  O   UNL     1       1.354   5.813  17.984  0.00  0.00    +0.000 OA
ATOM     13  O   UNL     1       1.410   4.397  20.044  0.00  0.00    +0.000 OA
BRANCH  11  14
ATOM     14  N   UNL     1       2.117   6.820  20.211  0.00  0.00    +0.000 N 
ATOM     15  H   UNL     1       2.883   6.800  20.883  0.00  0.00    +0.000 HD
BRANCH  14  16
ATOM     16  C   UNL     1       1.686   8.068  19.690  0.00  0.00    +0.000 A 
ATOM     17  C   UNL     1       2.163   8.473  18.443  0.00  0.00    +0.000 A 
ATOM     18  C   UNL     1       1.840   9.737  17.949  0.00  0.00    +0.000 A 
ATOM     19  C   UNL     1       1.057  10.601  18.714  0.00  0.00    +0.000 A 
ATOM     20  C   UNL     1       0.570  10.189  19.956  0.00  0.00    +0.000 A 
ATOM     21  C   UNL     1       0.869   8.914  20.439  0.00  0.00    +0.000 A 
ENDBRANCH  14  16
ENDBRANCH  11  14
ENDBRANCH   5  11
BRANCH   7  22
ATOM     22  S   UNL     1       6.455   6.598  16.325  0.00  0.00    +0.000 S 
ATOM     23  O   UNL     1       5.441   6.982  15.363  0.00  0.00    +0.000 OA
ATOM     24  O   UNL     1       7.217   7.593  17.041  0.00  0.00    +0.000 OA
BRANCH  22  25
ATOM     25  N   UNL     1       7.530   5.586  15.488  0.00  0.00    +0.000 N 
ATOM     26  H   UNL     1       8.480   5.954  15.495  0.00  0.00    +0.000 HD
BRANCH  25  27
ATOM     27  C   UNL     1       7.068   4.982  14.286  0.00  0.00    +0.000 A 
ATOM     28  C   UNL     1       6.038   4.045  14.344  0.00  0.00    +0.000 A 
ATOM     29  C   UNL     1       5.680   3.339  13.196  0.00  0.00    +0.000 A 
ATOM     30  C   UNL     1       6.340   3.582  11.990  0.00  0.00    +0.000 A 
ATOM     31  C   UNL     1       7.356   4.535  11.930  0.00  0.00    +0.000 A 
ATOM     32  C   UNL     1       7.727   5.231  13.081  0.00  0.00    +0.000 A 
ENDBRANCH  25  27
ENDBRANCH  22  25
ENDBRANCH   7  22
TORSDOF 7
ENDMDL
MODEL 8
REMARK VINA RESULT:      -7.3      4.795      7.680
REMARK  Name = 
REMARK  7 active torsions:
REMARK  status: ('A' for Active; 'I' for Inactive)
REMARK    1  A    between atoms: N_1  and  C_2
REMARK    2  A    between atoms: C_6  and  S_7
REMARK    3  A    between atoms: S_7  and  N_10
REMARK    4  A    between atoms: N_10  and  C_11
REMARK    5  A    between atoms: C_18  and  S_19
REMARK    6  A    between atoms: S_19  and  N_22
REMARK    7  A    between atoms: N_22  and  C_23
REMARK                            x       y       z     vdW  Elec       q    Type
REMARK                         _______ _______ _______ _____ _____    ______ ____
ROOT
ATOM      1  C   UNL     1       2.202   6.359  20.430  0.00  0.00    +0.000 A 
ATOM      2  C   UNL     1       1.284   7.032  21.254  0.00  0.00    +0.000 A 
ATOM      3  C   UNL     1       0.727   8.273  20.912  0.00  0.00    +0.000 A 
ATOM      4 CL   UNL     1      -0.340   8.959  22.080  0.00  0.00    +0.000 Cl
ATOM      5  C   UNL     1       1.107   8.882  19.719  0.00  0.00    +0.000 A 
ATOM      6  C   UNL     1       2.048   8.243  18.889  0.00  0.00    +0.000 A 
ATOM      7  C   UNL     1       2.614   7.004  19.255  0.00  0.00    +0.000 A 
ENDROOT
BRANCH   1   8
ATOM      8  N   UNL     1       2.780   5.201  20.951  0.00  0.00    +0.000 N 
ATOM      9  H   UNL     1       2.284   4.330  20.793  0.00  0.00    +0.000 HD
ATOM     10  H   UNL     1       3.787   5.098  20.817  0.00  0.00    +0.000 HD
ENDBRANCH   1   8
BRANCH   5  11
ATOM     11  S   UNL     1       0.428  10.439  19.174  0.00  0.00    +0.000 S 
ATOM     12  O   UNL     1       0.825  11.432  20.149  0.00  0.00    +0.000 OA
ATOM     13  O   UNL     1       0.755  10.635  17.780  0.00  0.00    +0.000 OA
BRANCH  11  14
ATOM     14  N   UNL     1      -1.241  10.202  19.271  0.00  0.00    +0.000 N 
ATOM     15  H   UNL     1      -1.645  10.340  20.196  0.00  0.00    +0.000 HD
BRANCH  14  16
ATOM     16  C   UNL     1      -2.033  10.472  18.124  0.00  0.00    +0.000 A 
ATOM     17  C   UNL     1      -3.076  11.392  18.233  0.00  0.00    +0.000 A 
ATOM     18  C   UNL     1      -3.936  11.603  17.154  0.00  0.00    +0.000 A 
ATOM     19  C   UNL     1      -3.761  10.879  15.976  0.00  0.00    +0.000 A 
ATOM     20  C   UNL     1      -2.709   9.969  15.864  0.00  0.00    +0.000 A 
ATOM     21  C   UNL     1      -1.831   9.776  16.933  0.00  0.00    +0.000 A 
ENDBRANCH  14  16
ENDBRANCH  11  14
ENDBRANCH   5  11
BRANCH   7  22
ATOM     22  S   UNL     1       3.904   6.349  18.193  0.00  0.00    +0.000 S 
ATOM     23  O   UNL     1       4.287   7.411  17.283  0.00  0.00    +0.000 OA
ATOM     24  O   UNL     1       4.889   5.674  19.005  0.00  0.00    +0.000 OA
BRANCH  22  25
ATOM     25  N   UNL     1       3.096   5.196  17.246  0.00  0.00    +0.000 N 
ATOM     26  H   UNL     1       2.450   5.631  16.589  0.00  0.00    +0.000 HD
BRANCH  25  27
ATOM     27  C   UNL     1       2.677   3.995  17.882  0.00  0.00    +0.000 A 
ATOM     28  C   UNL     1       3.603   2.975  18.095  0.00  0.00    +0.000 A 
ATOM     29  C   UNL     1       3.173   1.740  18.580  0.00  0.00    +0.000 A 
ATOM     30  C   UNL     1       1.823   1.533  18.867  0.00  0.00    +0.000 A 
ATOM     31  C   UNL     1       0.901   2.561  18.673  0.00  0.00    +0.000 A 
ATOM     32  C   UNL     1       1.326   3.792  18.172  0.00  0.00    +0.000 A 
ENDBRANCH  25  27
ENDBRANCH  22  25
ENDBRANCH   7  22
TORSDOF 7
ENDMDL
MODEL 9
REMARK VINA RESULT:      -7.3      5.103      7.993
REMARK  Name = 
REMARK  7 active torsions:
REMARK  status: ('A' for Active; 'I' for Inactive)
REMARK    1  A    between atoms: N_1  and  C_2
REMARK    2  A    between atoms: C_6  and  S_7
REMARK    3  A    between atoms: S_7  and  N_10
REMARK    4  A    between atoms: N_10  and  C_11
REMARK    5  A    between atoms: C_18  and  S_19
REMARK    6  A    between atoms: S_19  and  N_22
REMARK    7  A    between atoms: N_22  and  C_23
REMARK                            x       y       z     vdW  Elec       q    Type
REMARK                         _______ _______ _______ _____ _____    ______ ____
ROOT
ATOM      1  C   UNL     1       1.611   7.259  20.743  0.00  0.00    +0.000 A 
ATOM      2  C   UNL     1       0.955   8.135  21.625  0.00  0.00    +0.000 A 
ATOM      3  C   UNL     1       0.644   9.460  21.286  0.00  0.00    +0.000 A 
ATOM      4 CL   UNL     1      -0.117  10.387  22.525  0.00  0.00    +0.000 Cl
ATOM      5  C   UNL     1       1.013   9.945  20.035  0.00  0.00    +0.000 A 
ATOM      6  C   UNL     1       1.698   9.098  19.143  0.00  0.00    +0.000 A 
ATOM      7  C   UNL     1       2.021   7.774  19.505  0.00  0.00    +0.000 A 
ENDROOT
BRANCH   1   8
ATOM      8  N   UNL     1       1.981   6.016  21.254  0.00  0.00    +0.000 N 
ATOM      9  H   UNL     1       1.970   5.233  20.608  0.00  0.00    +0.000 HD
ATOM     10  H   UNL     1       2.804   6.000  21.858  0.00  0.00    +0.000 HD
ENDBRANCH   1   8
BRANCH   5  11
ATOM     11  S   UNL     1       0.628  11.600  19.493  0.00  0.00    +0.000 S 
ATOM     12  O   UNL     1      -0.341  12.131  20.427  0.00  0.00    +0.000 OA
ATOM     13  O   UNL     1       1.860  12.318  19.256  0.00  0.00    +0.000 OA
BRANCH  11  14
ATOM     14  N   UNL     1      -0.115  11.367  17.994  0.00  0.00    +0.000 N 
ATOM     15  H   UNL     1       0.493  11.006  17.261  0.00  0.00    +0.000 HD
BRANCH  14  16
ATOM     16  C   UNL     1      -1.498  11.048  17.965  0.00  0.00    +0.000 A 
ATOM     17  C   UNL     1      -1.907   9.907  17.274  0.00  0.00    +0.000 A 
ATOM     18  C   UNL     1      -3.266   9.622  17.139  0.00  0.00    +0.000 A 
ATOM     19  C   UNL     1      -4.213  10.491  17.679  0.00  0.00    +0.000 A 
ATOM     20  C   UNL     1      -3.802  11.625  18.381  0.00  0.00    +0.000 A 
ATOM     21  C   UNL     1      -2.442  11.897  18.541  0.00  0.00    +0.000 A 
ENDBRANCH  14  16
ENDBRANCH  11  14
ENDBRANCH   5  11
BRANCH   7  22
ATOM     22  S   UNL     1       3.017   6.830  18.347  0.00  0.00    +0.000 S 
ATOM     23  O   UNL     1       3.378   7.727  17.267  0.00  0.00    +0.000 OA
ATOM     24  O   UNL     1       4.025   6.099  19.077  0.00  0.00    +0.000 OA
BRANCH  22  25
ATOM     25  N   UNL     1       1.916   5.724  17.682  0.00  0.00    +0.000 N 
ATOM     26  H   UNL     1       0.972   6.106  17.640  0.00  0.00    +0.000 HD
BRANCH  25  27
ATOM     27  C   UNL     1       2.054   4.355  18.043  0.00  0.00    +0.000 A 
ATOM     28  C   UNL     1       2.956   3.552  17.348  0.00  0.00    +0.000 A 
ATOM     29  C   UNL     1       2.993   2.180  17.593  0.00  0.00    +0.000 A 
ATOM     30  C   UNL     1       2.140   1.615  18.542  0.00  0.00    +0.000 A 
ATOM     31  C   UNL     1       1.253   2.423  19.252  0.00  0.00    +0.000 A 
ATOM     32  C   UNL     1       1.203   3.795  18.998  0.00  0.00    +0.000 A 
ENDBRANCH  25  27
ENDBRANCH  22  25
ENDBRANCH   7  22
TORSDOF 7
ENDMDL
