MODEL 1
REMARK VINA RESULT:      -8.4      0.000      0.000
REMARK  Name = 
REMARK  4 active torsions:
REMARK  status: ('A' for Active; 'I' for Inactive)
REMARK    1  A    between atoms: C_4  and  C_5
REMARK    2  A    between atoms: C_9  and  O_10
REMARK    3  A    between atoms: O_10  and  C_11
REMARK    4  A    between atoms: C_16  and  C_17
REMARK                            x       y       z     vdW  Elec       q    Type
REMARK                         _______ _______ _______ _____ _____    ______ ____
ROOT
ATOM      1  O   UNL     1       0.612  11.811  19.322  0.00  0.00    +0.000 OA
ENDROOT
BRANCH   1   6
ATOM      2  C   UNL     1      -4.422  13.021  21.825  0.00  0.00    +0.000 A 
ATOM      3  N   UNL     1      -3.141  13.080  22.163  0.00  0.00    +0.000 NA
ATOM      4  C   UNL     1      -2.484  12.643  21.039  0.00  0.00    +0.000 A 
ATOM      5  C   UNL     1      -1.120  12.474  20.770  0.00  0.00    +0.000 A 
ATOM      6  C   UNL     1      -0.744  11.990  19.504  0.00  0.00    +0.000 A 
ATOM      7  C   UNL     1      -1.715  11.639  18.552  0.00  0.00    +0.000 A 
ATOM      8  C   UNL     1      -3.080  11.837  18.794  0.00  0.00    +0.000 A 
ATOM      9  C   UNL     1      -3.401  12.332  20.051  0.00  0.00    +0.000 A 
ATOM     10  O   UNL     1      -4.646  12.581  20.540  0.00  0.00    +0.000 OA
BRANCH   2  14
ATOM     11  C   UNL     1      -7.871  13.864  24.087  0.00  0.00    +0.000 A 
ATOM     12  C   UNL     1      -6.906  14.855  23.953  0.00  0.00    +0.000 A 
ATOM     13  C   UNL     1      -5.757  14.594  23.209  0.00  0.00    +0.000 A 
ATOM     14  C   UNL     1      -5.611  13.343  22.618  0.00  0.00    +0.000 A 
ATOM     15  N   UNL     1      -6.546  12.363  22.742  0.00  0.00    +0.000 NA
ATOM     16  C   UNL     1      -7.648  12.645  23.470  0.00  0.00    +0.000 A 
ENDBRANCH   2  14
ENDBRANCH   1   6
BRANCH   1  17
ATOM     17  C   UNL     1       1.128  10.563  19.039  0.00  0.00    +0.000 A 
ATOM     18  C   UNL     1       1.779  10.230  17.839  0.00  0.00    +0.000 A 
ATOM     19  C   UNL     1       2.279   8.942  17.613  0.00  0.00    +0.000 A 
ATOM     20  C   UNL     1       2.149   8.050  18.668  0.00  0.00    +0.000 A 
ATOM     21  O   UNL     1       2.570   6.760  18.704  0.00  0.00    +0.000 OA
ATOM     22  C   UNL     1       2.229   6.329  19.965  0.00  0.00    +0.000 A 
ATOM     23  N   UNL     1       1.625   7.246  20.709  0.00  0.00    +0.000 NA
ATOM     24  C   UNL     1       1.565   8.347  19.887  0.00  0.00    +0.000 A 
ATOM     25  C   UNL     1       1.038   9.631  20.088  0.00  0.00    +0.000 A 
BRANCH  22  26
ATOM     26  C   UNL     1       2.576   4.943  20.290  0.00  0.00    +0.000 A 
ATOM     27  C   UNL     1       1.839   4.225  21.228  0.00  0.00    +0.000 A 
ATOM     28  C   UNL     1       2.197   2.903  21.493  0.00  0.00    +0.000 A 
ATOM     29  C   UNL     1       3.275   2.340  20.822  0.00  0.00    +0.000 A 
ATOM     30  C   UNL     1       3.958   3.125  19.907  0.00  0.00    +0.000 A 
ATOM     31  N   UNL     1       3.634   4.407  19.628  0.00  0.00    +0.000 NA
ENDBRANCH  22  26
ENDBRANCH   1  17
TORSDOF 4
ENDMDL
MODEL 2
REMARK VINA RESULT:      -8.4      8.446     10.489
REMARK  Name = 
REMARK  4 active torsions:
REMARK  status: ('A' for Active; 'I' for Inactive)
REMARK    1  A    between atoms: C_4  and  C_5
REMARK    2  A    between atoms: C_9  and  O_10
REMARK    3  A    between atoms: O_10  and  C_11
REMARK    4  A    between atoms: C_16  and  C_17
REMARK                            x       y       z     vdW  Elec       q    Type
REMARK                         _______ _______ _______ _____ _____    ______ ____
ROOT
ATOM      1  O   UNL     1       8.223   8.697  17.218  0.00  0.00    +0.000 OA
ENDROOT
BRANCH   1   6
ATOM      2  C   UNL     1       8.995  14.158  18.847  0.00  0.00    +0.000 A 
ATOM      3  N   UNL     1       8.474  13.531  17.801  0.00  0.00    +0.000 NA
ATOM      4  C   UNL     1       8.618  12.200  18.109  0.00  0.00    +0.000 A 
ATOM      5  C   UNL     1       8.269  11.042  17.404  0.00  0.00    +0.000 A 
ATOM      6  C   UNL     1       8.559   9.794  17.984  0.00  0.00    +0.000 A 
ATOM      7  C   UNL     1       9.227   9.712  19.217  0.00  0.00    +0.000 A 
ATOM      8  C   UNL     1       9.551  10.861  19.949  0.00  0.00    +0.000 A 
ATOM      9  C   UNL     1       9.229  12.069  19.344  0.00  0.00    +0.000 A 
ATOM     10  O   UNL     1       9.465  13.318  19.830  0.00  0.00    +0.000 OA
BRANCH   2  14
ATOM     11  C   UNL     1       9.463  18.266  19.633  0.00  0.00    +0.000 A 
ATOM     12  C   UNL     1       8.954  17.881  18.399  0.00  0.00    +0.000 A 
ATOM     13  C   UNL     1       8.793  16.525  18.120  0.00  0.00    +0.000 A 
ATOM     14  C   UNL     1       9.147  15.594  19.091  0.00  0.00    +0.000 A 
ATOM     15  N   UNL     1       9.647  15.957  20.303  0.00  0.00    +0.000 NA
ATOM     16  C   UNL     1       9.793  17.278  20.544  0.00  0.00    +0.000 A 
ENDBRANCH   2  14
ENDBRANCH   1   6
BRANCH   1  17
ATOM     17  C   UNL     1       7.580   7.612  17.780  0.00  0.00    +0.000 A 
ATOM     18  C   UNL     1       8.168   6.742  18.713  0.00  0.00    +0.000 A 
ATOM     19  C   UNL     1       7.461   5.656  19.245  0.00  0.00    +0.000 A 
ATOM     20  C   UNL     1       6.138   5.542  18.843  0.00  0.00    +0.000 A 
ATOM     21  O   UNL     1       5.243   4.597  19.231  0.00  0.00    +0.000 OA
ATOM     22  C   UNL     1       4.084   4.941  18.576  0.00  0.00    +0.000 A 
ATOM     23  N   UNL     1       4.190   6.018  17.809  0.00  0.00    +0.000 NA
ATOM     24  C   UNL     1       5.499   6.406  17.969  0.00  0.00    +0.000 A 
ATOM     25  C   UNL     1       6.229   7.470  17.419  0.00  0.00    +0.000 A 
BRANCH  22  26
ATOM     26  C   UNL     1       2.925   4.077  18.818  0.00  0.00    +0.000 A 
ATOM     27  C   UNL     1       1.967   4.418  19.770  0.00  0.00    +0.000 A 
ATOM     28  C   UNL     1       0.874   3.573  19.953  0.00  0.00    +0.000 A 
ATOM     29  C   UNL     1       0.769   2.416  19.190  0.00  0.00    +0.000 A 
ATOM     30  C   UNL     1       1.767   2.148  18.269  0.00  0.00    +0.000 A 
ATOM     31  N   UNL     1       2.838   2.948  18.067  0.00  0.00    +0.000 NA
ENDBRANCH  22  26
ENDBRANCH   1  17
TORSDOF 4
ENDMDL
MODEL 3
REMARK VINA RESULT:      -8.3      8.412     11.932
REMARK  Name = 
REMARK  4 active torsions:
REMARK  status: ('A' for Active; 'I' for Inactive)
REMARK    1  A    between atoms: C_4  and  C_5
REMARK    2  A    between atoms: C_9  and  O_10
REMARK    3  A    between atoms: O_10  and  C_11
REMARK    4  A    between atoms: C_16  and  C_17
REMARK                            x       y       z     vdW  Elec       q    Type
REMARK                         _______ _______ _______ _____ _____    ______ ____
ROOT
ATOM      1  O   UNL     1       8.225   8.718  17.225  0.00  0.00    +0.000 OA
ENDROOT
BRANCH   1   6
ATOM      2  C   UNL     1       4.081   4.975  18.597  0.00  0.00    +0.000 A 
ATOM      3  N   UNL     1       4.193   6.044  17.820  0.00  0.00    +0.000 NA
ATOM      4  C   UNL     1       5.503   6.426  17.973  0.00  0.00    +0.000 A 
ATOM      5  C   UNL     1       6.230   7.487  17.418  0.00  0.00    +0.000 A 
ATOM      6  C   UNL     1       7.581   7.631  17.778  0.00  0.00    +0.000 A 
ATOM      7  C   UNL     1       8.173   6.762  18.709  0.00  0.00    +0.000 A 
ATOM      8  C   UNL     1       7.469   5.676  19.244  0.00  0.00    +0.000 A 
ATOM      9  C   UNL     1       6.144   5.565  18.846  0.00  0.00    +0.000 A 
ATOM     10  O   UNL     1       5.244   4.625  19.243  0.00  0.00    +0.000 OA
BRANCH   2  14
ATOM     11  C   UNL     1       0.743   2.509  19.301  0.00  0.00    +0.000 A 
ATOM     12  C   UNL     1       0.903   3.647  20.082  0.00  0.00    +0.000 A 
ATOM     13  C   UNL     1       2.004   4.475  19.864  0.00  0.00    +0.000 A 
ATOM     14  C   UNL     1       2.910   4.137  18.865  0.00  0.00    +0.000 A 
ATOM     15  N   UNL     1       2.767   3.025  18.095  0.00  0.00    +0.000 NA
ATOM     16  C   UNL     1       1.693   2.241  18.330  0.00  0.00    +0.000 A 
ENDBRANCH   2  14
ENDBRANCH   1   6
BRANCH   1  17
ATOM     17  C   UNL     1       8.561   9.810  17.999  0.00  0.00    +0.000 A 
ATOM     18  C   UNL     1       9.164   9.726  19.265  0.00  0.00    +0.000 A 
ATOM     19  C   UNL     1       9.478  10.874  20.002  0.00  0.00    +0.000 A 
ATOM     20  C   UNL     1       9.217  12.084  19.375  0.00  0.00    +0.000 A 
ATOM     21  O   UNL     1       9.452  13.329  19.867  0.00  0.00    +0.000 OA
ATOM     22  C   UNL     1       9.046  14.172  18.859  0.00  0.00    +0.000 A 
ATOM     23  N   UNL     1       8.575  13.551  17.786  0.00  0.00    +0.000 NA
ATOM     24  C   UNL     1       8.675  12.218  18.108  0.00  0.00    +0.000 A 
ATOM     25  C   UNL     1       8.335  11.059  17.394  0.00  0.00    +0.000 A 
BRANCH  22  26
ATOM     26  C   UNL     1       9.192  15.606  19.119  0.00  0.00    +0.000 A 
ATOM     27  C   UNL     1       8.532  16.545  18.330  0.00  0.00    +0.000 A 
ATOM     28  C   UNL     1       8.688  17.899  18.626  0.00  0.00    +0.000 A 
ATOM     29  C   UNL     1       9.496  18.276  19.692  0.00  0.00    +0.000 A 
ATOM     30  C   UNL     1      10.121  17.279  20.424  0.00  0.00    +0.000 A 
ATOM     31  N   UNL     1       9.987  15.960  20.163  0.00  0.00    +0.000 NA
ENDBRANCH  22  26
ENDBRANCH   1  17
TORSDOF 4
ENDMDL
MODEL 4
REMARK VINA RESULT:      -8.3      1.023     10.583
REMARK  Name = 
REMARK  4 active torsions:
REMARK  status: ('A' for Active; 'I' for Inactive)
REMARK    1  A    between atoms: C_4  and  C_5
REMARK    2  A    between atoms: C_9  and  O_10
REMARK    3  A    between atoms: O_10  and  C_11
REMARK    4  A    between atoms: C_16  and  C_17
REMARK                            x       y       z     vdW  Elec       q    Type
REMARK                         _______ _______ _______ _____ _____    ______ ____
ROOT
ATOM      1  O   UNL     1       0.958  11.236  20.341  0.00  0.00    +0.000 OA
ENDROOT
BRANCH   1   6
ATOM      2  C   UNL     1       2.425   5.818  19.089  0.00  0.00    +0.000 A 
ATOM      3  N   UNL     1       1.979   6.472  20.153  0.00  0.00    +0.000 NA
ATOM      4  C   UNL     1       1.827   7.762  19.706  0.00  0.00    +0.000 A 
ATOM      5  C   UNL     1       1.396   8.924  20.358  0.00  0.00    +0.000 A 
ATOM      6  C   UNL     1       1.355  10.124  19.626  0.00  0.00    +0.000 A 
ATOM      7  C   UNL     1       1.784  10.166  18.289  0.00  0.00    +0.000 A 
ATOM      8  C   UNL     1       2.184   9.006  17.615  0.00  0.00    +0.000 A 
ATOM      9  C   UNL     1       2.191   7.842  18.373  0.00  0.00    +0.000 A 
ATOM     10  O   UNL     1       2.565   6.600  17.965  0.00  0.00    +0.000 OA
BRANCH   2  14
ATOM     11  C   UNL     1       3.534   1.771  18.756  0.00  0.00    +0.000 A 
ATOM     12  C   UNL     1       2.600   2.279  17.860  0.00  0.00    +0.000 A 
ATOM     13  C   UNL     1       2.220   3.617  17.956  0.00  0.00    +0.000 A 
ATOM     14  C   UNL     1       2.791   4.407  18.949  0.00  0.00    +0.000 A 
ATOM     15  N   UNL     1       3.704   3.922  19.833  0.00  0.00    +0.000 NA
ATOM     16  C   UNL     1       4.052   2.623  19.716  0.00  0.00    +0.000 A 
ENDBRANCH   2  14
ENDBRANCH   1   6
BRANCH   1  17
ATOM     17  C   UNL     1      -0.366  11.624  20.365  0.00  0.00    +0.000 A 
ATOM     18  C   UNL     1      -1.210  11.627  19.243  0.00  0.00    +0.000 A 
ATOM     19  C   UNL     1      -2.546  12.036  19.334  0.00  0.00    +0.000 A 
ATOM     20  C   UNL     1      -2.989  12.369  20.606  0.00  0.00    +0.000 A 
ATOM     21  O   UNL     1      -4.238  12.771  20.959  0.00  0.00    +0.000 OA
ATOM     22  C   UNL     1      -4.163  12.950  22.320  0.00  0.00    +0.000 A 
ATOM     23  N   UNL     1      -2.969  12.697  22.838  0.00  0.00    +0.000 NA
ATOM     24  C   UNL     1      -2.211  12.330  21.751  0.00  0.00    +0.000 A 
ATOM     25  C   UNL     1      -0.866  11.951  21.639  0.00  0.00    +0.000 A 
BRANCH  22  26
ATOM     26  C   UNL     1      -5.394  13.388  22.983  0.00  0.00    +0.000 A 
ATOM     27  C   UNL     1      -5.564  14.716  23.365  0.00  0.00    +0.000 A 
ATOM     28  C   UNL     1      -6.760  15.090  23.978  0.00  0.00    +0.000 A 
ATOM     29  C   UNL     1      -7.744  14.134  24.194  0.00  0.00    +0.000 A 
ATOM     30  C   UNL     1      -7.494  12.834  23.787  0.00  0.00    +0.000 A 
ATOM     31  N   UNL     1      -6.347  12.441  23.190  0.00  0.00    +0.000 NA
ENDBRANCH  22  26
ENDBRANCH   1  17
TORSDOF 4
ENDMDL
MODEL 5
REMARK VINA RESULT:      -8.3      1.479     10.574
REMARK  Name = 
REMARK  4 active torsions:
REMARK  status: ('A' for Active; 'I' for Inactive)
REMARK    1  A    between atoms: C_4  and  C_5
REMARK    2  A    between atoms: C_9  and  O_10
REMARK    3  A    between atoms: O_10  and  C_11
REMARK    4  A    between atoms: C_16  and  C_17
REMARK                            x       y       z     vdW  Elec       q    Type
REMARK                         _______ _______ _______ _____ _____    ______ ____
ROOT
ATOM      1  O   UNL     1       1.098  11.264  20.404  0.00  0.00    +0.000 OA
ENDROOT
BRANCH   1   6
ATOM      2  C   UNL     1       2.373   5.811  19.095  0.00  0.00    +0.000 A 
ATOM      3  N   UNL     1       2.105   6.499  20.197  0.00  0.00    +0.000 NA
ATOM      4  C   UNL     1       1.873   7.774  19.742  0.00  0.00    +0.000 A 
ATOM      5  C   UNL     1       1.548   8.955  20.420  0.00  0.00    +0.000 A 
ATOM      6  C   UNL     1       1.379  10.131  19.668  0.00  0.00    +0.000 A 
ATOM      7  C   UNL     1       1.580  10.131  18.278  0.00  0.00    +0.000 A 
ATOM      8  C   UNL     1       1.870   8.950  17.583  0.00  0.00    +0.000 A 
ATOM      9  C   UNL     1       2.010   7.812  18.365  0.00  0.00    +0.000 A 
ATOM     10  O   UNL     1       2.319   6.557  17.940  0.00  0.00    +0.000 OA
BRANCH   2  14
ATOM     11  C   UNL     1       3.444   1.760  18.700  0.00  0.00    +0.000 A 
ATOM     12  C   UNL     1       2.286   2.204  18.074  0.00  0.00    +0.000 A 
ATOM     13  C   UNL     1       1.914   3.542  18.195  0.00  0.00    +0.000 A 
ATOM     14  C   UNL     1       2.720   4.397  18.940  0.00  0.00    +0.000 A 
ATOM     15  N   UNL     1       3.855   3.975  19.559  0.00  0.00    +0.000 NA
ATOM     16  C   UNL     1       4.188   2.674  19.426  0.00  0.00    +0.000 A 
ENDBRANCH   2  14
ENDBRANCH   1   6
BRANCH   1  17
ATOM     17  C   UNL     1       0.021  11.299  21.266  0.00  0.00    +0.000 A 
ATOM     18  C   UNL     1      -0.072  10.540  22.444  0.00  0.00    +0.000 A 
ATOM     19  C   UNL     1      -1.195  10.619  23.277  0.00  0.00    +0.000 A 
ATOM     20  C   UNL     1      -2.165  11.536  22.896  0.00  0.00    +0.000 A 
ATOM     21  O   UNL     1      -3.327  11.815  23.543  0.00  0.00    +0.000 OA
ATOM     22  C   UNL     1      -3.910  12.800  22.780  0.00  0.00    +0.000 A 
ATOM     23  N   UNL     1      -3.206  13.149  21.712  0.00  0.00    +0.000 NA
ATOM     24  C   UNL     1      -2.093  12.345  21.775  0.00  0.00    +0.000 A 
ATOM     25  C   UNL     1      -0.978  12.231  20.932  0.00  0.00    +0.000 A 
BRANCH  22  26
ATOM     26  C   UNL     1      -5.201  13.304  23.255  0.00  0.00    +0.000 A 
ATOM     27  C   UNL     1      -5.423  14.671  23.399  0.00  0.00    +0.000 A 
ATOM     28  C   UNL     1      -6.673  15.105  23.838  0.00  0.00    +0.000 A 
ATOM     29  C   UNL     1      -7.660  14.168  24.123  0.00  0.00    +0.000 A 
ATOM     30  C   UNL     1      -7.355  12.828  23.958  0.00  0.00    +0.000 A 
ATOM     31  N   UNL     1      -6.154  12.376  23.532  0.00  0.00    +0.000 NA
ENDBRANCH  22  26
ENDBRANCH   1  17
TORSDOF 4
ENDMDL
MODEL 6
REMARK VINA RESULT:      -8.3      3.951     11.713
REMARK  Name = 
REMARK  4 active torsions:
REMARK  status: ('A' for Active; 'I' for Inactive)
REMARK    1  A    between atoms: C_4  and  C_5
REMARK    2  A    between atoms: C_9  and  O_10
REMARK    3  A    between atoms: O_10  and  C_11
REMARK    4  A    between atoms: C_16  and  C_17
REMARK                            x       y       z     vdW  Elec       q    Type
REMARK                         _______ _______ _______ _____ _____    ______ ____
ROOT
ATOM      1  O   UNL     1       2.608   6.423  20.264  0.00  0.00    +0.000 OA
ENDROOT
BRANCH   1   6
ATOM      2  C   UNL     1       5.315   4.803  15.455  0.00  0.00    +0.000 A 
ATOM      3  N   UNL     1       5.290   5.880  16.229  0.00  0.00    +0.000 NA
ATOM      4  C   UNL     1       4.414   5.545  17.232  0.00  0.00    +0.000 A 
ATOM      5  C   UNL     1       3.963   6.262  18.347  0.00  0.00    +0.000 A 
ATOM      6  C   UNL     1       3.038   5.645  19.208  0.00  0.00    +0.000 A 
ATOM      7  C   UNL     1       2.542   4.361  18.929  0.00  0.00    +0.000 A 
ATOM      8  C   UNL     1       3.010   3.619  17.838  0.00  0.00    +0.000 A 
ATOM      9  C   UNL     1       3.935   4.262  17.027  0.00  0.00    +0.000 A 
ATOM     10  O   UNL     1       4.515   3.774  15.897  0.00  0.00    +0.000 OA
BRANCH   2  14
ATOM     11  C   UNL     1       7.502   4.179  11.913  0.00  0.00    +0.000 A 
ATOM     12  C   UNL     1       6.355   3.423  12.127  0.00  0.00    +0.000 A 
ATOM     13  C   UNL     1       5.619   3.615  13.295  0.00  0.00    +0.000 A 
ATOM     14  C   UNL     1       6.055   4.564  14.214  0.00  0.00    +0.000 A 
ATOM     15  N   UNL     1       7.176   5.309  14.019  0.00  0.00    +0.000 NA
ATOM     16  C   UNL     1       7.870   5.100  12.879  0.00  0.00    +0.000 A 
ENDBRANCH   2  14
ENDBRANCH   1   6
BRANCH   1  17
ATOM     17  C   UNL     1       1.941   7.610  20.042  0.00  0.00    +0.000 A 
ATOM     18  C   UNL     1       1.924   8.289  18.812  0.00  0.00    +0.000 A 
ATOM     19  C   UNL     1       1.228   9.494  18.653  0.00  0.00    +0.000 A 
ATOM     20  C   UNL     1       0.510   9.927  19.759  0.00  0.00    +0.000 A 
ATOM     21  O   UNL     1      -0.258  11.043  19.849  0.00  0.00    +0.000 OA
ATOM     22  C   UNL     1      -0.764  11.002  21.128  0.00  0.00    +0.000 A 
ATOM     23  N   UNL     1      -0.367   9.954  21.837  0.00  0.00    +0.000 NA
ATOM     24  C   UNL     1       0.451   9.264  20.973  0.00  0.00    +0.000 A 
ATOM     25  C   UNL     1       1.181   8.077  21.129  0.00  0.00    +0.000 A 
BRANCH  22  26
ATOM     26  C   UNL     1      -1.650  12.105  21.508  0.00  0.00    +0.000 A 
ATOM     27  C   UNL     1      -2.027  12.292  22.835  0.00  0.00    +0.000 A 
ATOM     28  C   UNL     1      -2.859  13.365  23.151  0.00  0.00    +0.000 A 
ATOM     29  C   UNL     1      -3.291  14.215  22.140  0.00  0.00    +0.000 A 
ATOM     30  C   UNL     1      -2.873  13.957  20.846  0.00  0.00    +0.000 A 
ATOM     31  N   UNL     1      -2.066  12.926  20.508  0.00  0.00    +0.000 NA
ENDBRANCH  22  26
ENDBRANCH   1  17
TORSDOF 4
ENDMDL
MODEL 7
REMARK VINA RESULT:      -8.3      3.939     11.662
REMARK  Name = 
REMARK  4 active torsions:
REMARK  status: ('A' for Active; 'I' for Inactive)
REMARK    1  A    between atoms: C_4  and  C_5
REMARK    2  A    between atoms: C_9  and  O_10
REMARK    3  A    between atoms: O_10  and  C_11
REMARK    4  A    between atoms: C_16  and  C_17
REMARK                            x       y       z     vdW  Elec       q    Type
REMARK                         _______ _______ _______ _____ _____    ______ ____
ROOT
ATOM      1  O   UNL     1       2.470   6.556  20.391  0.00  0.00    +0.000 OA
ENDROOT
BRANCH   1   6
ATOM      2  C   UNL     1       5.217   4.920  15.612  0.00  0.00    +0.000 A 
ATOM      3  N   UNL     1       5.286   5.937  16.460  0.00  0.00    +0.000 NA
ATOM      4  C   UNL     1       4.318   5.653  17.393  0.00  0.00    +0.000 A 
ATOM      5  C   UNL     1       3.900   6.347  18.535  0.00  0.00    +0.000 A 
ATOM      6  C   UNL     1       2.857   5.801  19.303  0.00  0.00    +0.000 A 
ATOM      7  C   UNL     1       2.217   4.615  18.907  0.00  0.00    +0.000 A 
ATOM      8  C   UNL     1       2.649   3.892  17.788  0.00  0.00    +0.000 A 
ATOM      9  C   UNL     1       3.692   4.461  17.071  0.00  0.00    +0.000 A 
ATOM     10  O   UNL     1       4.268   3.978  15.938  0.00  0.00    +0.000 OA
BRANCH   2  14
ATOM     11  C   UNL     1       7.499   4.262  12.136  0.00  0.00    +0.000 A 
ATOM     12  C   UNL     1       6.327   3.535  12.308  0.00  0.00    +0.000 A 
ATOM     13  C   UNL     1       5.559   3.738  13.454  0.00  0.00    +0.000 A 
ATOM     14  C   UNL     1       5.990   4.669  14.393  0.00  0.00    +0.000 A 
ATOM     15  N   UNL     1       7.135   5.387  14.238  0.00  0.00    +0.000 NA
ATOM     16  C   UNL     1       7.859   5.167  13.120  0.00  0.00    +0.000 A 
ENDBRANCH   2  14
ENDBRANCH   1   6
BRANCH   1  17
ATOM     17  C   UNL     1       1.877   7.790  20.221  0.00  0.00    +0.000 A 
ATOM     18  C   UNL     1       1.693   8.413  18.976  0.00  0.00    +0.000 A 
ATOM     19  C   UNL     1       1.084   9.670  18.871  0.00  0.00    +0.000 A 
ATOM     20  C   UNL     1       0.622  10.218  20.059  0.00  0.00    +0.000 A 
ATOM     21  O   UNL     1      -0.018  11.405  20.218  0.00  0.00    +0.000 OA
ATOM     22  C   UNL     1      -0.281  11.469  21.566  0.00  0.00    +0.000 A 
ATOM     23  N   UNL     1       0.149  10.420  22.255  0.00  0.00    +0.000 NA
ATOM     24  C   UNL     1       0.732   9.618  21.302  0.00  0.00    +0.000 A 
ATOM     25  C   UNL     1       1.373   8.375  21.396  0.00  0.00    +0.000 A 
BRANCH  22  26
ATOM     26  C   UNL     1      -0.984  12.667  22.032  0.00  0.00    +0.000 A 
ATOM     27  C   UNL     1      -2.075  13.173  21.329  0.00  0.00    +0.000 A 
ATOM     28  C   UNL     1      -2.721  14.306  21.819  0.00  0.00    +0.000 A 
ATOM     29  C   UNL     1      -2.263  14.903  22.987  0.00  0.00    +0.000 A 
ATOM     30  C   UNL     1      -1.169  14.340  23.623  0.00  0.00    +0.000 A 
ATOM     31  N   UNL     1      -0.522  13.241  23.174  0.00  0.00    +0.000 NA
ENDBRANCH  22  26
ENDBRANCH   1  17
TORSDOF 4
ENDMDL
MODEL 8
REMARK VINA RESULT:      -8.3      0.343     10.364
REMARK  Name = 
REMARK  4 active torsions:
REMARK  status: ('A' for Active; 'I' for Inactive)
REMARK    1  A    between atoms: C_4  and  C_5
REMARK    2  A    between atoms: C_9  and  O_10
REMARK    3  A    between atoms: O_10  and  C_11
REMARK    4  A    between atoms: C_16  and  C_17
REMARK                            x       y       z     vdW  Elec       q    Type
REMARK                         _______ _______ _______ _____ _____    ______ ____
ROOT
ATOM      1  O   UNL     1       0.635  11.688  19.658  0.00  0.00    +0.000 OA
ENDROOT
BRANCH   1   6
ATOM      2  C   UNL     1       2.232   6.171  19.948  0.00  0.00    +0.000 A 
ATOM      3  N   UNL     1       1.725   7.070  20.780  0.00  0.00    +0.000 NA
ATOM      4  C   UNL     1       1.579   8.193  20.002  0.00  0.00    +0.000 A 
ATOM      5  C   UNL     1       1.101   9.474  20.304  0.00  0.00    +0.000 A 
ATOM      6  C   UNL     1       1.081  10.438  19.281  0.00  0.00    +0.000 A 
ATOM      7  C   UNL     1       1.575  10.137  18.000  0.00  0.00    +0.000 A 
ATOM      8  C   UNL     1       2.022   8.851  17.675  0.00  0.00    +0.000 A 
ATOM      9  C   UNL     1       2.007   7.929  18.713  0.00  0.00    +0.000 A 
ATOM     10  O   UNL     1       2.417   6.632  18.664  0.00  0.00    +0.000 OA
BRANCH   2  14
ATOM     11  C   UNL     1       3.422   2.189  20.616  0.00  0.00    +0.000 A 
ATOM     12  C   UNL     1       2.332   2.683  21.323  0.00  0.00    +0.000 A 
ATOM     13  C   UNL     1       1.924   4.000  21.116  0.00  0.00    +0.000 A 
ATOM     14  C   UNL     1       2.622   4.782  20.201  0.00  0.00    +0.000 A 
ATOM     15  N   UNL     1       3.691   4.312  19.504  0.00  0.00    +0.000 NA
ATOM     16  C   UNL     1       4.064   3.033  19.727  0.00  0.00    +0.000 A 
ENDBRANCH   2  14
ENDBRANCH   1   6
BRANCH   1  17
ATOM     17  C   UNL     1      -0.715  11.948  19.783  0.00  0.00    +0.000 A 
ATOM     18  C   UNL     1      -1.656  11.756  18.758  0.00  0.00    +0.000 A 
ATOM     19  C   UNL     1      -3.013  12.042  18.950  0.00  0.00    +0.000 A 
ATOM     20  C   UNL     1      -3.368  12.459  20.225  0.00  0.00    +0.000 A 
ATOM     21  O   UNL     1      -4.613  12.773  20.667  0.00  0.00    +0.000 OA
ATOM     22  C   UNL     1      -4.431  13.095  21.991  0.00  0.00    +0.000 A 
ATOM     23  N   UNL     1      -3.173  13.011  22.404  0.00  0.00    +0.000 NA
ATOM     24  C   UNL     1      -2.486  12.611  21.282  0.00  0.00    +0.000 A 
ATOM     25  C   UNL     1      -1.125  12.352  21.066  0.00  0.00    +0.000 A 
BRANCH  22  26
ATOM     26  C   UNL     1      -5.634  13.478  22.734  0.00  0.00    +0.000 A 
ATOM     27  C   UNL     1      -6.104  14.789  22.704  0.00  0.00    +0.000 A 
ATOM     28  C   UNL     1      -7.262  15.103  23.414  0.00  0.00    +0.000 A 
ATOM     29  C   UNL     1      -7.913  14.108  24.133  0.00  0.00    +0.000 A 
ATOM     30  C   UNL     1      -7.377  12.831  24.115  0.00  0.00    +0.000 A 
ATOM     31  N   UNL     1      -6.258  12.495  23.435  0.00  0.00    +0.000 NA
ENDBRANCH  22  26
ENDBRANCH   1  17
TORSDOF 4
ENDMDL
MODEL 9
REMARK VINA RESULT:      -8.3      8.363     10.492
REMARK  Name = 
REMARK  4 active torsions:
REMARK  status: ('A' for Active; 'I' for Inactive)
REMARK    1  A    between atoms: C_4  and  C_5
REMARK    2  A    between atoms: C_9  and  O_10
REMARK    3  A    between atoms: O_10  and  C_11
REMARK    4  A    between atoms: C_16  and  C_17
REMARK                            x       y       z     vdW  Elec       q    Type
REMARK                         _______ _______ _______ _____ _____    ______ ____
ROOT
ATOM      1  O   UNL     1       8.240   8.683  17.228  0.00  0.00    +0.000 OA
ENDROOT
BRANCH   1   6
ATOM      2  C   UNL     1       8.979  14.152  18.845  0.00  0.00    +0.000 A 
ATOM      3  N   UNL     1       8.462  13.519  17.800  0.00  0.00    +0.000 NA
ATOM      4  C   UNL     1       8.614  12.190  18.112  0.00  0.00    +0.000 A 
ATOM      5  C   UNL     1       8.272  11.028  17.409  0.00  0.00    +0.000 A 
ATOM      6  C   UNL     1       8.569   9.784  17.992  0.00  0.00    +0.000 A 
ATOM      7  C   UNL     1       9.237   9.708  19.225  0.00  0.00    +0.000 A 
ATOM      8  C   UNL     1       9.553  10.861  19.955  0.00  0.00    +0.000 A 
ATOM      9  C   UNL     1       9.225  12.065  19.348  0.00  0.00    +0.000 A 
ATOM     10  O   UNL     1       9.453  13.316  19.831  0.00  0.00    +0.000 OA
BRANCH   2  14
ATOM     11  C   UNL     1       9.340  18.299  19.466  0.00  0.00    +0.000 A 
ATOM     12  C   UNL     1       9.957  17.438  20.365  0.00  0.00    +0.000 A 
ATOM     13  C   UNL     1       9.847  16.061  20.176  0.00  0.00    +0.000 A 
ATOM     14  C   UNL     1       9.122  15.589  19.087  0.00  0.00    +0.000 A 
ATOM     15  N   UNL     1       8.512  16.421  18.201  0.00  0.00    +0.000 NA
ATOM     16  C   UNL     1       8.634  17.749  18.410  0.00  0.00    +0.000 A 
ENDBRANCH   2  14
ENDBRANCH   1   6
BRANCH   1  17
ATOM     17  C   UNL     1       7.585   7.605  17.787  0.00  0.00    +0.000 A 
ATOM     18  C   UNL     1       8.161   6.726  18.718  0.00  0.00    +0.000 A 
ATOM     19  C   UNL     1       7.441   5.647  19.247  0.00  0.00    +0.000 A 
ATOM     20  C   UNL     1       6.117   5.549  18.844  0.00  0.00    +0.000 A 
ATOM     21  O   UNL     1       5.212   4.613  19.229  0.00  0.00    +0.000 OA
ATOM     22  C   UNL     1       4.057   4.971  18.574  0.00  0.00    +0.000 A 
ATOM     23  N   UNL     1       4.176   6.049  17.809  0.00  0.00    +0.000 NA
ATOM     24  C   UNL     1       5.489   6.422  17.971  0.00  0.00    +0.000 A 
ATOM     25  C   UNL     1       6.232   7.478  17.424  0.00  0.00    +0.000 A 
BRANCH  22  26
ATOM     26  C   UNL     1       2.888   4.120  18.812  0.00  0.00    +0.000 A 
ATOM     27  C   UNL     1       2.694   2.953  18.079  0.00  0.00    +0.000 A 
ATOM     28  C   UNL     1       1.576   2.167  18.353  0.00  0.00    +0.000 A 
ATOM     29  C   UNL     1       0.685   2.567  19.342  0.00  0.00    +0.000 A 
ATOM     30  C   UNL     1       0.949   3.745  20.021  0.00  0.00    +0.000 A 
ATOM     31  N   UNL     1       2.025   4.526  19.780  0.00  0.00    +0.000 NA
ENDBRANCH  22  26
ENDBRANCH   1  17
TORSDOF 4
ENDMDL
