MODEL 1
REMARK VINA RESULT:      -8.0      0.000      0.000
REMARK  Name = 
REMARK  4 active torsions:
REMARK  status: ('A' for Active; 'I' for Inactive)
REMARK    1  A    between atoms: C_2  and  C_3
REMARK    2  A    between atoms: C_3  and  N_4
REMARK    3  A    between atoms: C_7  and  C_8
REMARK    4  A    between atoms: N_16  and  C_17
REMARK                            x       y       z     vdW  Elec       q    Type
REMARK                         _______ _______ _______ _____ _____    ______ ____
ROOT
ATOM      1  C   UNL     1       7.885   7.071  18.412  0.00  0.00    +0.000 C 
ENDROOT
BRANCH   1   2
ATOM      2  N   UNL     1       7.225   6.405  17.262  0.00  0.00    +0.000 NA
ATOM      3  C   UNL     1       7.293   4.944  17.355  0.00  0.00    +0.000 C 
ATOM      4  C   UNL     1       6.599   4.242  16.184  0.00  0.00    +0.000 C 
ATOM      5  C   UNL     1       5.150   4.719  16.004  0.00  0.00    +0.000 C 
ATOM      6  C   UNL     1       5.163   6.247  15.871  0.00  0.00    +0.000 C 
ATOM      7  C   UNL     1       5.859   6.914  17.060  0.00  0.00    +0.000 C 
BRANCH   5   8
ATOM      8  C   UNL     1       4.199   4.255  17.096  0.00  0.00    +0.000 A 
ATOM      9  N   UNL     1       3.288   5.121  17.586  0.00  0.00    +0.000 NA
ATOM     10  C   UNL     1       2.446   4.657  18.527  0.00  0.00    +0.000 A 
ATOM     11  C   UNL     1       2.488   3.374  19.014  0.00  0.00    +0.000 A 
ATOM     12  C   UNL     1       3.464   2.574  18.476  0.00  0.00    +0.000 A 
ATOM     13  N   UNL     1       4.327   2.984  17.527  0.00  0.00    +0.000 NA
ENDBRANCH   5   8
ENDBRANCH   1   2
BRANCH   1  15
ATOM     14  O   UNL     1       7.930   9.106  17.111  0.00  0.00    +0.000 OA
ATOM     15  C   UNL     1       8.281   8.536  18.143  0.00  0.00    +0.000 C 
ATOM     16  N   UNL     1       9.047   9.101  19.150  0.00  0.00    +0.000 N 
ATOM     17  H   UNL     1       9.399   8.485  19.876  0.00  0.00    +0.000 HD
BRANCH  16  18
ATOM     18  C   UNL     1       9.470  10.447  19.238  0.00  0.00    +0.000 A 
ATOM     19  C   UNL     1       9.884  11.205  18.139  0.00  0.00    +0.000 A 
ATOM     20  C   UNL     1      10.328  12.519  18.318  0.00  0.00    +0.000 A 
ATOM     21  C   UNL     1      10.353  13.074  19.592  0.00  0.00    +0.000 A 
ATOM     22  F   UNL     1      10.803  14.326  19.756  0.00  0.00    +0.000 F 
ATOM     23  C   UNL     1       9.913  12.355  20.693  0.00  0.00    +0.000 A 
ATOM     24  C   UNL     1       9.465  11.053  20.503  0.00  0.00    +0.000 A 
ATOM     25  F   UNL     1       9.043  10.351  21.569  0.00  0.00    +0.000 F 
ENDBRANCH  16  18
ENDBRANCH   1  15
TORSDOF 4
ENDMDL
MODEL 2
REMARK VINA RESULT:      -7.7      5.040      7.207
REMARK  Name = 
REMARK  4 active torsions:
REMARK  status: ('A' for Active; 'I' for Inactive)
REMARK    1  A    between atoms: C_2  and  C_3
REMARK    2  A    between atoms: C_3  and  N_4
REMARK    3  A    between atoms: C_7  and  C_8
REMARK    4  A    between atoms: N_16  and  C_17
REMARK                            x       y       z     vdW  Elec       q    Type
REMARK                         _______ _______ _______ _____ _____    ______ ____
ROOT
ATOM      1  C   UNL     1       3.101   6.818  17.847  0.00  0.00    +0.000 C 
ENDROOT
BRANCH   1   2
ATOM      2  N   UNL     1       4.494   6.351  18.054  0.00  0.00    +0.000 NA
ATOM      3  C   UNL     1       4.616   4.896  17.919  0.00  0.00    +0.000 C 
ATOM      4  C   UNL     1       6.052   4.402  18.112  0.00  0.00    +0.000 C 
ATOM      5  C   UNL     1       7.041   5.129  17.188  0.00  0.00    +0.000 C 
ATOM      6  C   UNL     1       6.886   6.638  17.417  0.00  0.00    +0.000 C 
ATOM      7  C   UNL     1       5.441   7.097  17.210  0.00  0.00    +0.000 C 
BRANCH   5   8
ATOM      8  C   UNL     1       6.909   4.763  15.718  0.00  0.00    +0.000 A 
ATOM      9  N   UNL     1       6.056   3.782  15.360  0.00  0.00    +0.000 NA
ATOM     10  C   UNL     1       5.947   3.516  14.046  0.00  0.00    +0.000 A 
ATOM     11  C   UNL     1       6.668   4.171  13.078  0.00  0.00    +0.000 A 
ATOM     12  C   UNL     1       7.529   5.134  13.540  0.00  0.00    +0.000 A 
ATOM     13  N   UNL     1       7.671   5.447  14.842  0.00  0.00    +0.000 NA
ENDBRANCH   5   8
ENDBRANCH   1   2
BRANCH   1  15
ATOM     14  O   UNL     1       2.228   6.255  20.027  0.00  0.00    +0.000 OA
ATOM     15  C   UNL     1       2.339   7.114  19.153  0.00  0.00    +0.000 C 
ATOM     16  N   UNL     1       1.815   8.394  19.217  0.00  0.00    +0.000 N 
ATOM     17  H   UNL     1       1.840   8.957  18.372  0.00  0.00    +0.000 HD
BRANCH  16  18
ATOM     18  C   UNL     1       1.162   8.988  20.320  0.00  0.00    +0.000 A 
ATOM     19  C   UNL     1       1.452   8.680  21.653  0.00  0.00    +0.000 A 
ATOM     20  C   UNL     1       0.729   9.284  22.687  0.00  0.00    +0.000 A 
ATOM     21  C   UNL     1      -0.275  10.196  22.390  0.00  0.00    +0.000 A 
ATOM     22  F   UNL     1      -0.978  10.751  23.388  0.00  0.00    +0.000 F 
ATOM     23  C   UNL     1      -0.557  10.546  21.078  0.00  0.00    +0.000 A 
ATOM     24  C   UNL     1       0.172   9.948  20.057  0.00  0.00    +0.000 A 
ATOM     25  F   UNL     1      -0.101  10.281  18.784  0.00  0.00    +0.000 F 
ENDBRANCH  16  18
ENDBRANCH   1  15
TORSDOF 4
ENDMDL
MODEL 3
REMARK VINA RESULT:      -7.6      0.993      1.679
REMARK  Name = 
REMARK  4 active torsions:
REMARK  status: ('A' for Active; 'I' for Inactive)
REMARK    1  A    between atoms: C_2  and  C_3
REMARK    2  A    between atoms: C_3  and  N_4
REMARK    3  A    between atoms: C_7  and  C_8
REMARK    4  A    between atoms: N_16  and  C_17
REMARK                            x       y       z     vdW  Elec       q    Type
REMARK                         _______ _______ _______ _____ _____    ______ ____
ROOT
ATOM      1  C   UNL     1       8.092   7.169  18.455  0.00  0.00    +0.000 C 
ENDROOT
BRANCH   1   2
ATOM      2  N   UNL     1       7.322   6.587  17.328  0.00  0.00    +0.000 NA
ATOM      3  C   UNL     1       7.372   5.122  17.321  0.00  0.00    +0.000 C 
ATOM      4  C   UNL     1       6.566   4.507  16.174  0.00  0.00    +0.000 C 
ATOM      5  C   UNL     1       5.116   5.012  16.153  0.00  0.00    +0.000 C 
ATOM      6  C   UNL     1       5.145   6.545  16.116  0.00  0.00    +0.000 C 
ATOM      7  C   UNL     1       5.954   7.125  17.279  0.00  0.00    +0.000 C 
BRANCH   5   8
ATOM      8  C   UNL     1       4.255   4.490  17.293  0.00  0.00    +0.000 A 
ATOM      9  N   UNL     1       4.616   3.351  17.919  0.00  0.00    +0.000 NA
ATOM     10  C   UNL     1       3.843   2.945  18.943  0.00  0.00    +0.000 A 
ATOM     11  C   UNL     1       2.717   3.614  19.353  0.00  0.00    +0.000 A 
ATOM     12  C   UNL     1       2.415   4.746  18.640  0.00  0.00    +0.000 A 
ATOM     13  N   UNL     1       3.157   5.202  17.613  0.00  0.00    +0.000 NA
ENDBRANCH   5   8
ENDBRANCH   1   2
BRANCH   1  15
ATOM     14  O   UNL     1       7.596   9.366  17.581  0.00  0.00    +0.000 OA
ATOM     15  C   UNL     1       8.259   8.699  18.375  0.00  0.00    +0.000 C 
ATOM     16  N   UNL     1       9.203   9.204  19.253  0.00  0.00    +0.000 N 
ATOM     17  H   UNL     1       9.792   8.540  19.746  0.00  0.00    +0.000 HD
BRANCH  16  18
ATOM     18  C   UNL     1       9.501  10.566  19.484  0.00  0.00    +0.000 A 
ATOM     19  C   UNL     1       9.218  11.231  20.681  0.00  0.00    +0.000 A 
ATOM     20  C   UNL     1       9.508  12.593  20.814  0.00  0.00    +0.000 A 
ATOM     21  C   UNL     1      10.084  13.286  19.756  0.00  0.00    +0.000 A 
ATOM     22  F   UNL     1      10.335  14.596  19.885  0.00  0.00    +0.000 F 
ATOM     23  C   UNL     1      10.408  12.640  18.572  0.00  0.00    +0.000 A 
ATOM     24  C   UNL     1      10.125  11.285  18.453  0.00  0.00    +0.000 A 
ATOM     25  F   UNL     1      10.433  10.657  17.305  0.00  0.00    +0.000 F 
ENDBRANCH  16  18
ENDBRANCH   1  15
TORSDOF 4
ENDMDL
MODEL 4
REMARK VINA RESULT:      -7.6      4.948      6.929
REMARK  Name = 
REMARK  4 active torsions:
REMARK  status: ('A' for Active; 'I' for Inactive)
REMARK    1  A    between atoms: C_2  and  C_3
REMARK    2  A    between atoms: C_3  and  N_4
REMARK    3  A    between atoms: C_7  and  C_8
REMARK    4  A    between atoms: N_16  and  C_17
REMARK                            x       y       z     vdW  Elec       q    Type
REMARK                         _______ _______ _______ _____ _____    ______ ____
ROOT
ATOM      1  C   UNL     1       3.910   4.672  19.388  0.00  0.00    +0.000 C 
ENDROOT
BRANCH   1   2
ATOM      2  N   UNL     1       5.096   5.419  18.901  0.00  0.00    +0.000 NA
ATOM      3  C   UNL     1       6.253   4.543  18.690  0.00  0.00    +0.000 C 
ATOM      4  C   UNL     1       7.480   5.298  18.169  0.00  0.00    +0.000 C 
ATOM      5  C   UNL     1       7.162   6.111  16.905  0.00  0.00    +0.000 C 
ATOM      6  C   UNL     1       5.973   7.031  17.215  0.00  0.00    +0.000 C 
ATOM      7  C   UNL     1       4.766   6.243  17.727  0.00  0.00    +0.000 C 
BRANCH   5   8
ATOM      8  C   UNL     1       6.915   5.267  15.664  0.00  0.00    +0.000 A 
ATOM      9  N   UNL     1       5.985   4.291  15.708  0.00  0.00    +0.000 NA
ATOM     10  C   UNL     1       5.778   3.593  14.577  0.00  0.00    +0.000 A 
ATOM     11  C   UNL     1       6.473   3.812  13.414  0.00  0.00    +0.000 A 
ATOM     12  C   UNL     1       7.416   4.807  13.472  0.00  0.00    +0.000 A 
ATOM     13  N   UNL     1       7.658   5.542  14.574  0.00  0.00    +0.000 NA
ENDBRANCH   5   8
ENDBRANCH   1   2
BRANCH   1  15
ATOM     14  O   UNL     1       1.519   5.006  19.316  0.00  0.00    +0.000 OA
ATOM     15  C   UNL     1       2.626   5.520  19.470  0.00  0.00    +0.000 C 
ATOM     16  N   UNL     1       2.859   6.863  19.720  0.00  0.00    +0.000 N 
ATOM     17  H   UNL     1       3.819   7.191  19.675  0.00  0.00    +0.000 HD
BRANCH  16  18
ATOM     18  C   UNL     1       1.887   7.862  19.952  0.00  0.00    +0.000 A 
ATOM     19  C   UNL     1       1.174   7.990  21.148  0.00  0.00    +0.000 A 
ATOM     20  C   UNL     1       0.198   8.983  21.282  0.00  0.00    +0.000 A 
ATOM     21  C   UNL     1      -0.061   9.847  20.226  0.00  0.00    +0.000 A 
ATOM     22  F   UNL     1      -1.016  10.779  20.356  0.00  0.00    +0.000 F 
ATOM     23  C   UNL     1       0.657   9.763  19.042  0.00  0.00    +0.000 A 
ATOM     24  C   UNL     1       1.632   8.779  18.922  0.00  0.00    +0.000 A 
ATOM     25  F   UNL     1       2.326   8.693  17.775  0.00  0.00    +0.000 F 
ENDBRANCH  16  18
ENDBRANCH   1  15
TORSDOF 4
ENDMDL
MODEL 5
REMARK VINA RESULT:      -7.6      6.923      9.729
REMARK  Name = 
REMARK  4 active torsions:
REMARK  status: ('A' for Active; 'I' for Inactive)
REMARK    1  A    between atoms: C_2  and  C_3
REMARK    2  A    between atoms: C_3  and  N_4
REMARK    3  A    between atoms: C_7  and  C_8
REMARK    4  A    between atoms: N_16  and  C_17
REMARK                            x       y       z     vdW  Elec       q    Type
REMARK                         _______ _______ _______ _____ _____    ______ ____
ROOT
ATOM      1  C   UNL     1       0.868   9.763  22.387  0.00  0.00    +0.000 C 
ENDROOT
BRANCH   1   2
ATOM      2  N   UNL     1       0.511  11.028  21.699  0.00  0.00    +0.000 NA
ATOM      3  C   UNL     1       1.015  11.070  20.322  0.00  0.00    +0.000 C 
ATOM      4  C   UNL     1       0.638  12.363  19.593  0.00  0.00    +0.000 C 
ATOM      5  C   UNL     1      -0.874  12.629  19.639  0.00  0.00    +0.000 C 
ATOM      6  C   UNL     1      -1.318  12.613  21.107  0.00  0.00    +0.000 C 
ATOM      7  C   UNL     1      -0.930  11.306  21.802  0.00  0.00    +0.000 C 
BRANCH   5   8
ATOM      8  C   UNL     1      -1.703  11.681  18.787  0.00  0.00    +0.000 A 
ATOM      9  N   UNL     1      -1.074  10.758  18.031  0.00  0.00    +0.000 NA
ATOM     10  C   UNL     1      -1.848   9.918  17.319  0.00  0.00    +0.000 A 
ATOM     11  C   UNL     1      -3.219   9.975  17.314  0.00  0.00    +0.000 A 
ATOM     12  C   UNL     1      -3.769  10.963  18.092  0.00  0.00    +0.000 A 
ATOM     13  N   UNL     1      -3.042  11.823  18.829  0.00  0.00    +0.000 NA
ENDBRANCH   5   8
ENDBRANCH   1   2
BRANCH   1  15
ATOM     14  O   UNL     1      -0.483   8.089  21.287  0.00  0.00    +0.000 OA
ATOM     15  C   UNL     1       0.652   8.501  21.530  0.00  0.00    +0.000 C 
ATOM     16  N   UNL     1       1.827   7.913  21.093  0.00  0.00    +0.000 N 
ATOM     17  H   UNL     1       2.699   8.256  21.485  0.00  0.00    +0.000 HD
BRANCH  16  18
ATOM     18  C   UNL     1       1.949   6.815  20.211  0.00  0.00    +0.000 A 
ATOM     19  C   UNL     1       1.672   5.494  20.573  0.00  0.00    +0.000 A 
ATOM     20  C   UNL     1       1.858   4.459  19.650  0.00  0.00    +0.000 A 
ATOM     21  C   UNL     1       2.316   4.746  18.370  0.00  0.00    +0.000 A 
ATOM     22  F   UNL     1       2.515   3.744  17.502  0.00  0.00    +0.000 F 
ATOM     23  C   UNL     1       2.564   6.052  17.976  0.00  0.00    +0.000 A 
ATOM     24  C   UNL     1       2.367   7.075  18.897  0.00  0.00    +0.000 A 
ATOM     25  F   UNL     1       2.610   8.341  18.520  0.00  0.00    +0.000 F 
ENDBRANCH  16  18
ENDBRANCH   1  15
TORSDOF 4
ENDMDL
MODEL 6
REMARK VINA RESULT:      -7.5      5.732      7.739
REMARK  Name = 
REMARK  4 active torsions:
REMARK  status: ('A' for Active; 'I' for Inactive)
REMARK    1  A    between atoms: C_2  and  C_3
REMARK    2  A    between atoms: C_3  and  N_4
REMARK    3  A    between atoms: C_7  and  C_8
REMARK    4  A    between atoms: N_16  and  C_17
REMARK                            x       y       z     vdW  Elec       q    Type
REMARK                         _______ _______ _______ _____ _____    ______ ____
ROOT
ATOM      1  C   UNL     1       2.473   7.448  19.199  0.00  0.00    +0.000 C 
ENDROOT
BRANCH   1   2
ATOM      2  N   UNL     1       2.671   5.981  19.098  0.00  0.00    +0.000 NA
ATOM      3  C   UNL     1       2.341   5.468  17.765  0.00  0.00    +0.000 C 
ATOM      4  C   UNL     1       2.558   3.957  17.641  0.00  0.00    +0.000 C 
ATOM      5  C   UNL     1       3.977   3.544  18.059  0.00  0.00    +0.000 C 
ATOM      6  C   UNL     1       4.233   4.077  19.475  0.00  0.00    +0.000 C 
ATOM      7  C   UNL     1       4.011   5.589  19.560  0.00  0.00    +0.000 C 
BRANCH   5   8
ATOM      8  C   UNL     1       5.066   3.974  17.088  0.00  0.00    +0.000 A 
ATOM      9  N   UNL     1       6.286   4.291  17.567  0.00  0.00    +0.000 NA
ATOM     10  C   UNL     1       7.227   4.634  16.668  0.00  0.00    +0.000 A 
ATOM     11  C   UNL     1       6.995   4.695  15.317  0.00  0.00    +0.000 A 
ATOM     12  C   UNL     1       5.719   4.382  14.925  0.00  0.00    +0.000 A 
ATOM     13  N   UNL     1       4.742   4.024  15.780  0.00  0.00    +0.000 NA
ENDBRANCH   5   8
ENDBRANCH   1   2
BRANCH   1  15
ATOM     14  O   UNL     1       1.200   7.093  21.221  0.00  0.00    +0.000 OA
ATOM     15  C   UNL     1       1.506   7.874  20.321  0.00  0.00    +0.000 C 
ATOM     16  N   UNL     1       1.041   9.173  20.195  0.00  0.00    +0.000 N 
ATOM     17  H   UNL     1       1.244   9.664  19.330  0.00  0.00    +0.000 HD
BRANCH  16  18
ATOM     18  C   UNL     1       0.233   9.876  21.116  0.00  0.00    +0.000 A 
ATOM     19  C   UNL     1       0.065   9.496  22.451  0.00  0.00    +0.000 A 
ATOM     20  C   UNL     1      -0.788  10.224  23.288  0.00  0.00    +0.000 A 
ATOM     21  C   UNL     1      -1.465  11.331  22.792  0.00  0.00    +0.000 A 
ATOM     22  F   UNL     1      -2.299  12.008  23.596  0.00  0.00    +0.000 F 
ATOM     23  C   UNL     1      -1.288  11.750  21.482  0.00  0.00    +0.000 A 
ATOM     24  C   UNL     1      -0.431  11.025  20.661  0.00  0.00    +0.000 A 
ATOM     25  F   UNL     1      -0.260  11.425  19.390  0.00  0.00    +0.000 F 
ENDBRANCH  16  18
ENDBRANCH   1  15
TORSDOF 4
ENDMDL
MODEL 7
REMARK VINA RESULT:      -7.5      3.252      9.345
REMARK  Name = 
REMARK  4 active torsions:
REMARK  status: ('A' for Active; 'I' for Inactive)
REMARK    1  A    between atoms: C_2  and  C_3
REMARK    2  A    between atoms: C_3  and  N_4
REMARK    3  A    between atoms: C_7  and  C_8
REMARK    4  A    between atoms: N_16  and  C_17
REMARK                            x       y       z     vdW  Elec       q    Type
REMARK                         _______ _______ _______ _____ _____    ______ ____
ROOT
ATOM      1  C   UNL     1       8.291  10.018  17.927  0.00  0.00    +0.000 C 
ENDROOT
BRANCH   1   2
ATOM      2  N   UNL     1       9.492  10.451  18.684  0.00  0.00    +0.000 NA
ATOM      3  C   UNL     1      10.425  11.216  17.851  0.00  0.00    +0.000 C 
ATOM      4  C   UNL     1      11.661  11.685  18.625  0.00  0.00    +0.000 C 
ATOM      5  C   UNL     1      11.284  12.464  19.894  0.00  0.00    +0.000 C 
ATOM      6  C   UNL     1      10.345  11.587  20.731  0.00  0.00    +0.000 C 
ATOM      7  C   UNL     1       9.120  11.141  19.929  0.00  0.00    +0.000 C 
BRANCH   5   8
ATOM      8  C   UNL     1      10.689  13.839  19.631  0.00  0.00    +0.000 A 
ATOM      9  N   UNL     1      10.993  14.477  18.482  0.00  0.00    +0.000 NA
ATOM     10  C   UNL     1      10.417  15.676  18.278  0.00  0.00    +0.000 A 
ATOM     11  C   UNL     1       9.571  16.273  19.179  0.00  0.00    +0.000 A 
ATOM     12  C   UNL     1       9.342  15.561  20.329  0.00  0.00    +0.000 A 
ATOM     13  N   UNL     1       9.885  14.355  20.581  0.00  0.00    +0.000 NA
ENDBRANCH   5   8
ENDBRANCH   1   2
BRANCH   1  15
ATOM     14  O   UNL     1       8.621   7.794  18.809  0.00  0.00    +0.000 OA
ATOM     15  C   UNL     1       8.008   8.506  18.015  0.00  0.00    +0.000 C 
ATOM     16  N   UNL     1       7.035   8.068  17.132  0.00  0.00    +0.000 N 
ATOM     17  H   UNL     1       6.713   8.721  16.423  0.00  0.00    +0.000 HD
BRANCH  16  18
ATOM     18  C   UNL     1       6.488   6.767  17.051  0.00  0.00    +0.000 A 
ATOM     19  C   UNL     1       7.237   5.627  16.744  0.00  0.00    +0.000 A 
ATOM     20  C   UNL     1       6.611   4.381  16.642  0.00  0.00    +0.000 A 
ATOM     21  C   UNL     1       5.241   4.274  16.852  0.00  0.00    +0.000 A 
ATOM     22  F   UNL     1       4.647   3.079  16.728  0.00  0.00    +0.000 F 
ATOM     23  C   UNL     1       4.482   5.384  17.193  0.00  0.00    +0.000 A 
ATOM     24  C   UNL     1       5.116   6.617  17.300  0.00  0.00    +0.000 A 
ATOM     25  F   UNL     1       4.383   7.695  17.626  0.00  0.00    +0.000 F 
ENDBRANCH  16  18
ENDBRANCH   1  15
TORSDOF 4
ENDMDL
MODEL 8
REMARK VINA RESULT:      -7.4      5.515      7.462
REMARK  Name = 
REMARK  4 active torsions:
REMARK  status: ('A' for Active; 'I' for Inactive)
REMARK    1  A    between atoms: C_2  and  C_3
REMARK    2  A    between atoms: C_3  and  N_4
REMARK    3  A    between atoms: C_7  and  C_8
REMARK    4  A    between atoms: N_16  and  C_17
REMARK                            x       y       z     vdW  Elec       q    Type
REMARK                         _______ _______ _______ _____ _____    ______ ____
ROOT
ATOM      1  C   UNL     1       2.424   7.451  18.962  0.00  0.00    +0.000 C 
ENDROOT
BRANCH   1   2
ATOM      2  N   UNL     1       2.731   6.000  18.990  0.00  0.00    +0.000 NA
ATOM      3  C   UNL     1       2.351   5.330  17.743  0.00  0.00    +0.000 C 
ATOM      4  C   UNL     1       2.680   3.834  17.750  0.00  0.00    +0.000 C 
ATOM      5  C   UNL     1       4.153   3.570  18.095  0.00  0.00    +0.000 C 
ATOM      6  C   UNL     1       4.463   4.263  19.428  0.00  0.00    +0.000 C 
ATOM      7  C   UNL     1       4.128   5.755  19.382  0.00  0.00    +0.000 C 
BRANCH   5   8
ATOM      8  C   UNL     1       5.133   3.976  17.005  0.00  0.00    +0.000 A 
ATOM      9  N   UNL     1       4.721   3.984  15.721  0.00  0.00    +0.000 NA
ATOM     10  C   UNL     1       5.613   4.381  14.795  0.00  0.00    +0.000 A 
ATOM     11  C   UNL     1       6.901   4.750  15.093  0.00  0.00    +0.000 A 
ATOM     12  C   UNL     1       7.237   4.685  16.422  0.00  0.00    +0.000 A 
ATOM     13  N   UNL     1       6.383   4.303  17.390  0.00  0.00    +0.000 NA
ENDBRANCH   5   8
ENDBRANCH   1   2
BRANCH   1  15
ATOM     14  O   UNL     1       1.371   7.197  21.122  0.00  0.00    +0.000 OA
ATOM     15  C   UNL     1       1.587   7.937  20.162  0.00  0.00    +0.000 C 
ATOM     16  N   UNL     1       1.127   9.236  20.033  0.00  0.00    +0.000 N 
ATOM     17  H   UNL     1       1.241   9.689  19.131  0.00  0.00    +0.000 HD
BRANCH  16  18
ATOM     18  C   UNL     1       0.429   9.989  21.004  0.00  0.00    +0.000 A 
ATOM     19  C   UNL     1      -0.203   9.425  22.117  0.00  0.00    +0.000 A 
ATOM     20  C   UNL     1      -0.909  10.238  23.011  0.00  0.00    +0.000 A 
ATOM     21  C   UNL     1      -0.977  11.609  22.795  0.00  0.00    +0.000 A 
ATOM     22  F   UNL     1      -1.676  12.375  23.645  0.00  0.00    +0.000 F 
ATOM     23  C   UNL     1      -0.328  12.196  21.720  0.00  0.00    +0.000 A 
ATOM     24  C   UNL     1       0.379  11.382  20.842  0.00  0.00    +0.000 A 
ATOM     25  F   UNL     1       1.005  11.947  19.796  0.00  0.00    +0.000 F 
ENDBRANCH  16  18
ENDBRANCH   1  15
TORSDOF 4
ENDMDL
MODEL 9
REMARK VINA RESULT:      -7.3      5.083      6.943
REMARK  Name = 
REMARK  4 active torsions:
REMARK  status: ('A' for Active; 'I' for Inactive)
REMARK    1  A    between atoms: C_2  and  C_3
REMARK    2  A    between atoms: C_3  and  N_4
REMARK    3  A    between atoms: C_7  and  C_8
REMARK    4  A    between atoms: N_16  and  C_17
REMARK                            x       y       z     vdW  Elec       q    Type
REMARK                         _______ _______ _______ _____ _____    ______ ____
ROOT
ATOM      1  C   UNL     1       3.037   5.144  17.874  0.00  0.00    +0.000 C 
ENDROOT
BRANCH   1   2
ATOM      2  N   UNL     1       4.493   5.429  17.844  0.00  0.00    +0.000 NA
ATOM      3  C   UNL     1       5.293   4.208  17.698  0.00  0.00    +0.000 C 
ATOM      4  C   UNL     1       6.797   4.489  17.647  0.00  0.00    +0.000 C 
ATOM      5  C   UNL     1       7.155   5.518  16.565  0.00  0.00    +0.000 C 
ATOM      6  C   UNL     1       6.313   6.778  16.808  0.00  0.00    +0.000 C 
ATOM      7  C   UNL     1       4.817   6.461  16.847  0.00  0.00    +0.000 C 
BRANCH   5   8
ATOM      8  C   UNL     1       7.007   5.006  15.141  0.00  0.00    +0.000 A 
ATOM      9  N   UNL     1       7.807   5.505  14.177  0.00  0.00    +0.000 NA
ATOM     10  C   UNL     1       7.664   4.998  12.939  0.00  0.00    +0.000 A 
ATOM     11  C   UNL     1       6.743   4.032  12.619  0.00  0.00    +0.000 A 
ATOM     12  C   UNL     1       5.956   3.605  13.657  0.00  0.00    +0.000 A 
ATOM     13  N   UNL     1       6.062   4.071  14.916  0.00  0.00    +0.000 NA
ENDBRANCH   5   8
ENDBRANCH   1   2
BRANCH   1  15
ATOM     14  O   UNL     1       1.781   5.263  19.934  0.00  0.00    +0.000 OA
ATOM     15  C   UNL     1       2.278   5.882  18.993  0.00  0.00    +0.000 C 
ATOM     16  N   UNL     1       2.218   7.254  18.818  0.00  0.00    +0.000 N 
ATOM     17  H   UNL     1       2.531   7.630  17.928  0.00  0.00    +0.000 HD
BRANCH  16  18
ATOM     18  C   UNL     1       1.686   8.202  19.722  0.00  0.00    +0.000 A 
ATOM     19  C   UNL     1       1.649   8.018  21.107  0.00  0.00    +0.000 A 
ATOM     20  C   UNL     1       1.066   8.989  21.929  0.00  0.00    +0.000 A 
ATOM     21  C   UNL     1       0.528  10.140  21.368  0.00  0.00    +0.000 A 
ATOM     22  F   UNL     1      -0.050  11.052  22.162  0.00  0.00    +0.000 F 
ATOM     23  C   UNL     1       0.585  10.362  20.000  0.00  0.00    +0.000 A 
ATOM     24  C   UNL     1       1.175   9.396  19.192  0.00  0.00    +0.000 A 
ATOM     25  F   UNL     1       1.228   9.606  17.866  0.00  0.00    +0.000 F 
ENDBRANCH  16  18
ENDBRANCH   1  15
TORSDOF 4
ENDMDL
