MODEL 1
REMARK VINA RESULT:      -7.6      0.000      0.000
REMARK  Name = 
REMARK  6 active torsions:
REMARK  status: ('A' for Active; 'I' for Inactive)
REMARK    1  A    between atoms: C_1  and  N_2
REMARK    2  A    between atoms: C_6  and  C_7
REMARK    3  A    between atoms: N_15  and  C_16
REMARK    4  A    between atoms: C_16  and  C_17
REMARK    5  A    between atoms: N_19  and  C_20
REMARK    6  A    between atoms: C_20  and  C_21
REMARK                            x       y       z     vdW  Elec       q    Type
REMARK                         _______ _______ _______ _____ _____    ______ ____
ROOT
ATOM      1  C   UNL     1       3.530   5.090  19.170  0.00  0.00    +0.000 C 
ATOM      2  C   UNL     1       2.921   3.771  18.703  0.00  0.00    +0.000 A 
ATOM      3  N   UNL     1       3.470   2.847  17.841  0.00  0.00    +0.000 NA
ATOM      4  C   UNL     1       2.595   1.869  17.772  0.00  0.00    +0.000 A 
ATOM      5  N   UNL     1       1.490   2.111  18.548  0.00  0.00    +0.000 N 
ATOM      6  C   UNL     1       1.703   3.309  19.156  0.00  0.00    +0.000 A 
ATOM      7  C   UNL     1       0.827   4.044  20.092  0.00  0.00    +0.000 C 
ATOM      8  C   UNL     1       1.639   5.218  20.708  0.00  0.00    +0.000 C 
ATOM      9  N   UNL     1       2.388   5.974  19.657  0.00  0.00    +0.000 NA
ATOM     10  H   UNL     1       0.685   1.507  18.646  0.00  0.00    +0.000 HD
ENDROOT
BRANCH   1  16
ATOM     11  C   UNL     1       6.633   5.428  19.327  0.00  0.00    +0.000 C 
ATOM     12  N   UNL     1       5.800   5.804  18.213  0.00  0.00    +0.000 N 
ATOM     13  C   UNL     1       6.257   6.273  17.010  0.00  0.00    +0.000 A 
ATOM     14  C   UNL     1       5.129   6.607  16.302  0.00  0.00    +0.000 A 
ATOM     15  N   UNL     1       4.006   6.254  16.996  0.00  0.00    +0.000 NA
ATOM     16  C   UNL     1       4.426   5.739  18.145  0.00  0.00    +0.000 A 
ENDBRANCH   1  16
BRANCH   9  17
ATOM     17  C   UNL     1       2.864   7.283  20.158  0.00  0.00    +0.000 C 
BRANCH  17  18
ATOM     18  C   UNL     1       1.779   8.352  20.064  0.00  0.00    +0.000 A 
ATOM     19  C   UNL     1       1.228   8.899  18.912  0.00  0.00    +0.000 A 
ATOM     20  N   UNL     1       0.203   9.736  19.258  0.00  0.00    +0.000 N 
ATOM     21  C   UNL     1       0.031   9.729  20.625  0.00  0.00    +0.000 A 
ATOM     22  C   UNL     1      -0.952  10.332  21.429  0.00  0.00    +0.000 A 
ATOM     23  C   UNL     1      -0.838  10.205  22.814  0.00  0.00    +0.000 A 
ATOM     24  C   UNL     1       0.245   9.540  23.380  0.00  0.00    +0.000 A 
ATOM     25  C   UNL     1       1.205   8.920  22.568  0.00  0.00    +0.000 A 
ATOM     26  C   UNL     1       1.081   8.966  21.162  0.00  0.00    +0.000 A 
BRANCH  20  27
ATOM     27  C   UNL     1      -0.637  10.453  18.306  0.00  0.00    +0.000 C 
BRANCH  27  28
ATOM     28  C   UNL     1      -0.410  11.950  18.210  0.00  0.00    +0.000 C 
ATOM     29  N   UNL     1      -1.255  12.721  17.471  0.00  0.00    +0.000 N 
ATOM     30  O   UNL     1       0.526  12.490  18.798  0.00  0.00    +0.000 OA
ATOM     31  H   UNL     1      -1.954  12.332  16.850  0.00  0.00    +0.000 HD
ATOM     32  H   UNL     1      -1.037  13.707  17.388  0.00  0.00    +0.000 HD
ENDBRANCH  27  28
ENDBRANCH  20  27
ENDBRANCH  17  18
ENDBRANCH   9  17
TORSDOF 5
ENDMDL
MODEL 2
REMARK VINA RESULT:      -7.2      1.330      3.596
REMARK  Name = 
REMARK  6 active torsions:
REMARK  status: ('A' for Active; 'I' for Inactive)
REMARK    1  A    between atoms: C_1  and  N_2
REMARK    2  A    between atoms: C_6  and  C_7
REMARK    3  A    between atoms: N_15  and  C_16
REMARK    4  A    between atoms: C_16  and  C_17
REMARK    5  A    between atoms: N_19  and  C_20
REMARK    6  A    between atoms: C_20  and  C_21
REMARK                            x       y       z     vdW  Elec       q    Type
REMARK                         _______ _______ _______ _____ _____    ______ ____
ROOT
ATOM      1  C   UNL     1       3.661   5.547  18.134  0.00  0.00    +0.000 C 
ATOM      2  C   UNL     1       5.172   5.333  18.179  0.00  0.00    +0.000 A 
ATOM      3  N   UNL     1       5.854   4.218  18.610  0.00  0.00    +0.000 NA
ATOM      4  C   UNL     1       7.126   4.492  18.427  0.00  0.00    +0.000 A 
ATOM      5  N   UNL     1       7.312   5.743  17.898  0.00  0.00    +0.000 N 
ATOM      6  C   UNL     1       6.071   6.273  17.720  0.00  0.00    +0.000 A 
ATOM      7  C   UNL     1       5.696   7.599  17.187  0.00  0.00    +0.000 C 
ATOM      8  C   UNL     1       4.162   7.612  16.933  0.00  0.00    +0.000 C 
ATOM      9  N   UNL     1       3.412   7.050  18.099  0.00  0.00    +0.000 NA
ATOM     10  H   UNL     1       8.200   6.174  17.680  0.00  0.00    +0.000 HD
ENDROOT
BRANCH   1  16
ATOM     11  C   UNL     1       2.176   2.807  17.890  0.00  0.00    +0.000 C 
ATOM     12  N   UNL     1       2.335   3.574  19.099  0.00  0.00    +0.000 N 
ATOM     13  C   UNL     1       1.947   3.167  20.348  0.00  0.00    +0.000 A 
ATOM     14  C   UNL     1       2.183   4.242  21.167  0.00  0.00    +0.000 A 
ATOM     15  N   UNL     1       2.801   5.246  20.475  0.00  0.00    +0.000 NA
ATOM     16  C   UNL     1       2.916   4.817  19.224  0.00  0.00    +0.000 A 
ENDBRANCH   1  16
BRANCH   9  17
ATOM     17  C   UNL     1       1.970   7.380  18.032  0.00  0.00    +0.000 C 
BRANCH  17  18
ATOM     18  C   UNL     1       1.676   8.748  18.641  0.00  0.00    +0.000 A 
ATOM     19  C   UNL     1       1.740   9.985  18.012  0.00  0.00    +0.000 A 
ATOM     20  N   UNL     1       1.286  10.948  18.869  0.00  0.00    +0.000 N 
ATOM     21  C   UNL     1       0.880  10.372  20.053  0.00  0.00    +0.000 A 
ATOM     22  C   UNL     1       0.245  10.931  21.176  0.00  0.00    +0.000 A 
ATOM     23  C   UNL     1       0.005  10.106  22.274  0.00  0.00    +0.000 A 
ATOM     24  C   UNL     1       0.425   8.780  22.273  0.00  0.00    +0.000 A 
ATOM     25  C   UNL     1       1.033   8.225  21.138  0.00  0.00    +0.000 A 
ATOM     26  C   UNL     1       1.226   9.012  19.982  0.00  0.00    +0.000 A 
BRANCH  20  27
ATOM     27  C   UNL     1       1.166  12.363  18.536  0.00  0.00    +0.000 C 
BRANCH  27  28
ATOM     28  C   UNL     1      -0.246  12.915  18.459  0.00  0.00    +0.000 C 
ATOM     29  N   UNL     1      -1.066  12.543  17.437  0.00  0.00    +0.000 N 
ATOM     30  O   UNL     1      -0.671  13.692  19.312  0.00  0.00    +0.000 OA
ATOM     31  H   UNL     1      -0.741  12.026  16.630  0.00  0.00    +0.000 HD
ATOM     32  H   UNL     1      -1.981  12.975  17.392  0.00  0.00    +0.000 HD
ENDBRANCH  27  28
ENDBRANCH  20  27
ENDBRANCH  17  18
ENDBRANCH   9  17
TORSDOF 5
ENDMDL
MODEL 3
REMARK VINA RESULT:      -7.2      1.808      2.752
REMARK  Name = 
REMARK  6 active torsions:
REMARK  status: ('A' for Active; 'I' for Inactive)
REMARK    1  A    between atoms: C_1  and  N_2
REMARK    2  A    between atoms: C_6  and  C_7
REMARK    3  A    between atoms: N_15  and  C_16
REMARK    4  A    between atoms: C_16  and  C_17
REMARK    5  A    between atoms: N_19  and  C_20
REMARK    6  A    between atoms: C_20  and  C_21
REMARK                            x       y       z     vdW  Elec       q    Type
REMARK                         _______ _______ _______ _____ _____    ______ ____
ROOT
ATOM      1  C   UNL     1       3.968   4.753  18.972  0.00  0.00    +0.000 C 
ATOM      2  C   UNL     1       3.452   3.335  18.746  0.00  0.00    +0.000 A 
ATOM      3  N   UNL     1       4.096   2.293  18.116  0.00  0.00    +0.000 NA
ATOM      4  C   UNL     1       3.273   1.272  18.198  0.00  0.00    +0.000 A 
ATOM      5  N   UNL     1       2.111   1.597  18.850  0.00  0.00    +0.000 N 
ATOM      6  C   UNL     1       2.230   2.902  19.216  0.00  0.00    +0.000 A 
ATOM      7  C   UNL     1       1.263   3.754  19.940  0.00  0.00    +0.000 C 
ATOM      8  C   UNL     1       1.979   5.072  20.352  0.00  0.00    +0.000 C 
ATOM      9  N   UNL     1       2.758   5.649  19.211  0.00  0.00    +0.000 NA
ATOM     10  H   UNL     1       1.330   0.979  19.023  0.00  0.00    +0.000 HD
ENDROOT
BRANCH   1  16
ATOM     11  C   UNL     1       6.972   5.557  19.286  0.00  0.00    +0.000 C 
ATOM     12  N   UNL     1       6.237   5.513  18.048  0.00  0.00    +0.000 N 
ATOM     13  C   UNL     1       6.773   5.720  16.805  0.00  0.00    +0.000 A 
ATOM     14  C   UNL     1       5.705   5.698  15.944  0.00  0.00    +0.000 A 
ATOM     15  N   UNL     1       4.556   5.378  16.612  0.00  0.00    +0.000 NA
ATOM     16  C   UNL     1       4.897   5.239  17.887  0.00  0.00    +0.000 A 
ENDBRANCH   1  16
BRANCH   9  17
ATOM     17  C   UNL     1       3.140   7.056  19.467  0.00  0.00    +0.000 C 
BRANCH  17  18
ATOM     18  C   UNL     1       1.943   7.895  19.902  0.00  0.00    +0.000 A 
ATOM     19  C   UNL     1       1.101   7.672  20.984  0.00  0.00    +0.000 A 
ATOM     20  N   UNL     1       0.228   8.718  21.098  0.00  0.00    +0.000 N 
ATOM     21  C   UNL     1       0.496   9.662  20.130  0.00  0.00    +0.000 A 
ATOM     22  C   UNL     1      -0.050  10.941  19.919  0.00  0.00    +0.000 A 
ATOM     23  C   UNL     1       0.377  11.661  18.804  0.00  0.00    +0.000 A 
ATOM     24  C   UNL     1       1.280  11.109  17.903  0.00  0.00    +0.000 A 
ATOM     25  C   UNL     1       1.838   9.843  18.136  0.00  0.00    +0.000 A 
ATOM     26  C   UNL     1       1.484   9.117  19.294  0.00  0.00    +0.000 A 
BRANCH  20  27
ATOM     27  C   UNL     1      -0.775   8.849  22.148  0.00  0.00    +0.000 C 
BRANCH  27  28
ATOM     28  C   UNL     1      -0.497   9.898  23.210  0.00  0.00    +0.000 C 
ATOM     29  N   UNL     1      -1.246  11.034  23.257  0.00  0.00    +0.000 N 
ATOM     30  O   UNL     1       0.394   9.737  24.043  0.00  0.00    +0.000 OA
ATOM     31  H   UNL     1      -1.894  11.297  22.525  0.00  0.00    +0.000 HD
ATOM     32  H   UNL     1      -0.994  11.732  23.946  0.00  0.00    +0.000 HD
ENDBRANCH  27  28
ENDBRANCH  20  27
ENDBRANCH  17  18
ENDBRANCH   9  17
TORSDOF 5
ENDMDL
MODEL 4
REMARK VINA RESULT:      -7.1      1.066      1.136
REMARK  Name = 
REMARK  6 active torsions:
REMARK  status: ('A' for Active; 'I' for Inactive)
REMARK    1  A    between atoms: C_1  and  N_2
REMARK    2  A    between atoms: C_6  and  C_7
REMARK    3  A    between atoms: N_15  and  C_16
REMARK    4  A    between atoms: C_16  and  C_17
REMARK    5  A    between atoms: N_19  and  C_20
REMARK    6  A    between atoms: C_20  and  C_21
REMARK                            x       y       z     vdW  Elec       q    Type
REMARK                         _______ _______ _______ _____ _____    ______ ____
ROOT
ATOM      1  C   UNL     1       3.504   5.165  19.098  0.00  0.00    +0.000 C 
ATOM      2  C   UNL     1       2.868   3.850  18.656  0.00  0.00    +0.000 A 
ATOM      3  N   UNL     1       3.395   2.900  17.810  0.00  0.00    +0.000 NA
ATOM      4  C   UNL     1       2.501   1.938  17.761  0.00  0.00    +0.000 A 
ATOM      5  N   UNL     1       1.403   2.216  18.536  0.00  0.00    +0.000 N 
ATOM      6  C   UNL     1       1.642   3.421  19.121  0.00  0.00    +0.000 A 
ATOM      7  C   UNL     1       0.784   4.189  20.047  0.00  0.00    +0.000 C 
ATOM      8  C   UNL     1       1.621   5.358  20.639  0.00  0.00    +0.000 C 
ATOM      9  N   UNL     1       2.382   6.080  19.572  0.00  0.00    +0.000 NA
ATOM     10  H   UNL     1       0.587   1.631  18.647  0.00  0.00    +0.000 HD
ENDROOT
BRANCH   1  16
ATOM     11  C   UNL     1       6.613   5.459  19.248  0.00  0.00    +0.000 C 
ATOM     12  N   UNL     1       5.785   5.823  18.126  0.00  0.00    +0.000 N 
ATOM     13  C   UNL     1       6.248   6.259  16.913  0.00  0.00    +0.000 A 
ATOM     14  C   UNL     1       5.126   6.593  16.198  0.00  0.00    +0.000 A 
ATOM     15  N   UNL     1       3.997   6.273  16.899  0.00  0.00    +0.000 NA
ATOM     16  C   UNL     1       4.410   5.777  18.058  0.00  0.00    +0.000 A 
ENDBRANCH   1  16
BRANCH   9  17
ATOM     17  C   UNL     1       2.886   7.388  20.049  0.00  0.00    +0.000 C 
BRANCH  17  18
ATOM     18  C   UNL     1       1.816   8.472  19.956  0.00  0.00    +0.000 A 
ATOM     19  C   UNL     1       1.314   9.070  18.807  0.00  0.00    +0.000 A 
ATOM     20  N   UNL     1       0.286   9.905  19.147  0.00  0.00    +0.000 N 
ATOM     21  C   UNL     1       0.063   9.847  20.506  0.00  0.00    +0.000 A 
ATOM     22  C   UNL     1      -0.944  10.430  21.297  0.00  0.00    +0.000 A 
ATOM     23  C   UNL     1      -0.882  10.248  22.678  0.00  0.00    +0.000 A 
ATOM     24  C   UNL     1       0.171   9.549  23.257  0.00  0.00    +0.000 A 
ATOM     25  C   UNL     1       1.155   8.950  22.458  0.00  0.00    +0.000 A 
ATOM     26  C   UNL     1       1.084   9.052  21.052  0.00  0.00    +0.000 A 
BRANCH  20  27
ATOM     27  C   UNL     1      -0.511  10.668  18.194  0.00  0.00    +0.000 C 
BRANCH  27  28
ATOM     28  C   UNL     1      -1.675   9.933  17.556  0.00  0.00    +0.000 C 
ATOM     29  N   UNL     1      -2.871   9.858  18.204  0.00  0.00    +0.000 N 
ATOM     30  O   UNL     1      -1.563   9.404  16.451  0.00  0.00    +0.000 OA
ATOM     31  H   UNL     1      -2.993  10.142  19.168  0.00  0.00    +0.000 HD
ATOM     32  H   UNL     1      -3.605   9.312  17.769  0.00  0.00    +0.000 HD
ENDBRANCH  27  28
ENDBRANCH  20  27
ENDBRANCH  17  18
ENDBRANCH   9  17
TORSDOF 5
ENDMDL
MODEL 5
REMARK VINA RESULT:      -7.1      1.677      3.779
REMARK  Name = 
REMARK  6 active torsions:
REMARK  status: ('A' for Active; 'I' for Inactive)
REMARK    1  A    between atoms: C_1  and  N_2
REMARK    2  A    between atoms: C_6  and  C_7
REMARK    3  A    between atoms: N_15  and  C_16
REMARK    4  A    between atoms: C_16  and  C_17
REMARK    5  A    between atoms: N_19  and  C_20
REMARK    6  A    between atoms: C_20  and  C_21
REMARK                            x       y       z     vdW  Elec       q    Type
REMARK                         _______ _______ _______ _____ _____    ______ ____
ROOT
ATOM      1  C   UNL     1       3.849   5.507  18.067  0.00  0.00    +0.000 C 
ATOM      2  C   UNL     1       5.364   5.327  18.117  0.00  0.00    +0.000 A 
ATOM      3  N   UNL     1       6.068   4.221  18.538  0.00  0.00    +0.000 NA
ATOM      4  C   UNL     1       7.335   4.525  18.366  0.00  0.00    +0.000 A 
ATOM      5  N   UNL     1       7.496   5.787  17.853  0.00  0.00    +0.000 N 
ATOM      6  C   UNL     1       6.245   6.291  17.676  0.00  0.00    +0.000 A 
ATOM      7  C   UNL     1       5.843   7.616  17.157  0.00  0.00    +0.000 C 
ATOM      8  C   UNL     1       4.311   7.598  16.895  0.00  0.00    +0.000 C 
ATOM      9  N   UNL     1       3.566   7.004  18.049  0.00  0.00    +0.000 NA
ATOM     10  H   UNL     1       8.376   6.240  17.646  0.00  0.00    +0.000 HD
ENDROOT
BRANCH   1  16
ATOM     11  C   UNL     1       2.463   2.719  17.790  0.00  0.00    +0.000 C 
ATOM     12  N   UNL     1       2.578   3.486  19.005  0.00  0.00    +0.000 N 
ATOM     13  C   UNL     1       2.187   3.060  20.246  0.00  0.00    +0.000 A 
ATOM     14  C   UNL     1       2.375   4.139  21.073  0.00  0.00    +0.000 A 
ATOM     15  N   UNL     1       2.967   5.167  20.393  0.00  0.00    +0.000 NA
ATOM     16  C   UNL     1       3.114   4.747  19.143  0.00  0.00    +0.000 A 
ENDBRANCH   1  16
BRANCH   9  17
ATOM     17  C   UNL     1       2.118   7.303  17.978  0.00  0.00    +0.000 C 
BRANCH  17  18
ATOM     18  C   UNL     1       1.793   8.665  18.584  0.00  0.00    +0.000 A 
ATOM     19  C   UNL     1       1.851   9.905  17.960  0.00  0.00    +0.000 A 
ATOM     20  N   UNL     1       1.367  10.859  18.811  0.00  0.00    +0.000 N 
ATOM     21  C   UNL     1       0.947  10.273  19.985  0.00  0.00    +0.000 A 
ATOM     22  C   UNL     1       0.283  10.821  21.098  0.00  0.00    +0.000 A 
ATOM     23  C   UNL     1       0.034   9.989  22.189  0.00  0.00    +0.000 A 
ATOM     24  C   UNL     1       0.473   8.669  22.193  0.00  0.00    +0.000 A 
ATOM     25  C   UNL     1       1.111   8.126  21.068  0.00  0.00    +0.000 A 
ATOM     26  C   UNL     1       1.314   8.919  19.917  0.00  0.00    +0.000 A 
BRANCH  20  27
ATOM     27  C   UNL     1       1.234  12.273  18.480  0.00  0.00    +0.000 C 
BRANCH  27  28
ATOM     28  C   UNL     1       2.445  13.143  18.761  0.00  0.00    +0.000 C 
ATOM     29  N   UNL     1       3.357  13.379  17.777  0.00  0.00    +0.000 N 
ATOM     30  O   UNL     1       2.620  13.651  19.868  0.00  0.00    +0.000 OA
ATOM     31  H   UNL     1       3.355  12.884  16.894  0.00  0.00    +0.000 HD
ATOM     32  H   UNL     1       4.178  13.919  18.020  0.00  0.00    +0.000 HD
ENDBRANCH  27  28
ENDBRANCH  20  27
ENDBRANCH  17  18
ENDBRANCH   9  17
TORSDOF 5
ENDMDL
MODEL 6
REMARK VINA RESULT:      -7.0      1.486      2.559
REMARK  Name = 
REMARK  6 active torsions:
REMARK  status: ('A' for Active; 'I' for Inactive)
REMARK    1  A    between atoms: C_1  and  N_2
REMARK    2  A    between atoms: C_6  and  C_7
REMARK    3  A    between atoms: N_15  and  C_16
REMARK    4  A    between atoms: C_16  and  C_17
REMARK    5  A    between atoms: N_19  and  C_20
REMARK    6  A    between atoms: C_20  and  C_21
REMARK                            x       y       z     vdW  Elec       q    Type
REMARK                         _______ _______ _______ _____ _____    ______ ____
ROOT
ATOM      1  C   UNL     1       3.679   5.254  19.266  0.00  0.00    +0.000 C 
ATOM      2  C   UNL     1       3.218   3.832  18.959  0.00  0.00    +0.000 A 
ATOM      3  N   UNL     1       3.893   2.861  18.254  0.00  0.00    +0.000 NA
ATOM      4  C   UNL     1       3.115   1.802  18.284  0.00  0.00    +0.000 A 
ATOM      5  N   UNL     1       1.954   2.036  18.975  0.00  0.00    +0.000 N 
ATOM      6  C   UNL     1       2.025   3.319  19.422  0.00  0.00    +0.000 A 
ATOM      7  C   UNL     1       1.037   4.082  20.214  0.00  0.00    +0.000 C 
ATOM      8  C   UNL     1       1.706   5.400  20.696  0.00  0.00    +0.000 C 
ATOM      9  N   UNL     1       2.438   6.080  19.582  0.00  0.00    +0.000 NA
ATOM     10  H   UNL     1       1.202   1.375  19.122  0.00  0.00    +0.000 HD
ENDROOT
BRANCH   1  16
ATOM     11  C   UNL     1       6.796   5.481  19.320  0.00  0.00    +0.000 C 
ATOM     12  N   UNL     1       5.943   5.862  18.224  0.00  0.00    +0.000 N 
ATOM     13  C   UNL     1       6.378   6.287  16.997  0.00  0.00    +0.000 A 
ATOM     14  C   UNL     1       5.242   6.646  16.316  0.00  0.00    +0.000 A 
ATOM     15  N   UNL     1       4.128   6.351  17.052  0.00  0.00    +0.000 NA
ATOM     16  C   UNL     1       4.565   5.846  18.199  0.00  0.00    +0.000 A 
ENDBRANCH   1  16
BRANCH   9  17
ATOM     17  C   UNL     1       2.766   7.484  19.920  0.00  0.00    +0.000 C 
BRANCH  17  18
ATOM     18  C   UNL     1       1.530   8.261  20.364  0.00  0.00    +0.000 A 
ATOM     19  C   UNL     1       1.060   8.434  21.660  0.00  0.00    +0.000 A 
ATOM     20  N   UNL     1      -0.003   9.293  21.641  0.00  0.00    +0.000 N 
ATOM     21  C   UNL     1      -0.231   9.731  20.355  0.00  0.00    +0.000 A 
ATOM     22  C   UNL     1      -1.128  10.695  19.859  0.00  0.00    +0.000 A 
ATOM     23  C   UNL     1      -1.185  10.891  18.479  0.00  0.00    +0.000 A 
ATOM     24  C   UNL     1      -0.410  10.120  17.619  0.00  0.00    +0.000 A 
ATOM     25  C   UNL     1       0.499   9.180  18.125  0.00  0.00    +0.000 A 
ATOM     26  C   UNL     1       0.636   9.008  19.520  0.00  0.00    +0.000 A 
BRANCH  20  27
ATOM     27  C   UNL     1      -0.724   9.744  22.826  0.00  0.00    +0.000 C 
BRANCH  27  28
ATOM     28  C   UNL     1      -0.990  11.236  22.919  0.00  0.00    +0.000 C 
ATOM     29  N   UNL     1      -2.259  11.691  23.106  0.00  0.00    +0.000 N 
ATOM     30  O   UNL     1      -0.072  12.051  22.835  0.00  0.00    +0.000 OA
ATOM     31  H   UNL     1      -3.074  11.093  23.041  0.00  0.00    +0.000 HD
ATOM     32  H   UNL     1      -2.401  12.694  23.108  0.00  0.00    +0.000 HD
ENDBRANCH  27  28
ENDBRANCH  20  27
ENDBRANCH  17  18
ENDBRANCH   9  17
TORSDOF 5
ENDMDL
MODEL 7
REMARK VINA RESULT:      -7.0      1.996      3.103
REMARK  Name = 
REMARK  6 active torsions:
REMARK  status: ('A' for Active; 'I' for Inactive)
REMARK    1  A    between atoms: C_1  and  N_2
REMARK    2  A    between atoms: C_6  and  C_7
REMARK    3  A    between atoms: N_15  and  C_16
REMARK    4  A    between atoms: C_16  and  C_17
REMARK    5  A    between atoms: N_19  and  C_20
REMARK    6  A    between atoms: C_20  and  C_21
REMARK                            x       y       z     vdW  Elec       q    Type
REMARK                         _______ _______ _______ _____ _____    ______ ____
ROOT
ATOM      1  C   UNL     1       4.142   4.678  19.243  0.00  0.00    +0.000 C 
ATOM      2  C   UNL     1       3.712   3.249  18.922  0.00  0.00    +0.000 A 
ATOM      3  N   UNL     1       4.489   2.113  18.925  0.00  0.00    +0.000 NA
ATOM      4  C   UNL     1       3.673   1.129  18.621  0.00  0.00    +0.000 A 
ATOM      5  N   UNL     1       2.391   1.569  18.411  0.00  0.00    +0.000 N 
ATOM      6  C   UNL     1       2.408   2.913  18.621  0.00  0.00    +0.000 A 
ATOM      7  C   UNL     1       1.296   3.882  18.523  0.00  0.00    +0.000 C 
ATOM      8  C   UNL     1       1.769   5.236  19.123  0.00  0.00    +0.000 C 
ATOM      9  N   UNL     1       3.123   5.617  18.611  0.00  0.00    +0.000 NA
ATOM     10  H   UNL     1       1.597   0.997  18.158  0.00  0.00    +0.000 HD
ENDROOT
BRANCH   1  16
ATOM     11  C   UNL     1       5.388   4.674  16.376  0.00  0.00    +0.000 C 
ATOM     12  N   UNL     1       6.072   5.037  17.592  0.00  0.00    +0.000 N 
ATOM     13  C   UNL     1       7.346   5.534  17.661  0.00  0.00    +0.000 A 
ATOM     14  C   UNL     1       7.624   5.627  19.002  0.00  0.00    +0.000 A 
ATOM     15  N   UNL     1       6.522   5.303  19.744  0.00  0.00    +0.000 NA
ATOM     16  C   UNL     1       5.575   4.975  18.875  0.00  0.00    +0.000 A 
ENDBRANCH   1  16
BRANCH   9  17
ATOM     17  C   UNL     1       3.427   7.041  18.876  0.00  0.00    +0.000 C 
BRANCH  17  18
ATOM     18  C   UNL     1       2.236   7.767  19.494  0.00  0.00    +0.000 A 
ATOM     19  C   UNL     1       1.514   7.401  20.623  0.00  0.00    +0.000 A 
ATOM     20  N   UNL     1       0.604   8.379  20.911  0.00  0.00    +0.000 N 
ATOM     21  C   UNL     1       0.730   9.418  20.014  0.00  0.00    +0.000 A 
ATOM     22  C   UNL     1       0.102  10.676  19.973  0.00  0.00    +0.000 A 
ATOM     23  C   UNL     1       0.383  11.515  18.894  0.00  0.00    +0.000 A 
ATOM     24  C   UNL     1       1.223  11.098  17.868  0.00  0.00    +0.000 A 
ATOM     25  C   UNL     1       1.864   9.852  17.932  0.00  0.00    +0.000 A 
ATOM     26  C   UNL     1       1.660   9.008  19.046  0.00  0.00    +0.000 A 
BRANCH  20  27
ATOM     27  C   UNL     1      -0.300   8.359  22.055  0.00  0.00    +0.000 C 
BRANCH  27  28
ATOM     28  C   UNL     1      -0.122   9.476  23.067  0.00  0.00    +0.000 C 
ATOM     29  N   UNL     1      -1.168  10.295  23.368  0.00  0.00    +0.000 N 
ATOM     30  O   UNL     1       0.955   9.654  23.634  0.00  0.00    +0.000 OA
ATOM     31  H   UNL     1      -2.033  10.300  22.842  0.00  0.00    +0.000 HD
ATOM     32  H   UNL     1      -0.993  11.061  24.007  0.00  0.00    +0.000 HD
ENDBRANCH  27  28
ENDBRANCH  20  27
ENDBRANCH  17  18
ENDBRANCH   9  17
TORSDOF 5
ENDMDL
MODEL 8
REMARK VINA RESULT:      -6.9      1.098      1.137
REMARK  Name = 
REMARK  6 active torsions:
REMARK  status: ('A' for Active; 'I' for Inactive)
REMARK    1  A    between atoms: C_1  and  N_2
REMARK    2  A    between atoms: C_6  and  C_7
REMARK    3  A    between atoms: N_15  and  C_16
REMARK    4  A    between atoms: C_16  and  C_17
REMARK    5  A    between atoms: N_19  and  C_20
REMARK    6  A    between atoms: C_20  and  C_21
REMARK                            x       y       z     vdW  Elec       q    Type
REMARK                         _______ _______ _______ _____ _____    ______ ____
ROOT
ATOM      1  C   UNL     1       3.976   5.649  19.073  0.00  0.00    +0.000 C 
ATOM      2  C   UNL     1       3.593   4.196  19.336  0.00  0.00    +0.000 A 
ATOM      3  N   UNL     1       4.346   3.068  19.094  0.00  0.00    +0.000 NA
ATOM      4  C   UNL     1       3.613   2.061  19.512  0.00  0.00    +0.000 A 
ATOM      5  N   UNL     1       2.406   2.476  20.015  0.00  0.00    +0.000 N 
ATOM      6  C   UNL     1       2.399   3.833  19.922  0.00  0.00    +0.000 A 
ATOM      7  C   UNL     1       1.338   4.784  20.316  0.00  0.00    +0.000 C 
ATOM      8  C   UNL     1       1.923   6.224  20.262  0.00  0.00    +0.000 C 
ATOM      9  N   UNL     1       2.685   6.457  18.996  0.00  0.00    +0.000 NA
ATOM     10  H   UNL     1       1.677   1.882  20.384  0.00  0.00    +0.000 HD
ENDROOT
BRANCH   1  16
ATOM     11  C   UNL     1       7.102   5.625  19.095  0.00  0.00    +0.000 C 
ATOM     12  N   UNL     1       6.268   5.738  17.925  0.00  0.00    +0.000 N 
ATOM     13  C   UNL     1       6.721   5.748  16.633  0.00  0.00    +0.000 A 
ATOM     14  C   UNL     1       5.609   5.985  15.864  0.00  0.00    +0.000 A 
ATOM     15  N   UNL     1       4.485   6.010  16.641  0.00  0.00    +0.000 NA
ATOM     16  C   UNL     1       4.894   5.829  17.890  0.00  0.00    +0.000 A 
ENDBRANCH   1  16
BRANCH   9  17
ATOM     17  C   UNL     1       2.935   7.897  18.764  0.00  0.00    +0.000 C 
BRANCH  17  18
ATOM     18  C   UNL     1       1.688   8.735  19.027  0.00  0.00    +0.000 A 
ATOM     19  C   UNL     1       0.793   9.238  18.091  0.00  0.00    +0.000 A 
ATOM     20  N   UNL     1      -0.252   9.832  18.742  0.00  0.00    +0.000 N 
ATOM     21  C   UNL     1      -0.093   9.702  20.105  0.00  0.00    +0.000 A 
ATOM     22  C   UNL     1      -0.949  10.046  21.167  0.00  0.00    +0.000 A 
ATOM     23  C   UNL     1      -0.491   9.852  22.469  0.00  0.00    +0.000 A 
ATOM     24  C   UNL     1       0.794   9.377  22.709  0.00  0.00    +0.000 A 
ATOM     25  C   UNL     1       1.630   9.013  21.643  0.00  0.00    +0.000 A 
ATOM     26  C   UNL     1       1.172   9.127  20.313  0.00  0.00    +0.000 A 
BRANCH  20  27
ATOM     27  C   UNL     1      -1.406  10.431  18.083  0.00  0.00    +0.000 C 
BRANCH  27  28
ATOM     28  C   UNL     1      -1.594  11.924  18.288  0.00  0.00    +0.000 C 
ATOM     29  N   UNL     1      -0.869  12.809  17.549  0.00  0.00    +0.000 N 
ATOM     30  O   UNL     1      -2.401  12.355  19.110  0.00  0.00    +0.000 OA
ATOM     31  H   UNL     1      -0.092  12.530  16.963  0.00  0.00    +0.000 HD
ATOM     32  H   UNL     1      -0.984  13.794  17.755  0.00  0.00    +0.000 HD
ENDBRANCH  27  28
ENDBRANCH  20  27
ENDBRANCH  17  18
ENDBRANCH   9  17
TORSDOF 5
ENDMDL
MODEL 9
REMARK VINA RESULT:      -6.8      2.742      7.532
REMARK  Name = 
REMARK  6 active torsions:
REMARK  status: ('A' for Active; 'I' for Inactive)
REMARK    1  A    between atoms: C_1  and  N_2
REMARK    2  A    between atoms: C_6  and  C_7
REMARK    3  A    between atoms: N_15  and  C_16
REMARK    4  A    between atoms: C_16  and  C_17
REMARK    5  A    between atoms: N_19  and  C_20
REMARK    6  A    between atoms: C_20  and  C_21
REMARK                            x       y       z     vdW  Elec       q    Type
REMARK                         _______ _______ _______ _____ _____    ______ ____
ROOT
ATOM      1  C   UNL     1       0.139   9.569  19.683  0.00  0.00    +0.000 C 
ATOM      2  C   UNL     1       0.005   9.784  21.188  0.00  0.00    +0.000 A 
ATOM      3  N   UNL     1      -0.864  10.625  21.845  0.00  0.00    +0.000 NA
ATOM      4  C   UNL     1      -0.631  10.440  23.125  0.00  0.00    +0.000 A 
ATOM      5  N   UNL     1       0.359   9.516  23.340  0.00  0.00    +0.000 N 
ATOM      6  C   UNL     1       0.752   9.083  22.111  0.00  0.00    +0.000 A 
ATOM      7  C   UNL     1       1.793   8.092  21.766  0.00  0.00    +0.000 C 
ATOM      8  C   UNL     1       1.665   7.750  20.254  0.00  0.00    +0.000 C 
ATOM      9  N   UNL     1       1.525   8.988  19.425  0.00  0.00    +0.000 NA
ATOM     10  H   UNL     1       0.715   9.219  24.238  0.00  0.00    +0.000 HD
ENDROOT
BRANCH   1  16
ATOM     11  C   UNL     1      -2.203   9.905  17.640  0.00  0.00    +0.000 C 
ATOM     12  N   UNL     1      -1.270  10.932  18.029  0.00  0.00    +0.000 N 
ATOM     13  C   UNL     1      -1.332  12.243  17.638  0.00  0.00    +0.000 A 
ATOM     14  C   UNL     1      -0.197  12.825  18.145  0.00  0.00    +0.000 A 
ATOM     15  N   UNL     1       0.493  11.934  18.919  0.00  0.00    +0.000 NA
ATOM     16  C   UNL     1      -0.184  10.794  18.866  0.00  0.00    +0.000 A 
ENDBRANCH   1  16
BRANCH   9  17
ATOM     17  C   UNL     1       1.763   8.715  17.990  0.00  0.00    +0.000 C 
BRANCH  17  18
ATOM     18  C   UNL     1       2.806   7.620  17.789  0.00  0.00    +0.000 A 
ATOM     19  C   UNL     1       4.177   7.776  17.632  0.00  0.00    +0.000 A 
ATOM     20  N   UNL     1       4.769   6.544  17.600  0.00  0.00    +0.000 N 
ATOM     21  C   UNL     1       3.819   5.561  17.773  0.00  0.00    +0.000 A 
ATOM     22  C   UNL     1       3.955   4.169  17.924  0.00  0.00    +0.000 A 
ATOM     23  C   UNL     1       2.794   3.403  18.022  0.00  0.00    +0.000 A 
ATOM     24  C   UNL     1       1.540   3.995  17.925  0.00  0.00    +0.000 A 
ATOM     25  C   UNL     1       1.415   5.386  17.800  0.00  0.00    +0.000 A 
ATOM     26  C   UNL     1       2.568   6.201  17.772  0.00  0.00    +0.000 A 
BRANCH  20  27
ATOM     27  C   UNL     1       6.205   6.318  17.491  0.00  0.00    +0.000 C 
BRANCH  27  28
ATOM     28  C   UNL     1       6.671   5.550  16.267  0.00  0.00    +0.000 C 
ATOM     29  N   UNL     1       6.038   5.724  15.074  0.00  0.00    +0.000 N 
ATOM     30  O   UNL     1       7.622   4.773  16.329  0.00  0.00    +0.000 OA
ATOM     31  H   UNL     1       5.167   6.232  14.981  0.00  0.00    +0.000 HD
ATOM     32  H   UNL     1       6.344   5.153  14.295  0.00  0.00    +0.000 HD
ENDBRANCH  27  28
ENDBRANCH  20  27
ENDBRANCH  17  18
ENDBRANCH   9  17
TORSDOF 5
ENDMDL
