MODEL 1
REMARK VINA RESULT:      -7.2      0.000      0.000
REMARK  Name = 
REMARK  18 active torsions:
REMARK  status: ('A' for Active; 'I' for Inactive)
REMARK    1  A    between atoms: C_1  and  O_2
REMARK    2  A    between atoms: O_2  and  C_3
REMARK    3  A    between atoms: C_6  and  O_7
REMARK    4  A    between atoms: O_7  and  C_8
REMARK    5  A    between atoms: C_8  and  C_9
REMARK    6  A    between atoms: C_9  and  C_10
REMARK    7  A    between atoms: C_10  and  N_11
REMARK    8  A    between atoms: N_11  and  C_12
REMARK    9  A    between atoms: N_11  and  C_13
REMARK   10  A    between atoms: C_13  and  C_14
REMARK   11  A    between atoms: C_14  and  C_15
REMARK   12  A    between atoms: C_15  and  N_16
REMARK   13  A    between atoms: C_21  and  O_22
REMARK   14  A    between atoms: O_22  and  C_23
REMARK   15  A    between atoms: C_24  and  O_25
REMARK   16  A    between atoms: O_25  and  C_26
REMARK   17  A    between atoms: C_33  and  O_34
REMARK   18  A    between atoms: O_34  and  C_35
REMARK                            x       y       z     vdW  Elec       q    Type
REMARK                         _______ _______ _______ _____ _____    ______ ____
ROOT
ATOM      1  C   UNL     1       1.922   5.900  20.709  0.00  0.00    +0.000 C 
ENDROOT
BRANCH   1   2
ATOM      2  C   UNL     1       0.840   4.972  20.133  0.00  0.00    +0.000 C 
BRANCH   2   3
ATOM      3  N   UNL     1       1.097   3.558  20.384  0.00  0.00    +0.000 NA
ATOM      4  C   UNL     1       2.239   3.396  21.282  0.00  0.00    +0.000 C 
BRANCH   3   5
ATOM      5  C   UNL     1       1.255   2.801  19.135  0.00  0.00    +0.000 C 
BRANCH   5   6
ATOM      6  C   UNL     1       1.688   3.655  17.946  0.00  0.00    +0.000 C 
BRANCH   6   7
ATOM      7  C   UNL     1       2.813   3.001  17.152  0.00  0.00    +0.000 C 
BRANCH   7   8
ATOM      8  O   UNL     1       3.920   2.808  18.035  0.00  0.00    +0.000 OA
BRANCH   8  12
ATOM      9  C   UNL     1       6.934   5.695  18.159  0.00  0.00    +0.000 A 
ATOM     10  C   UNL     1       6.025   5.506  19.212  0.00  0.00    +0.000 A 
ATOM     11  C   UNL     1       5.033   4.527  19.132  0.00  0.00    +0.000 A 
ATOM     12  C   UNL     1       4.899   3.759  17.982  0.00  0.00    +0.000 A 
ATOM     13  C   UNL     1       5.741   4.009  16.899  0.00  0.00    +0.000 A 
ATOM     14  C   UNL     1       6.761   4.972  16.971  0.00  0.00    +0.000 A 
BRANCH   9  16
ATOM     15  C   UNL     1       7.742   7.861  17.665  0.00  0.00    +0.000 C 
ATOM     16  O   UNL     1       7.968   6.588  18.271  0.00  0.00    +0.000 OA
ENDBRANCH   9  16
BRANCH  14  17
ATOM     17  O   UNL     1       7.478   5.030  15.807  0.00  0.00    +0.000 OA
ATOM     18  C   UNL     1       6.825   4.809  14.570  0.00  0.00    +0.000 C 
ENDBRANCH  14  17
ENDBRANCH   8  12
ENDBRANCH   7   8
ENDBRANCH   6   7
ENDBRANCH   5   6
ENDBRANCH   3   5
ENDBRANCH   2   3
ENDBRANCH   1   2
BRANCH   1  19
ATOM     19  C   UNL     1       2.496   6.911  19.681  0.00  0.00    +0.000 C 
BRANCH  19  20
ATOM     20  N   UNL     1       1.778   8.197  19.694  0.00  0.00    +0.000 N 
ATOM     21  C   UNL     1       1.189   8.437  21.033  0.00  0.00    +0.000 C 
ATOM     22  C   UNL     1       0.225   9.412  20.654  0.00  0.00    +0.000 C 
ATOM     23  C   UNL     1      -0.453  10.642  20.735  0.00  0.00    +0.000 A 
ATOM     24  C   UNL     1      -0.983  11.055  21.919  0.00  0.00    +0.000 A 
ATOM     25  C   UNL     1      -1.582  12.276  21.935  0.00  0.00    +0.000 A 
ATOM     26  C   UNL     1      -1.748  12.977  20.708  0.00  0.00    +0.000 A 
ATOM     27  C   UNL     1      -1.173  12.479  19.473  0.00  0.00    +0.000 A 
ATOM     28  C   UNL     1      -0.438  11.275  19.485  0.00  0.00    +0.000 A 
ATOM     29  C   UNL     1       0.440  10.483  18.313  0.00  0.00    +0.000 C 
ATOM     30  C   UNL     1       1.455   8.996  18.483  0.00  0.00    +0.000 C 
ATOM     31  O   UNL     1       1.959   8.575  17.404  0.00  0.00    +0.000 OA
BRANCH  25  32
ATOM     32  O   UNL     1      -2.016  12.809  23.129  0.00  0.00    +0.000 OA
ATOM     33  C   UNL     1      -1.158  13.840  23.645  0.00  0.00    +0.000 C 
ENDBRANCH  25  32
BRANCH  26  34
ATOM     34  O   UNL     1      -2.454  14.134  20.907  0.00  0.00    +0.000 OA
ATOM     35  C   UNL     1      -1.957  15.390  20.512  0.00  0.00    +0.000 C 
ENDBRANCH  26  34
ENDBRANCH  19  20
ENDBRANCH   1  19
TORSDOF 13
ENDMDL
MODEL 2
REMARK VINA RESULT:      -7.2      1.295      2.023
REMARK  Name = 
REMARK  18 active torsions:
REMARK  status: ('A' for Active; 'I' for Inactive)
REMARK    1  A    between atoms: C_1  and  O_2
REMARK    2  A    between atoms: O_2  and  C_3
REMARK    3  A    between atoms: C_6  and  O_7
REMARK    4  A    between atoms: O_7  and  C_8
REMARK    5  A    between atoms: C_8  and  C_9
REMARK    6  A    between atoms: C_9  and  C_10
REMARK    7  A    between atoms: C_10  and  N_11
REMARK    8  A    between atoms: N_11  and  C_12
REMARK    9  A    between atoms: N_11  and  C_13
REMARK   10  A    between atoms: C_13  and  C_14
REMARK   11  A    between atoms: C_14  and  C_15
REMARK   12  A    between atoms: C_15  and  N_16
REMARK   13  A    between atoms: C_21  and  O_22
REMARK   14  A    between atoms: O_22  and  C_23
REMARK   15  A    between atoms: C_24  and  O_25
REMARK   16  A    between atoms: O_25  and  C_26
REMARK   17  A    between atoms: C_33  and  O_34
REMARK   18  A    between atoms: O_34  and  C_35
REMARK                            x       y       z     vdW  Elec       q    Type
REMARK                         _______ _______ _______ _____ _____    ______ ____
ROOT
ATOM      1  C   UNL     1       1.608   5.451  20.741  0.00  0.00    +0.000 C 
ENDROOT
BRANCH   1   2
ATOM      2  C   UNL     1       1.110   4.163  20.065  0.00  0.00    +0.000 C 
BRANCH   2   3
ATOM      3  N   UNL     1       1.904   2.987  20.402  0.00  0.00    +0.000 NA
ATOM      4  C   UNL     1       1.677   2.596  21.793  0.00  0.00    +0.000 C 
BRANCH   3   5
ATOM      5  C   UNL     1       3.328   3.185  20.102  0.00  0.00    +0.000 C 
BRANCH   5   6
ATOM      6  C   UNL     1       3.841   2.333  18.943  0.00  0.00    +0.000 C 
BRANCH   6   7
ATOM      7  C   UNL     1       3.102   2.631  17.644  0.00  0.00    +0.000 C 
BRANCH   7   8
ATOM      8  O   UNL     1       3.242   4.026  17.369  0.00  0.00    +0.000 OA
BRANCH   8  12
ATOM      9  C   UNL     1       6.804   5.005  15.423  0.00  0.00    +0.000 A 
ATOM     10  C   UNL     1       6.226   3.728  15.345  0.00  0.00    +0.000 A 
ATOM     11  C   UNL     1       5.032   3.442  16.009  0.00  0.00    +0.000 A 
ATOM     12  C   UNL     1       4.424   4.408  16.802  0.00  0.00    +0.000 A 
ATOM     13  C   UNL     1       5.045   5.646  16.955  0.00  0.00    +0.000 A 
ATOM     14  C   UNL     1       6.233   5.960  16.276  0.00  0.00    +0.000 A 
BRANCH   9  16
ATOM     15  C   UNL     1       7.725   5.430  13.288  0.00  0.00    +0.000 C 
ATOM     16  O   UNL     1       7.923   5.319  14.698  0.00  0.00    +0.000 OA
ENDBRANCH   9  16
BRANCH  14  17
ATOM     17  O   UNL     1       6.647   7.234  16.554  0.00  0.00    +0.000 OA
ATOM     18  C   UNL     1       7.603   7.453  17.575  0.00  0.00    +0.000 C 
ENDBRANCH  14  17
ENDBRANCH   8  12
ENDBRANCH   7   8
ENDBRANCH   6   7
ENDBRANCH   5   6
ENDBRANCH   3   5
ENDBRANCH   2   3
ENDBRANCH   1   2
BRANCH   1  19
ATOM     19  C   UNL     1       2.498   6.336  19.829  0.00  0.00    +0.000 C 
BRANCH  19  20
ATOM     20  N   UNL     1       2.050   7.739  19.794  0.00  0.00    +0.000 N 
ATOM     21  C   UNL     1       1.384   8.092  21.071  0.00  0.00    +0.000 C 
ATOM     22  C   UNL     1       0.676   9.238  20.615  0.00  0.00    +0.000 C 
ATOM     23  C   UNL     1       0.249  10.578  20.651  0.00  0.00    +0.000 A 
ATOM     24  C   UNL     1      -0.309  11.088  21.783  0.00  0.00    +0.000 A 
ATOM     25  C   UNL     1      -0.655  12.404  21.763  0.00  0.00    +0.000 A 
ATOM     26  C   UNL     1      -0.552  13.123  20.539  0.00  0.00    +0.000 A 
ATOM     27  C   UNL     1       0.039  12.521  19.360  0.00  0.00    +0.000 A 
ATOM     28  C   UNL     1       0.517  11.194  19.423  0.00  0.00    +0.000 A 
ATOM     29  C   UNL     1       1.339  10.244  18.330  0.00  0.00    +0.000 C 
ATOM     30  C   UNL     1       2.018   8.585  18.572  0.00  0.00    +0.000 C 
ATOM     31  O   UNL     1       2.538   8.072  17.542  0.00  0.00    +0.000 OA
BRANCH  25  32
ATOM     32  O   UNL     1      -1.096  13.012  22.917  0.00  0.00    +0.000 OA
ATOM     33  C   UNL     1      -2.438  12.648  23.284  0.00  0.00    +0.000 C 
ENDBRANCH  25  32
BRANCH  26  34
ATOM     34  O   UNL     1      -1.033  14.397  20.688  0.00  0.00    +0.000 OA
ATOM     35  C   UNL     1      -0.199  15.527  20.589  0.00  0.00    +0.000 C 
ENDBRANCH  26  34
ENDBRANCH  19  20
ENDBRANCH   1  19
TORSDOF 13
ENDMDL
MODEL 3
REMARK VINA RESULT:      -6.9      0.958      1.917
REMARK  Name = 
REMARK  18 active torsions:
REMARK  status: ('A' for Active; 'I' for Inactive)
REMARK    1  A    between atoms: C_1  and  O_2
REMARK    2  A    between atoms: O_2  and  C_3
REMARK    3  A    between atoms: C_6  and  O_7
REMARK    4  A    between atoms: O_7  and  C_8
REMARK    5  A    between atoms: C_8  and  C_9
REMARK    6  A    between atoms: C_9  and  C_10
REMARK    7  A    between atoms: C_10  and  N_11
REMARK    8  A    between atoms: N_11  and  C_12
REMARK    9  A    between atoms: N_11  and  C_13
REMARK   10  A    between atoms: C_13  and  C_14
REMARK   11  A    between atoms: C_14  and  C_15
REMARK   12  A    between atoms: C_15  and  N_16
REMARK   13  A    between atoms: C_21  and  O_22
REMARK   14  A    between atoms: O_22  and  C_23
REMARK   15  A    between atoms: C_24  and  O_25
REMARK   16  A    between atoms: O_25  and  C_26
REMARK   17  A    between atoms: C_33  and  O_34
REMARK   18  A    between atoms: O_34  and  C_35
REMARK                            x       y       z     vdW  Elec       q    Type
REMARK                         _______ _______ _______ _____ _____    ______ ____
ROOT
ATOM      1  C   UNL     1       2.350   5.623  20.888  0.00  0.00    +0.000 C 
ENDROOT
BRANCH   1   2
ATOM      2  C   UNL     1       1.119   4.815  20.442  0.00  0.00    +0.000 C 
BRANCH   2   3
ATOM      3  N   UNL     1       1.329   3.372  20.478  0.00  0.00    +0.000 NA
ATOM      4  C   UNL     1       1.868   2.965  21.775  0.00  0.00    +0.000 C 
BRANCH   3   5
ATOM      5  C   UNL     1       2.160   2.913  19.357  0.00  0.00    +0.000 C 
BRANCH   5   6
ATOM      6  C   UNL     1       1.621   3.309  17.985  0.00  0.00    +0.000 C 
BRANCH   6   7
ATOM      7  C   UNL     1       2.734   3.467  16.957  0.00  0.00    +0.000 C 
BRANCH   7   8
ATOM      8  O   UNL     1       3.965   3.629  17.664  0.00  0.00    +0.000 OA
BRANCH   8  12
ATOM      9  C   UNL     1       7.006   5.097  15.206  0.00  0.00    +0.000 A 
ATOM     10  C   UNL     1       6.094   4.119  14.779  0.00  0.00    +0.000 A 
ATOM     11  C   UNL     1       5.090   3.656  15.631  0.00  0.00    +0.000 A 
ATOM     12  C   UNL     1       5.011   4.123  16.938  0.00  0.00    +0.000 A 
ATOM     13  C   UNL     1       5.972   5.024  17.393  0.00  0.00    +0.000 A 
ATOM     14  C   UNL     1       6.974   5.519  16.543  0.00  0.00    +0.000 A 
BRANCH   9  16
ATOM     15  C   UNL     1       7.860   5.141  13.002  0.00  0.00    +0.000 C 
ATOM     16  O   UNL     1       7.932   5.623  14.345  0.00  0.00    +0.000 OA
ENDBRANCH   9  16
BRANCH  14  17
ATOM     17  O   UNL     1       7.789   6.408  17.192  0.00  0.00    +0.000 OA
ATOM     18  C   UNL     1       7.343   7.732  17.415  0.00  0.00    +0.000 C 
ENDBRANCH  14  17
ENDBRANCH   8  12
ENDBRANCH   7   8
ENDBRANCH   6   7
ENDBRANCH   5   6
ENDBRANCH   3   5
ENDBRANCH   2   3
ENDBRANCH   1   2
BRANCH   1  19
ATOM     19  C   UNL     1       2.853   6.639  19.828  0.00  0.00    +0.000 C 
BRANCH  19  20
ATOM     20  N   UNL     1       2.018   7.852  19.770  0.00  0.00    +0.000 N 
ATOM     21  C   UNL     1       1.531   8.199  21.127  0.00  0.00    +0.000 C 
ATOM     22  C   UNL     1       0.448   9.036  20.740  0.00  0.00    +0.000 C 
ATOM     23  C   UNL     1      -0.335  10.205  20.751  0.00  0.00    +0.000 A 
ATOM     24  C   UNL     1      -0.795  10.709  21.929  0.00  0.00    +0.000 A 
ATOM     25  C   UNL     1      -1.504  11.868  21.870  0.00  0.00    +0.000 A 
ATOM     26  C   UNL     1      -1.846  12.401  20.596  0.00  0.00    +0.000 A 
ATOM     27  C   UNL     1      -1.338  11.811  19.372  0.00  0.00    +0.000 A 
ATOM     28  C   UNL     1      -0.493  10.683  19.444  0.00  0.00    +0.000 A 
ATOM     29  C   UNL     1       0.349   9.835  18.285  0.00  0.00    +0.000 C 
ATOM     30  C   UNL     1       1.514   8.470  18.516  0.00  0.00    +0.000 C 
ATOM     31  O   UNL     1       1.957   7.967  17.446  0.00  0.00    +0.000 OA
BRANCH  25  32
ATOM     32  O   UNL     1      -1.879  12.501  23.035  0.00  0.00    +0.000 OA
ATOM     33  C   UNL     1      -0.992  13.562  23.425  0.00  0.00    +0.000 C 
ENDBRANCH  25  32
BRANCH  26  34
ATOM     34  O   UNL     1      -2.639  13.509  20.734  0.00  0.00    +0.000 OA
ATOM     35  C   UNL     1      -4.023  13.476  20.473  0.00  0.00    +0.000 C 
ENDBRANCH  26  34
ENDBRANCH  19  20
ENDBRANCH   1  19
TORSDOF 13
ENDMDL
MODEL 4
REMARK VINA RESULT:      -6.9      1.452      1.620
REMARK  Name = 
REMARK  18 active torsions:
REMARK  status: ('A' for Active; 'I' for Inactive)
REMARK    1  A    between atoms: C_1  and  O_2
REMARK    2  A    between atoms: O_2  and  C_3
REMARK    3  A    between atoms: C_6  and  O_7
REMARK    4  A    between atoms: O_7  and  C_8
REMARK    5  A    between atoms: C_8  and  C_9
REMARK    6  A    between atoms: C_9  and  C_10
REMARK    7  A    between atoms: C_10  and  N_11
REMARK    8  A    between atoms: N_11  and  C_12
REMARK    9  A    between atoms: N_11  and  C_13
REMARK   10  A    between atoms: C_13  and  C_14
REMARK   11  A    between atoms: C_14  and  C_15
REMARK   12  A    between atoms: C_15  and  N_16
REMARK   13  A    between atoms: C_21  and  O_22
REMARK   14  A    between atoms: O_22  and  C_23
REMARK   15  A    between atoms: C_24  and  O_25
REMARK   16  A    between atoms: O_25  and  C_26
REMARK   17  A    between atoms: C_33  and  O_34
REMARK   18  A    between atoms: O_34  and  C_35
REMARK                            x       y       z     vdW  Elec       q    Type
REMARK                         _______ _______ _______ _____ _____    ______ ____
ROOT
ATOM      1  C   UNL     1       1.554   5.123  20.839  0.00  0.00    +0.000 C 
ENDROOT
BRANCH   1   2
ATOM      2  C   UNL     1       0.787   3.896  20.317  0.00  0.00    +0.000 C 
BRANCH   2   3
ATOM      3  N   UNL     1       1.536   2.651  20.439  0.00  0.00    +0.000 NA
ATOM      4  C   UNL     1       2.592   2.784  21.443  0.00  0.00    +0.000 C 
BRANCH   3   5
ATOM      5  C   UNL     1       2.052   2.194  19.142  0.00  0.00    +0.000 C 
BRANCH   5   6
ATOM      6  C   UNL     1       3.534   1.826  19.161  0.00  0.00    +0.000 C 
BRANCH   6   7
ATOM      7  C   UNL     1       4.366   2.766  18.297  0.00  0.00    +0.000 C 
BRANCH   7   8
ATOM      8  O   UNL     1       5.222   3.515  19.162  0.00  0.00    +0.000 OA
BRANCH   8  12
ATOM      9  C   UNL     1       7.411   6.712  17.604  0.00  0.00    +0.000 A 
ATOM     10  C   UNL     1       7.516   6.305  18.943  0.00  0.00    +0.000 A 
ATOM     11  C   UNL     1       6.769   5.229  19.425  0.00  0.00    +0.000 A 
ATOM     12  C   UNL     1       5.867   4.576  18.592  0.00  0.00    +0.000 A 
ATOM     13  C   UNL     1       5.693   5.038  17.289  0.00  0.00    +0.000 A 
ATOM     14  C   UNL     1       6.454   6.102  16.780  0.00  0.00    +0.000 A 
BRANCH   9  16
ATOM     15  C   UNL     1       8.148   8.949  17.800  0.00  0.00    +0.000 C 
ATOM     16  O   UNL     1       8.211   7.704  17.102  0.00  0.00    +0.000 OA
ENDBRANCH   9  16
BRANCH  14  17
ATOM     17  O   UNL     1       6.136   6.368  15.476  0.00  0.00    +0.000 OA
ATOM     18  C   UNL     1       4.873   6.925  15.162  0.00  0.00    +0.000 C 
ENDBRANCH  14  17
ENDBRANCH   8  12
ENDBRANCH   7   8
ENDBRANCH   6   7
ENDBRANCH   5   6
ENDBRANCH   3   5
ENDBRANCH   2   3
ENDBRANCH   1   2
BRANCH   1  19
ATOM     19  C   UNL     1       2.433   5.819  19.765  0.00  0.00    +0.000 C 
BRANCH  19  20
ATOM     20  N   UNL     1       2.196   7.271  19.696  0.00  0.00    +0.000 N 
ATOM     21  C   UNL     1       1.518   7.734  20.932  0.00  0.00    +0.000 C 
ATOM     22  C   UNL     1       1.010   8.964  20.429  0.00  0.00    +0.000 C 
ATOM     23  C   UNL     1       0.781  10.352  20.433  0.00  0.00    +0.000 A 
ATOM     24  C   UNL     1       0.241  10.954  21.528  0.00  0.00    +0.000 A 
ATOM     25  C   UNL     1       0.092  12.305  21.480  0.00  0.00    +0.000 A 
ATOM     26  C   UNL     1       0.366  12.984  20.260  0.00  0.00    +0.000 A 
ATOM     27  C   UNL     1       0.928  12.286  19.120  0.00  0.00    +0.000 A 
ATOM     28  C   UNL     1       1.204  10.906  19.218  0.00  0.00    +0.000 A 
ATOM     29  C   UNL     1       1.938   9.832  18.179  0.00  0.00    +0.000 C 
ATOM     30  C   UNL     1       2.355   8.095  18.470  0.00  0.00    +0.000 C 
ATOM     31  O   UNL     1       2.851   7.498  17.474  0.00  0.00    +0.000 OA
BRANCH  25  32
ATOM     32  O   UNL     1      -0.321  12.987  22.604  0.00  0.00    +0.000 OA
ATOM     33  C   UNL     1      -1.737  12.914  22.835  0.00  0.00    +0.000 C 
ENDBRANCH  25  32
BRANCH  26  34
ATOM     34  O   UNL     1       0.067  14.316  20.374  0.00  0.00    +0.000 OA
ATOM     35  C   UNL     1      -0.808  14.965  19.482  0.00  0.00    +0.000 C 
ENDBRANCH  26  34
ENDBRANCH  19  20
ENDBRANCH   1  19
TORSDOF 13
ENDMDL
MODEL 5
REMARK VINA RESULT:      -6.9      1.841      2.531
REMARK  Name = 
REMARK  18 active torsions:
REMARK  status: ('A' for Active; 'I' for Inactive)
REMARK    1  A    between atoms: C_1  and  O_2
REMARK    2  A    between atoms: O_2  and  C_3
REMARK    3  A    between atoms: C_6  and  O_7
REMARK    4  A    between atoms: O_7  and  C_8
REMARK    5  A    between atoms: C_8  and  C_9
REMARK    6  A    between atoms: C_9  and  C_10
REMARK    7  A    between atoms: C_10  and  N_11
REMARK    8  A    between atoms: N_11  and  C_12
REMARK    9  A    between atoms: N_11  and  C_13
REMARK   10  A    between atoms: C_13  and  C_14
REMARK   11  A    between atoms: C_14  and  C_15
REMARK   12  A    between atoms: C_15  and  N_16
REMARK   13  A    between atoms: C_21  and  O_22
REMARK   14  A    between atoms: O_22  and  C_23
REMARK   15  A    between atoms: C_24  and  O_25
REMARK   16  A    between atoms: O_25  and  C_26
REMARK   17  A    between atoms: C_33  and  O_34
REMARK   18  A    between atoms: O_34  and  C_35
REMARK                            x       y       z     vdW  Elec       q    Type
REMARK                         _______ _______ _______ _____ _____    ______ ____
ROOT
ATOM      1  C   UNL     1       1.969   6.308  19.660  0.00  0.00    +0.000 C 
ENDROOT
BRANCH   1   2
ATOM      2  C   UNL     1       1.726   5.266  20.765  0.00  0.00    +0.000 C 
BRANCH   2   3
ATOM      3  N   UNL     1       0.975   4.102  20.309  0.00  0.00    +0.000 NA
ATOM      4  C   UNL     1       1.267   2.942  21.150  0.00  0.00    +0.000 C 
BRANCH   3   5
ATOM      5  C   UNL     1       1.201   3.830  18.883  0.00  0.00    +0.000 C 
BRANCH   5   6
ATOM      6  C   UNL     1       1.611   2.389  18.586  0.00  0.00    +0.000 C 
BRANCH   6   7
ATOM      7  C   UNL     1       3.005   2.306  17.978  0.00  0.00    +0.000 C 
BRANCH   7   8
ATOM      8  O   UNL     1       3.903   3.011  18.838  0.00  0.00    +0.000 OA
BRANCH   8  12
ATOM      9  C   UNL     1       6.519   5.836  17.223  0.00  0.00    +0.000 A 
ATOM     10  C   UNL     1       6.359   5.657  18.606  0.00  0.00    +0.000 A 
ATOM     11  C   UNL     1       5.476   4.700  19.106  0.00  0.00    +0.000 A 
ATOM     12  C   UNL     1       4.701   3.942  18.236  0.00  0.00    +0.000 A 
ATOM     13  C   UNL     1       4.789   4.183  16.866  0.00  0.00    +0.000 A 
ATOM     14  C   UNL     1       5.690   5.125  16.344  0.00  0.00    +0.000 A 
BRANCH   9  16
ATOM     15  C   UNL     1       7.770   7.810  17.576  0.00  0.00    +0.000 C 
ATOM     16  O   UNL     1       7.453   6.707  16.726  0.00  0.00    +0.000 OA
ENDBRANCH   9  16
BRANCH  14  17
ATOM     17  O   UNL     1       5.626   5.176  14.978  0.00  0.00    +0.000 OA
ATOM     18  C   UNL     1       6.689   4.650  14.206  0.00  0.00    +0.000 C 
ENDBRANCH  14  17
ENDBRANCH   8  12
ENDBRANCH   7   8
ENDBRANCH   6   7
ENDBRANCH   5   6
ENDBRANCH   3   5
ENDBRANCH   2   3
ENDBRANCH   1   2
BRANCH   1  19
ATOM     19  C   UNL     1       2.429   7.692  20.190  0.00  0.00    +0.000 C 
BRANCH  19  20
ATOM     20  N   UNL     1       1.302   8.618  20.401  0.00  0.00    +0.000 N 
ATOM     21  C   UNL     1       0.555   8.806  19.134  0.00  0.00    +0.000 C 
ATOM     22  C   UNL     1      -0.109  10.017  19.475  0.00  0.00    +0.000 C 
ATOM     23  C   UNL     1      -1.216  10.873  19.621  0.00  0.00    +0.000 A 
ATOM     24  C   UNL     1      -2.057  11.089  18.573  0.00  0.00    +0.000 A 
ATOM     25  C   UNL     1      -3.133  11.890  18.800  0.00  0.00    +0.000 A 
ATOM     26  C   UNL     1      -3.240  12.561  20.049  0.00  0.00    +0.000 A 
ATOM     27  C   UNL     1      -2.304  12.300  21.126  0.00  0.00    +0.000 A 
ATOM     28  C   UNL     1      -1.263  11.368  20.930  0.00  0.00    +0.000 A 
ATOM     29  C   UNL     1      -0.104  10.748  21.952  0.00  0.00    +0.000 C 
ATOM     30  C   UNL     1       1.110   9.449  21.617  0.00  0.00    +0.000 C 
ATOM     31  O   UNL     1       1.916   9.224  22.563  0.00  0.00    +0.000 OA
BRANCH  25  32
ATOM     32  O   UNL     1      -4.093  12.038  17.822  0.00  0.00    +0.000 OA
ATOM     33  C   UNL     1      -5.055  10.969  17.792  0.00  0.00    +0.000 C 
ENDBRANCH  25  32
BRANCH  26  34
ATOM     34  O   UNL     1      -4.329  13.392  20.058  0.00  0.00    +0.000 OA
ATOM     35  C   UNL     1      -5.082  13.626  21.224  0.00  0.00    +0.000 C 
ENDBRANCH  26  34
ENDBRANCH  19  20
ENDBRANCH   1  19
TORSDOF 13
ENDMDL
MODEL 6
REMARK VINA RESULT:      -6.7      3.983      6.685
REMARK  Name = 
REMARK  18 active torsions:
REMARK  status: ('A' for Active; 'I' for Inactive)
REMARK    1  A    between atoms: C_1  and  O_2
REMARK    2  A    between atoms: O_2  and  C_3
REMARK    3  A    between atoms: C_6  and  O_7
REMARK    4  A    between atoms: O_7  and  C_8
REMARK    5  A    between atoms: C_8  and  C_9
REMARK    6  A    between atoms: C_9  and  C_10
REMARK    7  A    between atoms: C_10  and  N_11
REMARK    8  A    between atoms: N_11  and  C_12
REMARK    9  A    between atoms: N_11  and  C_13
REMARK   10  A    between atoms: C_13  and  C_14
REMARK   11  A    between atoms: C_14  and  C_15
REMARK   12  A    between atoms: C_15  and  N_16
REMARK   13  A    between atoms: C_21  and  O_22
REMARK   14  A    between atoms: O_22  and  C_23
REMARK   15  A    between atoms: C_24  and  O_25
REMARK   16  A    between atoms: O_25  and  C_26
REMARK   17  A    between atoms: C_33  and  O_34
REMARK   18  A    between atoms: O_34  and  C_35
REMARK                            x       y       z     vdW  Elec       q    Type
REMARK                         _______ _______ _______ _____ _____    ______ ____
ROOT
ATOM      1  C   UNL     1       4.921   4.730  17.169  0.00  0.00    +0.000 C 
ENDROOT
BRANCH   1   2
ATOM      2  C   UNL     1       5.637   5.305  18.402  0.00  0.00    +0.000 C 
BRANCH   2   3
ATOM      3  N   UNL     1       6.963   5.837  18.106  0.00  0.00    +0.000 NA
ATOM      4  C   UNL     1       7.780   5.879  19.318  0.00  0.00    +0.000 C 
BRANCH   3   5
ATOM      5  C   UNL     1       6.891   7.141  17.434  0.00  0.00    +0.000 C 
BRANCH   5   6
ATOM      6  C   UNL     1       8.167   7.971  17.558  0.00  0.00    +0.000 C 
BRANCH   6   7
ATOM      7  C   UNL     1       7.872   9.420  17.925  0.00  0.00    +0.000 C 
BRANCH   7   8
ATOM      8  O   UNL     1       8.980   9.916  18.680  0.00  0.00    +0.000 OA
BRANCH   8  12
ATOM      9  C   UNL     1      10.551  13.580  17.435  0.00  0.00    +0.000 A 
ATOM     10  C   UNL     1      11.314  12.401  17.467  0.00  0.00    +0.000 A 
ATOM     11  C   UNL     1      10.750  11.196  17.887  0.00  0.00    +0.000 A 
ATOM     12  C   UNL     1       9.433  11.157  18.331  0.00  0.00    +0.000 A 
ATOM     13  C   UNL     1       8.703  12.343  18.389  0.00  0.00    +0.000 A 
ATOM     14  C   UNL     1       9.246  13.560  17.946  0.00  0.00    +0.000 A 
BRANCH   9  16
ATOM     15  C   UNL     1      11.779  15.551  17.877  0.00  0.00    +0.000 C 
ATOM     16  O   UNL     1      11.071  14.744  16.934  0.00  0.00    +0.000 OA
ENDBRANCH   9  16
BRANCH  14  17
ATOM     17  O   UNL     1       8.346  14.584  18.070  0.00  0.00    +0.000 OA
ATOM     18  C   UNL     1       8.194  15.237  19.316  0.00  0.00    +0.000 C 
ENDBRANCH  14  17
ENDBRANCH   8  12
ENDBRANCH   7   8
ENDBRANCH   6   7
ENDBRANCH   5   6
ENDBRANCH   3   5
ENDBRANCH   2   3
ENDBRANCH   1   2
BRANCH   1  19
ATOM     19  C   UNL     1       3.437   4.352  17.423  0.00  0.00    +0.000 C 
BRANCH  19  20
ATOM     20  N   UNL     1       2.757   5.306  18.316  0.00  0.00    +0.000 N 
ATOM     21  C   UNL     1       2.693   6.643  17.678  0.00  0.00    +0.000 C 
ATOM     22  C   UNL     1       2.458   7.411  18.852  0.00  0.00    +0.000 C 
ATOM     23  C   UNL     1       1.794   8.360  19.650  0.00  0.00    +0.000 A 
ATOM     24  C   UNL     1       1.576   9.618  19.178  0.00  0.00    +0.000 A 
ATOM     25  C   UNL     1       0.885  10.469  19.984  0.00  0.00    +0.000 A 
ATOM     26  C   UNL     1       0.563  10.055  21.306  0.00  0.00    +0.000 A 
ATOM     27  C   UNL     1       0.833   8.703  21.758  0.00  0.00    +0.000 A 
ATOM     28  C   UNL     1       1.433   7.782  20.874  0.00  0.00    +0.000 A 
ATOM     29  C   UNL     1       1.775   6.158  21.006  0.00  0.00    +0.000 C 
ATOM     30  C   UNL     1       2.436   5.043  19.743  0.00  0.00    +0.000 C 
ATOM     31  O   UNL     1       2.661   3.867  20.144  0.00  0.00    +0.000 OA
BRANCH  25  32
ATOM     32  O   UNL     1       0.514  11.709  19.511  0.00  0.00    +0.000 OA
ATOM     33  C   UNL     1      -0.717  11.697  18.769  0.00  0.00    +0.000 C 
ENDBRANCH  25  32
BRANCH  26  34
ATOM     34  O   UNL     1      -0.042  11.072  21.996  0.00  0.00    +0.000 OA
ATOM     35  C   UNL     1      -1.062  10.835  22.937  0.00  0.00    +0.000 C 
ENDBRANCH  26  34
ENDBRANCH  19  20
ENDBRANCH   1  19
TORSDOF 13
ENDMDL
MODEL 7
REMARK VINA RESULT:      -6.6      4.891      9.308
REMARK  Name = 
REMARK  18 active torsions:
REMARK  status: ('A' for Active; 'I' for Inactive)
REMARK    1  A    between atoms: C_1  and  O_2
REMARK    2  A    between atoms: O_2  and  C_3
REMARK    3  A    between atoms: C_6  and  O_7
REMARK    4  A    between atoms: O_7  and  C_8
REMARK    5  A    between atoms: C_8  and  C_9
REMARK    6  A    between atoms: C_9  and  C_10
REMARK    7  A    between atoms: C_10  and  N_11
REMARK    8  A    between atoms: N_11  and  C_12
REMARK    9  A    between atoms: N_11  and  C_13
REMARK   10  A    between atoms: C_13  and  C_14
REMARK   11  A    between atoms: C_14  and  C_15
REMARK   12  A    between atoms: C_15  and  N_16
REMARK   13  A    between atoms: C_21  and  O_22
REMARK   14  A    between atoms: O_22  and  C_23
REMARK   15  A    between atoms: C_24  and  O_25
REMARK   16  A    between atoms: O_25  and  C_26
REMARK   17  A    between atoms: C_33  and  O_34
REMARK   18  A    between atoms: O_34  and  C_35
REMARK                            x       y       z     vdW  Elec       q    Type
REMARK                         _______ _______ _______ _____ _____    ______ ____
ROOT
ATOM      1  C   UNL     1       1.387  11.991  20.593  0.00  0.00    +0.000 C 
ENDROOT
BRANCH   1   2
ATOM      2  C   UNL     1       2.181  12.990  19.734  0.00  0.00    +0.000 C 
BRANCH   2   3
ATOM      3  N   UNL     1       1.761  14.375  19.921  0.00  0.00    +0.000 NA
ATOM      4  C   UNL     1       0.696  14.719  18.980  0.00  0.00    +0.000 C 
BRANCH   3   5
ATOM      5  C   UNL     1       2.896  15.305  19.846  0.00  0.00    +0.000 C 
BRANCH   5   6
ATOM      6  C   UNL     1       4.227  14.630  19.520  0.00  0.00    +0.000 C 
BRANCH   6   7
ATOM      7  C   UNL     1       4.921  15.281  18.330  0.00  0.00    +0.000 C 
BRANCH   7   8
ATOM      8  O   UNL     1       5.676  14.272  17.656  0.00  0.00    +0.000 OA
BRANCH   8  12
ATOM      9  C   UNL     1       9.844  14.276  17.905  0.00  0.00    +0.000 A 
ATOM     10  C   UNL     1       9.106  13.123  17.596  0.00  0.00    +0.000 A 
ATOM     11  C   UNL     1       7.713  13.164  17.519  0.00  0.00    +0.000 A 
ATOM     12  C   UNL     1       7.032  14.342  17.801  0.00  0.00    +0.000 A 
ATOM     13  C   UNL     1       7.757  15.464  18.200  0.00  0.00    +0.000 A 
ATOM     14  C   UNL     1       9.159  15.448  18.257  0.00  0.00    +0.000 A 
BRANCH   9  16
ATOM     15  C   UNL     1      11.804  13.465  16.861  0.00  0.00    +0.000 C 
ATOM     16  O   UNL     1      11.214  14.264  17.888  0.00  0.00    +0.000 OA
ENDBRANCH   9  16
BRANCH  14  17
ATOM     17  O   UNL     1       9.659  16.662  18.646  0.00  0.00    +0.000 OA
ATOM     18  C   UNL     1       8.937  17.843  18.353  0.00  0.00    +0.000 C 
ENDBRANCH  14  17
ENDBRANCH   8  12
ENDBRANCH   7   8
ENDBRANCH   6   7
ENDBRANCH   5   6
ENDBRANCH   3   5
ENDBRANCH   2   3
ENDBRANCH   1   2
BRANCH   1  19
ATOM     19  C   UNL     1       0.405  11.105  19.781  0.00  0.00    +0.000 C 
BRANCH  19  20
ATOM     20  N   UNL     1       0.981   9.794  19.436  0.00  0.00    +0.000 N 
ATOM     21  C   UNL     1       0.850   8.864  20.583  0.00  0.00    +0.000 C 
ATOM     22  C   UNL     1       1.841   7.923  20.188  0.00  0.00    +0.000 C 
ATOM     23  C   UNL     1       2.352   6.642  19.908  0.00  0.00    +0.000 A 
ATOM     24  C   UNL     1       2.238   5.644  20.826  0.00  0.00    +0.000 A 
ATOM     25  C   UNL     1       2.710   4.419  20.468  0.00  0.00    +0.000 A 
ATOM     26  C   UNL     1       3.416   4.286  19.240  0.00  0.00    +0.000 A 
ATOM     27  C   UNL     1       3.517   5.391  18.307  0.00  0.00    +0.000 A 
ATOM     28  C   UNL     1       2.912   6.626  18.624  0.00  0.00    +0.000 A 
ATOM     29  C   UNL     1       2.729   8.040  17.765  0.00  0.00    +0.000 C 
ATOM     30  C   UNL     1       1.812   9.528  18.233  0.00  0.00    +0.000 C 
ATOM     31  O   UNL     1       1.900  10.482  17.411  0.00  0.00    +0.000 OA
BRANCH  25  32
ATOM     32  O   UNL     1       2.502   3.338  21.296  0.00  0.00    +0.000 OA
ATOM     33  C   UNL     1       1.214   2.722  21.126  0.00  0.00    +0.000 C 
ENDBRANCH  25  32
BRANCH  26  34
ATOM     34  O   UNL     1       3.898   3.012  19.098  0.00  0.00    +0.000 OA
ATOM     35  C   UNL     1       3.436   2.146  18.088  0.00  0.00    +0.000 C 
ENDBRANCH  26  34
ENDBRANCH  19  20
ENDBRANCH   1  19
TORSDOF 13
ENDMDL
MODEL 8
REMARK VINA RESULT:      -6.6      1.450      2.483
REMARK  Name = 
REMARK  18 active torsions:
REMARK  status: ('A' for Active; 'I' for Inactive)
REMARK    1  A    between atoms: C_1  and  O_2
REMARK    2  A    between atoms: O_2  and  C_3
REMARK    3  A    between atoms: C_6  and  O_7
REMARK    4  A    between atoms: O_7  and  C_8
REMARK    5  A    between atoms: C_8  and  C_9
REMARK    6  A    between atoms: C_9  and  C_10
REMARK    7  A    between atoms: C_10  and  N_11
REMARK    8  A    between atoms: N_11  and  C_12
REMARK    9  A    between atoms: N_11  and  C_13
REMARK   10  A    between atoms: C_13  and  C_14
REMARK   11  A    between atoms: C_14  and  C_15
REMARK   12  A    between atoms: C_15  and  N_16
REMARK   13  A    between atoms: C_21  and  O_22
REMARK   14  A    between atoms: O_22  and  C_23
REMARK   15  A    between atoms: C_24  and  O_25
REMARK   16  A    between atoms: O_25  and  C_26
REMARK   17  A    between atoms: C_33  and  O_34
REMARK   18  A    between atoms: O_34  and  C_35
REMARK                            x       y       z     vdW  Elec       q    Type
REMARK                         _______ _______ _______ _____ _____    ______ ____
ROOT
ATOM      1  C   UNL     1       2.949   4.914  20.641  0.00  0.00    +0.000 C 
ENDROOT
BRANCH   1   2
ATOM      2  C   UNL     1       2.433   3.497  20.337  0.00  0.00    +0.000 C 
BRANCH   2   3
ATOM      3  N   UNL     1       1.497   3.450  19.219  0.00  0.00    +0.000 NA
ATOM      4  C   UNL     1       0.131   3.253  19.702  0.00  0.00    +0.000 C 
BRANCH   3   5
ATOM      5  C   UNL     1       1.888   2.445  18.221  0.00  0.00    +0.000 C 
BRANCH   5   6
ATOM      6  C   UNL     1       3.204   1.739  18.538  0.00  0.00    +0.000 C 
BRANCH   6   7
ATOM      7  C   UNL     1       4.413   2.583  18.154  0.00  0.00    +0.000 C 
BRANCH   7   8
ATOM      8  O   UNL     1       4.067   3.345  16.996  0.00  0.00    +0.000 OA
BRANCH   8  12
ATOM      9  C   UNL     1       7.111   5.054  14.704  0.00  0.00    +0.000 A 
ATOM     10  C   UNL     1       6.291   4.020  14.223  0.00  0.00    +0.000 A 
ATOM     11  C   UNL     1       5.283   3.478  15.020  0.00  0.00    +0.000 A 
ATOM     12  C   UNL     1       5.109   3.921  16.326  0.00  0.00    +0.000 A 
ATOM     13  C   UNL     1       5.982   4.881  16.837  0.00  0.00    +0.000 A 
ATOM     14  C   UNL     1       6.985   5.456  16.041  0.00  0.00    +0.000 A 
BRANCH   9  16
ATOM     15  C   UNL     1       7.937   5.331  12.506  0.00  0.00    +0.000 C 
ATOM     16  O   UNL     1       8.038   5.655  13.894  0.00  0.00    +0.000 OA
ENDBRANCH   9  16
BRANCH  14  17
ATOM     17  O   UNL     1       7.703   6.390  16.738  0.00  0.00    +0.000 OA
ATOM     18  C   UNL     1       7.026   7.438  17.405  0.00  0.00    +0.000 C 
ENDBRANCH  14  17
ENDBRANCH   8  12
ENDBRANCH   7   8
ENDBRANCH   6   7
ENDBRANCH   5   6
ENDBRANCH   3   5
ENDBRANCH   2   3
ENDBRANCH   1   2
BRANCH   1  19
ATOM     19  C   UNL     1       3.388   5.708  19.382  0.00  0.00    +0.000 C 
BRANCH  19  20
ATOM     20  N   UNL     1       2.764   7.040  19.310  0.00  0.00    +0.000 N 
ATOM     21  C   UNL     1       1.881   7.252  20.483  0.00  0.00    +0.000 C 
ATOM     22  C   UNL     1       1.097   8.313  19.950  0.00  0.00    +0.000 C 
ATOM     23  C   UNL     1       0.491   9.583  19.950  0.00  0.00    +0.000 A 
ATOM     24  C   UNL     1      -0.286   9.971  20.998  0.00  0.00    +0.000 A 
ATOM     25  C   UNL     1      -0.800  11.229  20.953  0.00  0.00    +0.000 A 
ATOM     26  C   UNL     1      -0.622  12.003  19.772  0.00  0.00    +0.000 A 
ATOM     27  C   UNL     1       0.207  11.530  18.680  0.00  0.00    +0.000 A 
ATOM     28  C   UNL     1       0.846  10.276  18.786  0.00  0.00    +0.000 A 
ATOM     29  C   UNL     1       1.936   9.485  17.807  0.00  0.00    +0.000 C 
ATOM     30  C   UNL     1       2.792   7.921  18.114  0.00  0.00    +0.000 C 
ATOM     31  O   UNL     1       3.517   7.522  17.161  0.00  0.00    +0.000 OA
BRANCH  25  32
ATOM     32  O   UNL     1      -1.480  11.729  22.042  0.00  0.00    +0.000 OA
ATOM     33  C   UNL     1      -1.300  10.954  23.239  0.00  0.00    +0.000 C 
ENDBRANCH  25  32
BRANCH  26  34
ATOM     34  O   UNL     1      -1.287  13.196  19.874  0.00  0.00    +0.000 OA
ATOM     35  C   UNL     1      -0.615  14.408  20.120  0.00  0.00    +0.000 C 
ENDBRANCH  26  34
ENDBRANCH  19  20
ENDBRANCH   1  19
TORSDOF 13
ENDMDL
MODEL 9
REMARK VINA RESULT:      -6.6      1.144      1.436
REMARK  Name = 
REMARK  18 active torsions:
REMARK  status: ('A' for Active; 'I' for Inactive)
REMARK    1  A    between atoms: C_1  and  O_2
REMARK    2  A    between atoms: O_2  and  C_3
REMARK    3  A    between atoms: C_6  and  O_7
REMARK    4  A    between atoms: O_7  and  C_8
REMARK    5  A    between atoms: C_8  and  C_9
REMARK    6  A    between atoms: C_9  and  C_10
REMARK    7  A    between atoms: C_10  and  N_11
REMARK    8  A    between atoms: N_11  and  C_12
REMARK    9  A    between atoms: N_11  and  C_13
REMARK   10  A    between atoms: C_13  and  C_14
REMARK   11  A    between atoms: C_14  and  C_15
REMARK   12  A    between atoms: C_15  and  N_16
REMARK   13  A    between atoms: C_21  and  O_22
REMARK   14  A    between atoms: O_22  and  C_23
REMARK   15  A    between atoms: C_24  and  O_25
REMARK   16  A    between atoms: O_25  and  C_26
REMARK   17  A    between atoms: C_33  and  O_34
REMARK   18  A    between atoms: O_34  and  C_35
REMARK                            x       y       z     vdW  Elec       q    Type
REMARK                         _______ _______ _______ _____ _____    ______ ____
ROOT
ATOM      1  C   UNL     1       1.943   5.410  20.736  0.00  0.00    +0.000 C 
ENDROOT
BRANCH   1   2
ATOM      2  C   UNL     1       1.380   4.021  20.389  0.00  0.00    +0.000 C 
BRANCH   2   3
ATOM      3  N   UNL     1       1.675   3.601  19.024  0.00  0.00    +0.000 NA
ATOM      4  C   UNL     1       0.438   3.357  18.284  0.00  0.00    +0.000 C 
BRANCH   3   5
ATOM      5  C   UNL     1       2.584   2.447  18.991  0.00  0.00    +0.000 C 
BRANCH   5   6
ATOM      6  C   UNL     1       3.545   2.384  20.176  0.00  0.00    +0.000 C 
BRANCH   6   7
ATOM      7  C   UNL     1       4.888   3.030  19.859  0.00  0.00    +0.000 C 
BRANCH   7   8
ATOM      8  O   UNL     1       5.020   3.093  18.437  0.00  0.00    +0.000 OA
BRANCH   8  12
ATOM      9  C   UNL     1       6.712   6.698  17.181  0.00  0.00    +0.000 A 
ATOM     10  C   UNL     1       5.911   6.598  18.330  0.00  0.00    +0.000 A 
ATOM     11  C   UNL     1       5.366   5.373  18.717  0.00  0.00    +0.000 A 
ATOM     12  C   UNL     1       5.568   4.240  17.938  0.00  0.00    +0.000 A 
ATOM     13  C   UNL     1       6.284   4.356  16.748  0.00  0.00    +0.000 A 
ATOM     14  C   UNL     1       6.861   5.575  16.356  0.00  0.00    +0.000 A 
BRANCH   9  16
ATOM     15  C   UNL     1       8.160   8.437  17.866  0.00  0.00    +0.000 C 
ATOM     16  O   UNL     1       7.327   7.876  16.850  0.00  0.00    +0.000 OA
ENDBRANCH   9  16
BRANCH  14  17
ATOM     17  O   UNL     1       7.538   5.451  15.173  0.00  0.00    +0.000 OA
ATOM     18  C   UNL     1       6.941   4.756  14.093  0.00  0.00    +0.000 C 
ENDBRANCH  14  17
ENDBRANCH   8  12
ENDBRANCH   7   8
ENDBRANCH   6   7
ENDBRANCH   5   6
ENDBRANCH   3   5
ENDBRANCH   2   3
ENDBRANCH   1   2
BRANCH   1  19
ATOM     19  C   UNL     1       2.352   6.250  19.497  0.00  0.00    +0.000 C 
BRANCH  19  20
ATOM     20  N   UNL     1       1.980   7.669  19.631  0.00  0.00    +0.000 N 
ATOM     21  C   UNL     1       1.270   7.889  20.914  0.00  0.00    +0.000 C 
ATOM     22  C   UNL     1       0.646   9.125  20.585  0.00  0.00    +0.000 C 
ATOM     23  C   UNL     1       0.288  10.471  20.781  0.00  0.00    +0.000 A 
ATOM     24  C   UNL     1      -0.300  10.860  21.946  0.00  0.00    +0.000 A 
ATOM     25  C   UNL     1      -0.575  12.185  22.087  0.00  0.00    +0.000 A 
ATOM     26  C   UNL     1      -0.373  13.051  20.976  0.00  0.00    +0.000 A 
ATOM     27  C   UNL     1       0.245  12.575  19.754  0.00  0.00    +0.000 A 
ATOM     28  C   UNL     1       0.650  11.227  19.659  0.00  0.00    +0.000 A 
ATOM     29  C   UNL     1       1.475  10.382  18.486  0.00  0.00    +0.000 C 
ATOM     30  C   UNL     1       2.054   8.668  18.533  0.00  0.00    +0.000 C 
ATOM     31  O   UNL     1       2.598   8.266  17.467  0.00  0.00    +0.000 OA
BRANCH  25  32
ATOM     32  O   UNL     1      -1.042  12.661  23.292  0.00  0.00    +0.000 OA
ATOM     33  C   UNL     1      -2.428  12.364  23.531  0.00  0.00    +0.000 C 
ENDBRANCH  25  32
BRANCH  26  34
ATOM     34  O   UNL     1      -0.794  14.320  21.273  0.00  0.00    +0.000 OA
ATOM     35  C   UNL     1      -1.930  14.892  20.668  0.00  0.00    +0.000 C 
ENDBRANCH  26  34
ENDBRANCH  19  20
ENDBRANCH   1  19
TORSDOF 13
ENDMDL
