MODEL 1
REMARK VINA RESULT:      -7.1      0.000      0.000
REMARK  Name = 
REMARK  12 active torsions:
REMARK  status: ('A' for Active; 'I' for Inactive)
REMARK    1  A    between atoms: N_1  and  C_2
REMARK    2  A    between atoms: C_2  and  C_3
REMARK    3  A    between atoms: N_5  and  C_6
REMARK    4  A    between atoms: C_6  and  C_7
REMARK    5  A    between atoms: C_6  and  P_15
REMARK    6  A    between atoms: C_7  and  C_8
REMARK    7  A    between atoms: C_8  and  C_9
REMARK    8  A    between atoms: P_15  and  O_17
REMARK    9  A    between atoms: P_15  and  C_18
REMARK   10  A    between atoms: C_18  and  C_19
REMARK   11  A    between atoms: C_19  and  C_20
REMARK   12  A    between atoms: C_20  and  O_22
REMARK                            x       y       z     vdW  Elec       q    Type
REMARK                         _______ _______ _______ _____ _____    ______ ____
ROOT
ATOM      1  C   UNL     1       5.970   5.748  17.601  0.00  0.00    +0.000 C 
ENDROOT
BRANCH   1   4
ATOM      2  C   UNL     1       7.648   7.573  17.946  0.00  0.00    +0.000 C 
ATOM      3  O   UNL     1       8.273   6.913  18.762  0.00  0.00    +0.000 OA
ATOM      4  N   UNL     1       6.528   7.074  17.339  0.00  0.00    +0.000 N 
ATOM      5  H   UNL     1       6.031   7.672  16.661  0.00  0.00    +0.000 HD
BRANCH   2   6
ATOM      6  C   UNL     1       8.118   8.963  17.632  0.00  0.00    +0.000 C 
BRANCH   6   7
ATOM      7  N   UNL     1       8.835   9.505  18.780  0.00  0.00    +0.000 NA
ATOM      8  H   UNL     1       8.147   9.981  19.406  0.00  0.00    +0.000 HD
ATOM      9  H   UNL     1       9.517  10.224  18.442  0.00  0.00    +0.000 HD
ENDBRANCH   6   7
ENDBRANCH   2   6
ENDBRANCH   1   4
BRANCH   1  10
ATOM     10  P   UNL     1       6.145   4.729  16.091  0.00  0.00    +0.000 P 
ATOM     11  O   UNL     1       6.399   6.008  15.245  0.00  0.00    +0.000 OA
BRANCH  10  12
ATOM     12  O   UNL     1       7.837   4.575  16.513  0.00  0.00    +0.000 OA
ATOM     13  H   UNL     1       8.266   5.453  16.389  0.00  0.00    +0.000 HD
ENDBRANCH  10  12
BRANCH  10  14
ATOM     14  C   UNL     1       6.320   3.710  14.581  0.00  0.00    +0.000 C 
BRANCH  14  15
ATOM     15  C   UNL     1       5.467   4.156  13.363  0.00  0.00    +0.000 C 
BRANCH  15  16
ATOM     16  C   UNL     1       5.544   3.192  12.215  0.00  0.00    +0.000 C 
ATOM     17  O   UNL     1       4.564   3.005  11.510  0.00  0.00    +0.000 OA
BRANCH  16  18
ATOM     18  O   UNL     1       6.670   2.489  11.979  0.00  0.00    +0.000 OA
ATOM     19  H   UNL     1       7.542   2.888  12.096  0.00  0.00    +0.000 HD
ENDBRANCH  16  18
ENDBRANCH  15  16
ENDBRANCH  14  15
ENDBRANCH  10  14
ENDBRANCH   1  10
BRANCH   1  20
ATOM     20  C   UNL     1       4.478   5.917  18.062  0.00  0.00    +0.000 C 
BRANCH  20  21
ATOM     21  C   UNL     1       3.449   4.955  17.443  0.00  0.00    +0.000 C 
BRANCH  21  22
ATOM     22  C   UNL     1       2.531   4.341  18.482  0.00  0.00    +0.000 A 
ATOM     23  C   UNL     1       2.484   4.881  19.785  0.00  0.00    +0.000 A 
ATOM     24  C   UNL     1       1.638   4.328  20.749  0.00  0.00    +0.000 A 
ATOM     25  C   UNL     1       0.833   3.234  20.429  0.00  0.00    +0.000 A 
ATOM     26  C   UNL     1       0.869   2.693  19.141  0.00  0.00    +0.000 A 
ATOM     27  C   UNL     1       1.711   3.244  18.168  0.00  0.00    +0.000 A 
ENDBRANCH  21  22
ENDBRANCH  20  21
ENDBRANCH   1  20
TORSDOF 12
ENDMDL
MODEL 2
REMARK VINA RESULT:      -7.0      1.500      2.091
REMARK  Name = 
REMARK  12 active torsions:
REMARK  status: ('A' for Active; 'I' for Inactive)
REMARK    1  A    between atoms: N_1  and  C_2
REMARK    2  A    between atoms: C_2  and  C_3
REMARK    3  A    between atoms: N_5  and  C_6
REMARK    4  A    between atoms: C_6  and  C_7
REMARK    5  A    between atoms: C_6  and  P_15
REMARK    6  A    between atoms: C_7  and  C_8
REMARK    7  A    between atoms: C_8  and  C_9
REMARK    8  A    between atoms: P_15  and  O_17
REMARK    9  A    between atoms: P_15  and  C_18
REMARK   10  A    between atoms: C_18  and  C_19
REMARK   11  A    between atoms: C_19  and  C_20
REMARK   12  A    between atoms: C_20  and  O_22
REMARK                            x       y       z     vdW  Elec       q    Type
REMARK                         _______ _______ _______ _____ _____    ______ ____
ROOT
ATOM      1  C   UNL     1       6.065   4.043  16.326  0.00  0.00    +0.000 C 
ENDROOT
BRANCH   1   4
ATOM      2  C   UNL     1       7.387   5.531  17.844  0.00  0.00    +0.000 C 
ATOM      3  O   UNL     1       7.862   4.580  18.447  0.00  0.00    +0.000 OA
ATOM      4  N   UNL     1       6.517   5.349  16.805  0.00  0.00    +0.000 N 
ATOM      5  H   UNL     1       6.139   6.184  16.331  0.00  0.00    +0.000 HD
BRANCH   2   6
ATOM      6  C   UNL     1       7.760   6.917  18.280  0.00  0.00    +0.000 C 
BRANCH   6   7
ATOM      7  N   UNL     1       7.567   7.845  17.172  0.00  0.00    +0.000 NA
ATOM      8  H   UNL     1       8.203   7.565  16.391  0.00  0.00    +0.000 HD
ATOM      9  H   UNL     1       7.843   8.805  17.485  0.00  0.00    +0.000 HD
ENDBRANCH   6   7
ENDBRANCH   2   6
ENDBRANCH   1   4
BRANCH   1  10
ATOM     10  P   UNL     1       6.240   3.992  14.505  0.00  0.00    +0.000 P 
ATOM     11  O   UNL     1       5.386   5.285  14.377  0.00  0.00    +0.000 OA
BRANCH  10  12
ATOM     12  O   UNL     1       7.723   4.897  14.723  0.00  0.00    +0.000 OA
ATOM     13  H   UNL     1       8.442   4.260  14.944  0.00  0.00    +0.000 HD
ENDBRANCH  10  12
BRANCH  10  14
ATOM     14  C   UNL     1       6.416   3.942  12.685  0.00  0.00    +0.000 C 
BRANCH  14  15
ATOM     15  C   UNL     1       5.594   2.843  11.958  0.00  0.00    +0.000 C 
BRANCH  15  16
ATOM     16  C   UNL     1       6.452   1.735  11.421  0.00  0.00    +0.000 C 
ATOM     17  O   UNL     1       7.597   1.968  11.064  0.00  0.00    +0.000 OA
BRANCH  16  18
ATOM     18  O   UNL     1       5.960   0.487  11.282  0.00  0.00    +0.000 OA
ATOM     19  H   UNL     1       6.544  -0.266  11.119  0.00  0.00    +0.000 HD
ENDBRANCH  16  18
ENDBRANCH  15  16
ENDBRANCH  14  15
ENDBRANCH  10  14
ENDBRANCH   1  10
BRANCH   1  20
ATOM     20  C   UNL     1       4.589   3.817  16.811  0.00  0.00    +0.000 C 
BRANCH  20  21
ATOM     21  C   UNL     1       3.848   5.044  17.371  0.00  0.00    +0.000 C 
BRANCH  21  22
ATOM     22  C   UNL     1       2.833   4.673  18.434  0.00  0.00    +0.000 A 
ATOM     23  C   UNL     1       1.975   3.572  18.232  0.00  0.00    +0.000 A 
ATOM     24  C   UNL     1       1.039   3.216  19.207  0.00  0.00    +0.000 A 
ATOM     25  C   UNL     1       0.947   3.951  20.390  0.00  0.00    +0.000 A 
ATOM     26  C   UNL     1       1.795   5.042  20.602  0.00  0.00    +0.000 A 
ATOM     27  C   UNL     1       2.738   5.402  19.632  0.00  0.00    +0.000 A 
ENDBRANCH  21  22
ENDBRANCH  20  21
ENDBRANCH   1  20
TORSDOF 12
ENDMDL
MODEL 3
REMARK VINA RESULT:      -7.0      0.850      1.012
REMARK  Name = 
REMARK  12 active torsions:
REMARK  status: ('A' for Active; 'I' for Inactive)
REMARK    1  A    between atoms: N_1  and  C_2
REMARK    2  A    between atoms: C_2  and  C_3
REMARK    3  A    between atoms: N_5  and  C_6
REMARK    4  A    between atoms: C_6  and  C_7
REMARK    5  A    between atoms: C_6  and  P_15
REMARK    6  A    between atoms: C_7  and  C_8
REMARK    7  A    between atoms: C_8  and  C_9
REMARK    8  A    between atoms: P_15  and  O_17
REMARK    9  A    between atoms: P_15  and  C_18
REMARK   10  A    between atoms: C_18  and  C_19
REMARK   11  A    between atoms: C_19  and  C_20
REMARK   12  A    between atoms: C_20  and  O_22
REMARK                            x       y       z     vdW  Elec       q    Type
REMARK                         _______ _______ _______ _____ _____    ______ ____
ROOT
ATOM      1  C   UNL     1       6.573   5.536  17.105  0.00  0.00    +0.000 C 
ENDROOT
BRANCH   1   4
ATOM      2  C   UNL     1       7.721   7.634  17.844  0.00  0.00    +0.000 C 
ATOM      3  O   UNL     1       8.309   7.055  18.745  0.00  0.00    +0.000 OA
ATOM      4  N   UNL     1       6.870   6.965  17.008  0.00  0.00    +0.000 N 
ATOM      5  H   UNL     1       6.393   7.499  16.265  0.00  0.00    +0.000 HD
BRANCH   2   6
ATOM      6  C   UNL     1       7.930   9.111  17.680  0.00  0.00    +0.000 C 
BRANCH   6   7
ATOM      7  N   UNL     1       8.867   9.585  18.691  0.00  0.00    +0.000 NA
ATOM      8  H   UNL     1       8.817  10.629  18.727  0.00  0.00    +0.000 HD
ATOM      9  H   UNL     1       9.837   9.318  18.403  0.00  0.00    +0.000 HD
ENDBRANCH   6   7
ENDBRANCH   2   6
ENDBRANCH   1   4
BRANCH   1  10
ATOM     10  P   UNL     1       5.942   4.957  15.488  0.00  0.00    +0.000 P 
ATOM     11  O   UNL     1       7.397   4.796  14.966  0.00  0.00    +0.000 OA
BRANCH  10  12
ATOM     12  O   UNL     1       5.927   3.350  16.183  0.00  0.00    +0.000 OA
ATOM     13  H   UNL     1       6.387   2.741  15.559  0.00  0.00    +0.000 HD
ENDBRANCH  10  12
BRANCH  10  14
ATOM     14  C   UNL     1       5.310   4.377  13.871  0.00  0.00    +0.000 C 
BRANCH  14  15
ATOM     15  C   UNL     1       6.331   3.619  12.980  0.00  0.00    +0.000 C 
BRANCH  15  16
ATOM     16  C   UNL     1       5.671   2.775  11.929  0.00  0.00    +0.000 C 
ATOM     17  O   UNL     1       4.573   3.088  11.497  0.00  0.00    +0.000 OA
BRANCH  16  18
ATOM     18  O   UNL     1       6.255   1.644  11.486  0.00  0.00    +0.000 OA
ATOM     19  H   UNL     1       5.751   0.977  11.000  0.00  0.00    +0.000 HD
ENDBRANCH  16  18
ENDBRANCH  15  16
ENDBRANCH  14  15
ENDBRANCH  10  14
ENDBRANCH   1  10
BRANCH   1  20
ATOM     20  C   UNL     1       5.555   5.317  18.280  0.00  0.00    +0.000 C 
BRANCH  20  21
ATOM     21  C   UNL     1       4.193   6.023  18.157  0.00  0.00    +0.000 C 
BRANCH  21  22
ATOM     22  C   UNL     1       3.057   5.194  18.722  0.00  0.00    +0.000 A 
ATOM     23  C   UNL     1       2.599   5.433  20.035  0.00  0.00    +0.000 A 
ATOM     24  C   UNL     1       1.549   4.679  20.566  0.00  0.00    +0.000 A 
ATOM     25  C   UNL     1       0.946   3.682  19.798  0.00  0.00    +0.000 A 
ATOM     26  C   UNL     1       1.390   3.439  18.496  0.00  0.00    +0.000 A 
ATOM     27  C   UNL     1       2.438   4.192  17.955  0.00  0.00    +0.000 A 
ENDBRANCH  21  22
ENDBRANCH  20  21
ENDBRANCH   1  20
TORSDOF 12
ENDMDL
MODEL 4
REMARK VINA RESULT:      -7.0      1.524      1.826
REMARK  Name = 
REMARK  12 active torsions:
REMARK  status: ('A' for Active; 'I' for Inactive)
REMARK    1  A    between atoms: N_1  and  C_2
REMARK    2  A    between atoms: C_2  and  C_3
REMARK    3  A    between atoms: N_5  and  C_6
REMARK    4  A    between atoms: C_6  and  C_7
REMARK    5  A    between atoms: C_6  and  P_15
REMARK    6  A    between atoms: C_7  and  C_8
REMARK    7  A    between atoms: C_8  and  C_9
REMARK    8  A    between atoms: P_15  and  O_17
REMARK    9  A    between atoms: P_15  and  C_18
REMARK   10  A    between atoms: C_18  and  C_19
REMARK   11  A    between atoms: C_19  and  C_20
REMARK   12  A    between atoms: C_20  and  O_22
REMARK                            x       y       z     vdW  Elec       q    Type
REMARK                         _______ _______ _______ _____ _____    ______ ____
ROOT
ATOM      1  C   UNL     1       6.194   4.089  16.312  0.00  0.00    +0.000 C 
ENDROOT
BRANCH   1   4
ATOM      2  C   UNL     1       7.487   5.578  17.853  0.00  0.00    +0.000 C 
ATOM      3  O   UNL     1       7.933   4.628  18.480  0.00  0.00    +0.000 OA
ATOM      4  N   UNL     1       6.646   5.395  16.790  0.00  0.00    +0.000 N 
ATOM      5  H   UNL     1       6.292   6.229  16.297  0.00  0.00    +0.000 HD
BRANCH   2   6
ATOM      6  C   UNL     1       7.863   6.964  18.286  0.00  0.00    +0.000 C 
BRANCH   6   7
ATOM      7  N   UNL     1       7.658   7.893  17.181  0.00  0.00    +0.000 NA
ATOM      8  H   UNL     1       7.277   8.787  17.566  0.00  0.00    +0.000 HD
ATOM      9  H   UNL     1       6.943   7.490  16.531  0.00  0.00    +0.000 HD
ENDBRANCH   6   7
ENDBRANCH   2   6
ENDBRANCH   1   4
BRANCH   1  10
ATOM     10  P   UNL     1       6.323   4.056  14.487  0.00  0.00    +0.000 P 
ATOM     11  O   UNL     1       5.285   5.209  14.383  0.00  0.00    +0.000 OA
BRANCH  10  12
ATOM     12  O   UNL     1       7.663   5.169  14.661  0.00  0.00    +0.000 OA
ATOM     13  H   UNL     1       7.703   5.456  15.603  0.00  0.00    +0.000 HD
ENDBRANCH  10  12
BRANCH  10  14
ATOM     14  C   UNL     1       6.452   4.023  12.662  0.00  0.00    +0.000 C 
BRANCH  14  15
ATOM     15  C   UNL     1       5.650   2.900  11.949  0.00  0.00    +0.000 C 
BRANCH  15  16
ATOM     16  C   UNL     1       6.529   1.799  11.429  0.00  0.00    +0.000 C 
ATOM     17  O   UNL     1       7.649   2.057  11.016  0.00  0.00    +0.000 OA
BRANCH  16  18
ATOM     18  O   UNL     1       6.079   0.530  11.366  0.00  0.00    +0.000 OA
ATOM     19  H   UNL     1       5.331   0.292  10.802  0.00  0.00    +0.000 HD
ENDBRANCH  16  18
ENDBRANCH  15  16
ENDBRANCH  14  15
ENDBRANCH  10  14
ENDBRANCH   1  10
BRANCH   1  20
ATOM     20  C   UNL     1       4.733   3.845  16.832  0.00  0.00    +0.000 C 
BRANCH  20  21
ATOM     21  C   UNL     1       3.968   5.075  17.351  0.00  0.00    +0.000 C 
BRANCH  21  22
ATOM     22  C   UNL     1       2.968   4.721  18.434  0.00  0.00    +0.000 A 
ATOM     23  C   UNL     1       3.091   5.293  19.718  0.00  0.00    +0.000 A 
ATOM     24  C   UNL     1       2.172   4.979  20.723  0.00  0.00    +0.000 A 
ATOM     25  C   UNL     1       1.125   4.095  20.462  0.00  0.00    +0.000 A 
ATOM     26  C   UNL     1       0.992   3.525  19.193  0.00  0.00    +0.000 A 
ATOM     27  C   UNL     1       1.905   3.837  18.179  0.00  0.00    +0.000 A 
ENDBRANCH  21  22
ENDBRANCH  20  21
ENDBRANCH   1  20
TORSDOF 12
ENDMDL
MODEL 5
REMARK VINA RESULT:      -6.9      3.714      5.342
REMARK  Name = 
REMARK  12 active torsions:
REMARK  status: ('A' for Active; 'I' for Inactive)
REMARK    1  A    between atoms: N_1  and  C_2
REMARK    2  A    between atoms: C_2  and  C_3
REMARK    3  A    between atoms: N_5  and  C_6
REMARK    4  A    between atoms: C_6  and  C_7
REMARK    5  A    between atoms: C_6  and  P_15
REMARK    6  A    between atoms: C_7  and  C_8
REMARK    7  A    between atoms: C_8  and  C_9
REMARK    8  A    between atoms: P_15  and  O_17
REMARK    9  A    between atoms: P_15  and  C_18
REMARK   10  A    between atoms: C_18  and  C_19
REMARK   11  A    between atoms: C_19  and  C_20
REMARK   12  A    between atoms: C_20  and  O_22
REMARK                            x       y       z     vdW  Elec       q    Type
REMARK                         _______ _______ _______ _____ _____    ______ ____
ROOT
ATOM      1  C   UNL     1       4.974   5.486  17.700  0.00  0.00    +0.000 C 
ENDROOT
BRANCH   1   4
ATOM      2  C   UNL     1       6.590   4.958  15.863  0.00  0.00    +0.000 C 
ATOM      3  O   UNL     1       7.554   5.088  16.603  0.00  0.00    +0.000 OA
ATOM      4  N   UNL     1       5.314   5.129  16.323  0.00  0.00    +0.000 N 
ATOM      5  H   UNL     1       4.534   5.013  15.658  0.00  0.00    +0.000 HD
BRANCH   2   6
ATOM      6  C   UNL     1       6.832   4.625  14.420  0.00  0.00    +0.000 C 
BRANCH   6   7
ATOM      7  N   UNL     1       7.839   5.527  13.874  0.00  0.00    +0.000 NA
ATOM      8  H   UNL     1       8.783   5.190  14.173  0.00  0.00    +0.000 HD
ATOM      9  H   UNL     1       7.693   6.480  14.280  0.00  0.00    +0.000 HD
ENDBRANCH   6   7
ENDBRANCH   2   6
ENDBRANCH   1   4
BRANCH   1  10
ATOM     10  P   UNL     1       4.325   4.001  18.549  0.00  0.00    +0.000 P 
ATOM     11  O   UNL     1       4.309   3.225  17.201  0.00  0.00    +0.000 OA
BRANCH  10  12
ATOM     12  O   UNL     1       5.994   3.576  18.866  0.00  0.00    +0.000 OA
ATOM     13  H   UNL     1       6.098   2.608  18.718  0.00  0.00    +0.000 HD
ENDBRANCH  10  12
BRANCH  10  14
ATOM     14  C   UNL     1       3.676   2.515  19.398  0.00  0.00    +0.000 C 
BRANCH  14  15
ATOM     15  C   UNL     1       2.359   1.930  18.822  0.00  0.00    +0.000 C 
BRANCH  15  16
ATOM     16  C   UNL     1       1.220   2.907  18.865  0.00  0.00    +0.000 C 
ATOM     17  O   UNL     1       0.910   3.526  17.859  0.00  0.00    +0.000 OA
BRANCH  16  18
ATOM     18  O   UNL     1       0.562   3.148  20.017  0.00  0.00    +0.000 OA
ATOM     19  H   UNL     1       0.873   3.817  20.640  0.00  0.00    +0.000 HD
ENDBRANCH  16  18
ENDBRANCH  15  16
ENDBRANCH  14  15
ENDBRANCH  10  14
ENDBRANCH   1  10
BRANCH   1  20
ATOM     20  C   UNL     1       3.950   6.676  17.669  0.00  0.00    +0.000 C 
BRANCH  20  21
ATOM     21  C   UNL     1       2.717   6.553  18.581  0.00  0.00    +0.000 C 
BRANCH  21  22
ATOM     22  C   UNL     1       2.076   7.895  18.873  0.00  0.00    +0.000 A 
ATOM     23  C   UNL     1       1.553   8.158  20.157  0.00  0.00    +0.000 A 
ATOM     24  C   UNL     1       0.965   9.394  20.441  0.00  0.00    +0.000 A 
ATOM     25  C   UNL     1       0.889  10.376  19.453  0.00  0.00    +0.000 A 
ATOM     26  C   UNL     1       1.406  10.126  18.179  0.00  0.00    +0.000 A 
ATOM     27  C   UNL     1       2.001   8.894  17.887  0.00  0.00    +0.000 A 
ENDBRANCH  21  22
ENDBRANCH  20  21
ENDBRANCH   1  20
TORSDOF 12
ENDMDL
MODEL 6
REMARK VINA RESULT:      -6.9      3.693      5.748
REMARK  Name = 
REMARK  12 active torsions:
REMARK  status: ('A' for Active; 'I' for Inactive)
REMARK    1  A    between atoms: N_1  and  C_2
REMARK    2  A    between atoms: C_2  and  C_3
REMARK    3  A    between atoms: N_5  and  C_6
REMARK    4  A    between atoms: C_6  and  C_7
REMARK    5  A    between atoms: C_6  and  P_15
REMARK    6  A    between atoms: C_7  and  C_8
REMARK    7  A    between atoms: C_8  and  C_9
REMARK    8  A    between atoms: P_15  and  O_17
REMARK    9  A    between atoms: P_15  and  C_18
REMARK   10  A    between atoms: C_18  and  C_19
REMARK   11  A    between atoms: C_19  and  C_20
REMARK   12  A    between atoms: C_20  and  O_22
REMARK                            x       y       z     vdW  Elec       q    Type
REMARK                         _______ _______ _______ _____ _____    ______ ____
ROOT
ATOM      1  C   UNL     1       5.075   4.664  18.226  0.00  0.00    +0.000 C 
ENDROOT
BRANCH   1   4
ATOM      2  C   UNL     1       6.530   4.819  16.195  0.00  0.00    +0.000 C 
ATOM      3  O   UNL     1       7.515   5.103  16.860  0.00  0.00    +0.000 OA
ATOM      4  N   UNL     1       5.318   4.588  16.786  0.00  0.00    +0.000 N 
ATOM      5  H   UNL     1       4.515   4.357  16.181  0.00  0.00    +0.000 HD
BRANCH   2   6
ATOM      6  C   UNL     1       6.666   4.749  14.702  0.00  0.00    +0.000 C 
BRANCH   6   7
ATOM      7  N   UNL     1       7.882   5.439  14.291  0.00  0.00    +0.000 NA
ATOM      8  H   UNL     1       7.625   6.400  13.969  0.00  0.00    +0.000 HD
ATOM      9  H   UNL     1       8.301   4.928  13.479  0.00  0.00    +0.000 HD
ENDBRANCH   6   7
ENDBRANCH   2   6
ENDBRANCH   1   4
BRANCH   1  10
ATOM     10  P   UNL     1       3.880   3.358  18.689  0.00  0.00    +0.000 P 
ATOM     11  O   UNL     1       4.093   2.661  17.316  0.00  0.00    +0.000 OA
BRANCH  10  12
ATOM     12  O   UNL     1       5.233   2.519  19.417  0.00  0.00    +0.000 OA
ATOM     13  H   UNL     1       5.924   3.185  19.639  0.00  0.00    +0.000 HD
ENDBRANCH  10  12
BRANCH  10  14
ATOM     14  C   UNL     1       2.685   2.052  19.153  0.00  0.00    +0.000 C 
BRANCH  14  15
ATOM     15  C   UNL     1       1.352   2.548  19.778  0.00  0.00    +0.000 C 
BRANCH  15  16
ATOM     16  C   UNL     1       1.564   3.474  20.939  0.00  0.00    +0.000 C 
ATOM     17  O   UNL     1       1.217   4.642  20.859  0.00  0.00    +0.000 OA
BRANCH  16  18
ATOM     18  O   UNL     1       2.178   3.045  22.060  0.00  0.00    +0.000 OA
ATOM     19  H   UNL     1       1.895   2.236  22.507  0.00  0.00    +0.000 HD
ENDBRANCH  16  18
ENDBRANCH  15  16
ENDBRANCH  14  15
ENDBRANCH  10  14
ENDBRANCH   1  10
BRANCH   1  20
ATOM     20  C   UNL     1       4.572   6.111  18.571  0.00  0.00    +0.000 C 
BRANCH  20  21
ATOM     21  C   UNL     1       3.493   6.708  17.651  0.00  0.00    +0.000 C 
BRANCH  21  22
ATOM     22  C   UNL     1       2.585   7.680  18.377  0.00  0.00    +0.000 A 
ATOM     23  C   UNL     1       2.050   8.789  17.688  0.00  0.00    +0.000 A 
ATOM     24  C   UNL     1       1.206   9.689  18.345  0.00  0.00    +0.000 A 
ATOM     25  C   UNL     1       0.890   9.498  19.690  0.00  0.00    +0.000 A 
ATOM     26  C   UNL     1       1.413   8.401  20.381  0.00  0.00    +0.000 A 
ATOM     27  C   UNL     1       2.254   7.492  19.730  0.00  0.00    +0.000 A 
ENDBRANCH  21  22
ENDBRANCH  20  21
ENDBRANCH   1  20
TORSDOF 12
ENDMDL
MODEL 7
REMARK VINA RESULT:      -6.8      3.772      5.798
REMARK  Name = 
REMARK  12 active torsions:
REMARK  status: ('A' for Active; 'I' for Inactive)
REMARK    1  A    between atoms: N_1  and  C_2
REMARK    2  A    between atoms: C_2  and  C_3
REMARK    3  A    between atoms: N_5  and  C_6
REMARK    4  A    between atoms: C_6  and  C_7
REMARK    5  A    between atoms: C_6  and  P_15
REMARK    6  A    between atoms: C_7  and  C_8
REMARK    7  A    between atoms: C_8  and  C_9
REMARK    8  A    between atoms: P_15  and  O_17
REMARK    9  A    between atoms: P_15  and  C_18
REMARK   10  A    between atoms: C_18  and  C_19
REMARK   11  A    between atoms: C_19  and  C_20
REMARK   12  A    between atoms: C_20  and  O_22
REMARK                            x       y       z     vdW  Elec       q    Type
REMARK                         _______ _______ _______ _____ _____    ______ ____
ROOT
ATOM      1  C   UNL     1       5.038   5.208  17.826  0.00  0.00    +0.000 C 
ENDROOT
BRANCH   1   4
ATOM      2  C   UNL     1       6.616   5.004  15.894  0.00  0.00    +0.000 C 
ATOM      3  O   UNL     1       7.554   5.435  16.549  0.00  0.00    +0.000 OA
ATOM      4  N   UNL     1       5.372   4.861  16.446  0.00  0.00    +0.000 N 
ATOM      5  H   UNL     1       4.612   4.498  15.851  0.00  0.00    +0.000 HD
BRANCH   2   6
ATOM      6  C   UNL     1       6.846   4.651  14.454  0.00  0.00    +0.000 C 
BRANCH   6   7
ATOM      7  N   UNL     1       7.878   5.518  13.899  0.00  0.00    +0.000 NA
ATOM      8  H   UNL     1       8.758   4.962  13.797  0.00  0.00    +0.000 HD
ATOM      9  H   UNL     1       8.064   6.296  14.574  0.00  0.00    +0.000 HD
ENDBRANCH   6   7
ENDBRANCH   2   6
ENDBRANCH   1   4
BRANCH   1  10
ATOM     10  P   UNL     1       4.076   3.835  18.560  0.00  0.00    +0.000 P 
ATOM     11  O   UNL     1       4.207   3.024  17.239  0.00  0.00    +0.000 OA
BRANCH  10  12
ATOM     12  O   UNL     1       5.598   3.231  19.177  0.00  0.00    +0.000 OA
ATOM     13  H   UNL     1       6.211   3.106  18.415  0.00  0.00    +0.000 HD
ENDBRANCH  10  12
BRANCH  10  14
ATOM     14  C   UNL     1       3.113   2.462  19.293  0.00  0.00    +0.000 C 
BRANCH  14  15
ATOM     15  C   UNL     1       1.722   2.844  19.866  0.00  0.00    +0.000 C 
BRANCH  15  16
ATOM     16  C   UNL     1       1.785   3.294  21.297  0.00  0.00    +0.000 C 
ATOM     17  O   UNL     1       2.167   4.422  21.564  0.00  0.00    +0.000 OA
BRANCH  16  18
ATOM     18  O   UNL     1       1.470   2.450  22.299  0.00  0.00    +0.000 OA
ATOM     19  H   UNL     1       1.115   1.569  22.119  0.00  0.00    +0.000 HD
ENDBRANCH  16  18
ENDBRANCH  15  16
ENDBRANCH  14  15
ENDBRANCH  10  14
ENDBRANCH   1  10
BRANCH   1  20
ATOM     20  C   UNL     1       4.262   6.573  17.824  0.00  0.00    +0.000 C 
BRANCH  20  21
ATOM     21  C   UNL     1       2.725   6.497  17.853  0.00  0.00    +0.000 C 
BRANCH  21  22
ATOM     22  C   UNL     1       2.102   7.652  18.611  0.00  0.00    +0.000 A 
ATOM     23  C   UNL     1       1.915   7.557  20.006  0.00  0.00    +0.000 A 
ATOM     24  C   UNL     1       1.346   8.618  20.717  0.00  0.00    +0.000 A 
ATOM     25  C   UNL     1       0.957   9.779  20.048  0.00  0.00    +0.000 A 
ATOM     26  C   UNL     1       1.140   9.884  18.667  0.00  0.00    +0.000 A 
ATOM     27  C   UNL     1       1.713   8.829  17.948  0.00  0.00    +0.000 A 
ENDBRANCH  21  22
ENDBRANCH  20  21
ENDBRANCH   1  20
TORSDOF 12
ENDMDL
MODEL 8
REMARK VINA RESULT:      -6.8      3.112      6.813
REMARK  Name = 
REMARK  12 active torsions:
REMARK  status: ('A' for Active; 'I' for Inactive)
REMARK    1  A    between atoms: N_1  and  C_2
REMARK    2  A    between atoms: C_2  and  C_3
REMARK    3  A    between atoms: N_5  and  C_6
REMARK    4  A    between atoms: C_6  and  C_7
REMARK    5  A    between atoms: C_6  and  P_15
REMARK    6  A    between atoms: C_7  and  C_8
REMARK    7  A    between atoms: C_8  and  C_9
REMARK    8  A    between atoms: P_15  and  O_17
REMARK    9  A    between atoms: P_15  and  C_18
REMARK   10  A    between atoms: C_18  and  C_19
REMARK   11  A    between atoms: C_19  and  C_20
REMARK   12  A    between atoms: C_20  and  O_22
REMARK                            x       y       z     vdW  Elec       q    Type
REMARK                         _______ _______ _______ _____ _____    ______ ____
ROOT
ATOM      1  C   UNL     1       5.427   4.260  18.279  0.00  0.00    +0.000 C 
ENDROOT
BRANCH   1   4
ATOM      2  C   UNL     1       3.488   3.980  19.837  0.00  0.00    +0.000 C 
ATOM      3  O   UNL     1       3.805   2.830  20.106  0.00  0.00    +0.000 OA
ATOM      4  N   UNL     1       4.228   4.734  18.968  0.00  0.00    +0.000 N 
ATOM      5  H   UNL     1       3.917   5.697  18.769  0.00  0.00    +0.000 HD
BRANCH   2   6
ATOM      6  C   UNL     1       2.251   4.551  20.466  0.00  0.00    +0.000 C 
BRANCH   6   7
ATOM      7  N   UNL     1       2.396   5.995  20.603  0.00  0.00    +0.000 NA
ATOM      8  H   UNL     1       3.184   6.308  19.991  0.00  0.00    +0.000 HD
ATOM      9  H   UNL     1       2.650   6.216  21.594  0.00  0.00    +0.000 HD
ENDBRANCH   6   7
ENDBRANCH   2   6
ENDBRANCH   1   4
BRANCH   1  10
ATOM     10  P   UNL     1       6.726   5.541  18.413  0.00  0.00    +0.000 P 
ATOM     11  O   UNL     1       6.900   5.222  19.925  0.00  0.00    +0.000 OA
BRANCH  10  12
ATOM     12  O   UNL     1       7.862   4.297  17.936  0.00  0.00    +0.000 OA
ATOM     13  H   UNL     1       8.182   4.506  17.028  0.00  0.00    +0.000 HD
ENDBRANCH  10  12
BRANCH  10  14
ATOM     14  C   UNL     1       8.026   6.823  18.547  0.00  0.00    +0.000 C 
BRANCH  14  15
ATOM     15  C   UNL     1       7.857   8.055  17.617  0.00  0.00    +0.000 C 
BRANCH  15  16
ATOM     16  C   UNL     1       8.395   9.319  18.223  0.00  0.00    +0.000 C 
ATOM     17  O   UNL     1       8.157  10.396  17.698  0.00  0.00    +0.000 OA
BRANCH  16  18
ATOM     18  O   UNL     1       9.179   9.279  19.318  0.00  0.00    +0.000 OA
ATOM     19  H   UNL     1       9.681   8.485  19.545  0.00  0.00    +0.000 HD
ENDBRANCH  16  18
ENDBRANCH  15  16
ENDBRANCH  14  15
ENDBRANCH  10  14
ENDBRANCH   1  10
BRANCH   1  20
ATOM     20  C   UNL     1       5.048   3.918  16.794  0.00  0.00    +0.000 C 
BRANCH  20  21
ATOM     21  C   UNL     1       5.103   5.075  15.781  0.00  0.00    +0.000 C 
BRANCH  21  22
ATOM     22  C   UNL     1       5.833   4.697  14.508  0.00  0.00    +0.000 A 
ATOM     23  C   UNL     1       5.244   3.786  13.605  0.00  0.00    +0.000 A 
ATOM     24  C   UNL     1       5.904   3.434  12.425  0.00  0.00    +0.000 A 
ATOM     25  C   UNL     1       7.154   3.980  12.132  0.00  0.00    +0.000 A 
ATOM     26  C   UNL     1       7.745   4.885  13.018  0.00  0.00    +0.000 A 
ATOM     27  C   UNL     1       7.089   5.247  14.200  0.00  0.00    +0.000 A 
ENDBRANCH  21  22
ENDBRANCH  20  21
ENDBRANCH   1  20
TORSDOF 12
ENDMDL
MODEL 9
REMARK VINA RESULT:      -6.8      1.746      1.892
REMARK  Name = 
REMARK  12 active torsions:
REMARK  status: ('A' for Active; 'I' for Inactive)
REMARK    1  A    between atoms: N_1  and  C_2
REMARK    2  A    between atoms: C_2  and  C_3
REMARK    3  A    between atoms: N_5  and  C_6
REMARK    4  A    between atoms: C_6  and  C_7
REMARK    5  A    between atoms: C_6  and  P_15
REMARK    6  A    between atoms: C_7  and  C_8
REMARK    7  A    between atoms: C_8  and  C_9
REMARK    8  A    between atoms: P_15  and  O_17
REMARK    9  A    between atoms: P_15  and  C_18
REMARK   10  A    between atoms: C_18  and  C_19
REMARK   11  A    between atoms: C_19  and  C_20
REMARK   12  A    between atoms: C_20  and  O_22
REMARK                            x       y       z     vdW  Elec       q    Type
REMARK                         _______ _______ _______ _____ _____    ______ ____
ROOT
ATOM      1  C   UNL     1       5.370   5.064  16.971  0.00  0.00    +0.000 C 
ENDROOT
BRANCH   1   4
ATOM      2  C   UNL     1       6.838   5.432  18.964  0.00  0.00    +0.000 C 
ATOM      3  O   UNL     1       6.105   4.775  19.689  0.00  0.00    +0.000 OA
ATOM      4  N   UNL     1       6.550   5.610  17.639  0.00  0.00    +0.000 N 
ATOM      5  H   UNL     1       7.197   6.177  17.069  0.00  0.00    +0.000 HD
BRANCH   2   6
ATOM      6  C   UNL     1       8.060   6.066  19.561  0.00  0.00    +0.000 C 
BRANCH   6   7
ATOM      7  N   UNL     1       8.729   5.108  20.433  0.00  0.00    +0.000 NA
ATOM      8  H   UNL     1       8.807   4.197  19.926  0.00  0.00    +0.000 HD
ATOM      9  H   UNL     1       8.137   4.955  21.283  0.00  0.00    +0.000 HD
ENDBRANCH   6   7
ENDBRANCH   2   6
ENDBRANCH   1   4
BRANCH   1  10
ATOM     10  P   UNL     1       5.861   4.450  15.318  0.00  0.00    +0.000 P 
ATOM     11  O   UNL     1       7.360   4.669  15.672  0.00  0.00    +0.000 OA
BRANCH  10  12
ATOM     12  O   UNL     1       5.846   2.846  16.020  0.00  0.00    +0.000 OA
ATOM     13  H   UNL     1       5.690   2.196  15.296  0.00  0.00    +0.000 HD
ENDBRANCH  10  12
BRANCH  10  14
ATOM     14  C   UNL     1       6.353   3.837  13.666  0.00  0.00    +0.000 C 
BRANCH  14  15
ATOM     15  C   UNL     1       5.313   4.044  12.532  0.00  0.00    +0.000 C 
BRANCH  15  16
ATOM     16  C   UNL     1       5.086   2.803  11.717  0.00  0.00    +0.000 C 
ATOM     17  O   UNL     1       4.065   2.684  11.059  0.00  0.00    +0.000 OA
BRANCH  16  18
ATOM     18  O   UNL     1       5.978   1.793  11.738  0.00  0.00    +0.000 OA
ATOM     19  H   UNL     1       5.690   0.871  11.732  0.00  0.00    +0.000 HD
ENDBRANCH  16  18
ENDBRANCH  15  16
ENDBRANCH  14  15
ENDBRANCH  10  14
ENDBRANCH   1  10
BRANCH   1  20
ATOM     20  C   UNL     1       4.268   6.181  16.912  0.00  0.00    +0.000 C 
BRANCH  20  21
ATOM     21  C   UNL     1       3.565   6.532  18.235  0.00  0.00    +0.000 C 
BRANCH  21  22
ATOM     22  C   UNL     1       2.662   5.418  18.725  0.00  0.00    +0.000 A 
ATOM     23  C   UNL     1       2.412   5.273  20.106  0.00  0.00    +0.000 A 
ATOM     24  C   UNL     1       1.576   4.253  20.569  0.00  0.00    +0.000 A 
ATOM     25  C   UNL     1       0.984   3.369  19.667  0.00  0.00    +0.000 A 
ATOM     26  C   UNL     1       1.223   3.505  18.297  0.00  0.00    +0.000 A 
ATOM     27  C   UNL     1       2.054   4.526  17.824  0.00  0.00    +0.000 A 
ENDBRANCH  21  22
ENDBRANCH  20  21
ENDBRANCH   1  20
TORSDOF 12
ENDMDL
