MODEL 1
REMARK VINA RESULT:      -7.0      0.000      0.000
REMARK  Name = 
REMARK  3 active torsions:
REMARK  status: ('A' for Active; 'I' for Inactive)
REMARK    1  A    between atoms: C_1  and  C_2
REMARK    2  A    between atoms: C_15  and  C_17
REMARK    3  A    between atoms: N_20  and  C_21
REMARK                            x       y       z     vdW  Elec       q    Type
REMARK                         _______ _______ _______ _____ _____    ______ ____
ROOT
ATOM      1  C   UNL     1       3.730   2.956  18.434  0.00  0.00    +0.000 C 
ATOM      2  C   UNL     1       3.218   4.309  18.790  0.00  0.00    +0.000 A 
ATOM      3  C   UNL     1       3.191   5.444  18.008  0.00  0.00    +0.000 A 
ATOM      4  C   UNL     1       2.615   6.551  18.697  0.00  0.00    +0.000 A 
ATOM      5  C   UNL     1       2.389   7.898  18.225  0.00  0.00    +0.000 A 
ATOM      6  O   UNL     1       2.661   8.228  17.075  0.00  0.00    +0.000 OA
ATOM      7  N   UNL     1       1.822   8.754  19.177  0.00  0.00    +0.000 N 
ATOM      8  C   UNL     1       1.452   8.290  20.439  0.00  0.00    +0.000 A 
ATOM      9  N   UNL     1       1.637   7.074  20.862  0.00  0.00    +0.000 NA
ATOM     10  C   UNL     1       2.228   6.237  19.975  0.00  0.00    +0.000 A 
ATOM     11  S   UNL     1       2.555   4.602  20.344  0.00  0.00    +0.000 S 
ATOM     12  C   UNL     1       0.727   9.249  21.365  0.00  0.00    +0.000 C 
ATOM     13  C   UNL     1      -0.652   9.557  20.792  0.00  0.00    +0.000 C 
ATOM     14  N   UNL     1      -0.615  10.675  19.839  0.00  0.00    +0.000 N 
ATOM     15  C   UNL     1      -1.215  11.937  20.018  0.00  0.00    +0.000 C 
ATOM     16  O   UNL     1      -1.217  12.767  19.106  0.00  0.00    +0.000 OA
ATOM     17  C   UNL     1       0.065  10.409  18.567  0.00  0.00    +0.000 C 
ATOM     18  C   UNL     1       1.562  10.133  18.753  0.00  0.00    +0.000 C 
ENDROOT
BRANCH  15  19
ATOM     19  C   UNL     1      -1.890  12.264  21.291  0.00  0.00    +0.000 A 
ATOM     20  C   UNL     1      -1.260  12.311  22.568  0.00  0.00    +0.000 A 
ATOM     21  C   UNL     1      -2.237  12.709  23.449  0.00  0.00    +0.000 A 
ATOM     22  N   UNL     1      -3.369  12.841  22.707  0.00  0.00    +0.000 N 
ATOM     23  C   UNL     1      -4.652  13.325  23.153  0.00  0.00    +0.000 C 
ATOM     24  N   UNL     1      -3.207  12.517  21.413  0.00  0.00    +0.000 NA
ENDBRANCH  15  19
TORSDOF 1
ENDMDL
MODEL 2
REMARK VINA RESULT:      -6.7      0.916      1.161
REMARK  Name = 
REMARK  3 active torsions:
REMARK  status: ('A' for Active; 'I' for Inactive)
REMARK    1  A    between atoms: C_1  and  C_2
REMARK    2  A    between atoms: C_15  and  C_17
REMARK    3  A    between atoms: N_20  and  C_21
REMARK                            x       y       z     vdW  Elec       q    Type
REMARK                         _______ _______ _______ _____ _____    ______ ____
ROOT
ATOM      1  C   UNL     1       3.490   2.800  19.044  0.00  0.00    +0.000 C 
ATOM      2  C   UNL     1       3.044   4.212  19.207  0.00  0.00    +0.000 A 
ATOM      3  C   UNL     1       3.119   5.242  18.293  0.00  0.00    +0.000 A 
ATOM      4  C   UNL     1       2.579   6.454  18.812  0.00  0.00    +0.000 A 
ATOM      5  C   UNL     1       2.456   7.743  18.170  0.00  0.00    +0.000 A 
ATOM      6  O   UNL     1       2.800   7.914  17.005  0.00  0.00    +0.000 OA
ATOM      7  N   UNL     1       1.897   8.738  18.981  0.00  0.00    +0.000 N 
ATOM      8  C   UNL     1       1.442   8.455  20.268  0.00  0.00    +0.000 A 
ATOM      9  N   UNL     1       1.535   7.292  20.844  0.00  0.00    +0.000 NA
ATOM     10  C   UNL     1       2.116   6.321  20.097  0.00  0.00    +0.000 A 
ATOM     11  S   UNL     1       2.328   4.730  20.677  0.00  0.00    +0.000 S 
ATOM     12  C   UNL     1       0.734   9.558  21.033  0.00  0.00    +0.000 C 
ATOM     13  C   UNL     1      -0.597   9.866  20.354  0.00  0.00    +0.000 C 
ATOM     14  N   UNL     1      -0.449  10.854  19.277  0.00  0.00    +0.000 N 
ATOM     15  C   UNL     1      -0.981  12.158  19.270  0.00  0.00    +0.000 C 
ATOM     16  O   UNL     1      -0.892  12.869  18.266  0.00  0.00    +0.000 OA
ATOM     17  C   UNL     1       0.272  10.397  18.084  0.00  0.00    +0.000 C 
ATOM     18  C   UNL     1       1.739  10.067  18.380  0.00  0.00    +0.000 C 
ENDROOT
BRANCH  15  19
ATOM     19  C   UNL     1      -1.694  12.676  20.457  0.00  0.00    +0.000 A 
ATOM     20  C   UNL     1      -3.107  12.651  20.643  0.00  0.00    +0.000 A 
ATOM     21  C   UNL     1      -3.325  13.174  21.895  0.00  0.00    +0.000 A 
ATOM     22  N   UNL     1      -2.096  13.511  22.372  0.00  0.00    +0.000 N 
ATOM     23  C   UNL     1      -1.779  14.018  23.684  0.00  0.00    +0.000 C 
ATOM     24  N   UNL     1      -1.098  13.282  21.501  0.00  0.00    +0.000 NA
ENDBRANCH  15  19
TORSDOF 1
ENDMDL
MODEL 3
REMARK VINA RESULT:      -6.5      3.212      8.551
REMARK  Name = 
REMARK  3 active torsions:
REMARK  status: ('A' for Active; 'I' for Inactive)
REMARK    1  A    between atoms: C_1  and  C_2
REMARK    2  A    between atoms: C_15  and  C_17
REMARK    3  A    between atoms: N_20  and  C_21
REMARK                            x       y       z     vdW  Elec       q    Type
REMARK                         _______ _______ _______ _____ _____    ______ ____
ROOT
ATOM      1  C   UNL     1      -3.216  13.017  19.731  0.00  0.00    +0.000 C 
ATOM      2  C   UNL     1      -2.097  12.033  19.698  0.00  0.00    +0.000 A 
ATOM      3  C   UNL     1      -1.685  11.176  20.696  0.00  0.00    +0.000 A 
ATOM      4  C   UNL     1      -0.580  10.376  20.287  0.00  0.00    +0.000 A 
ATOM      5  C   UNL     1       0.126   9.353  21.025  0.00  0.00    +0.000 A 
ATOM      6  O   UNL     1      -0.220   9.026  22.156  0.00  0.00    +0.000 OA
ATOM      7  N   UNL     1       1.193   8.773  20.329  0.00  0.00    +0.000 N 
ATOM      8  C   UNL     1       1.476   9.127  19.010  0.00  0.00    +0.000 A 
ATOM      9  N   UNL     1       0.833  10.034  18.335  0.00  0.00    +0.000 NA
ATOM     10  C   UNL     1      -0.176  10.644  19.002  0.00  0.00    +0.000 A 
ATOM     11  S   UNL     1      -1.137  11.861  18.287  0.00  0.00    +0.000 S 
ATOM     12  C   UNL     1       2.568   8.361  18.286  0.00  0.00    +0.000 C 
ATOM     13  C   UNL     1       2.116   6.920  18.073  0.00  0.00    +0.000 C 
ATOM     14  N   UNL     1       2.431   6.068  19.227  0.00  0.00    +0.000 N 
ATOM     15  C   UNL     1       3.354   5.003  19.243  0.00  0.00    +0.000 C 
ATOM     16  O   UNL     1       3.462   4.279  20.236  0.00  0.00    +0.000 OA
ATOM     17  C   UNL     1       1.661   6.331  20.447  0.00  0.00    +0.000 C 
ATOM     18  C   UNL     1       1.942   7.723  21.025  0.00  0.00    +0.000 C 
ENDROOT
BRANCH  15  19
ATOM     19  C   UNL     1       4.173   4.712  18.049  0.00  0.00    +0.000 A 
ATOM     20  C   UNL     1       3.803   3.829  16.993  0.00  0.00    +0.000 A 
ATOM     21  C   UNL     1       4.822   3.905  16.072  0.00  0.00    +0.000 A 
ATOM     22  N   UNL     1       5.736   4.759  16.605  0.00  0.00    +0.000 N 
ATOM     23  C   UNL     1       6.946   5.240  15.985  0.00  0.00    +0.000 C 
ATOM     24  N   UNL     1       5.403   5.213  17.826  0.00  0.00    +0.000 NA
ENDBRANCH  15  19
TORSDOF 1
ENDMDL
MODEL 4
REMARK VINA RESULT:      -6.5      2.555      3.327
REMARK  Name = 
REMARK  3 active torsions:
REMARK  status: ('A' for Active; 'I' for Inactive)
REMARK    1  A    between atoms: C_1  and  C_2
REMARK    2  A    between atoms: C_15  and  C_17
REMARK    3  A    between atoms: N_20  and  C_21
REMARK                            x       y       z     vdW  Elec       q    Type
REMARK                         _______ _______ _______ _____ _____    ______ ____
ROOT
ATOM      1  C   UNL     1       7.090   4.466  16.621  0.00  0.00    +0.000 C 
ATOM      2  C   UNL     1       5.905   5.192  17.158  0.00  0.00    +0.000 A 
ATOM      3  C   UNL     1       5.173   4.911  18.292  0.00  0.00    +0.000 A 
ATOM      4  C   UNL     1       4.111   5.841  18.484  0.00  0.00    +0.000 A 
ATOM      5  C   UNL     1       3.138   5.903  19.551  0.00  0.00    +0.000 A 
ATOM      6  O   UNL     1       3.167   5.116  20.491  0.00  0.00    +0.000 OA
ATOM      7  N   UNL     1       2.205   6.939  19.419  0.00  0.00    +0.000 N 
ATOM      8  C   UNL     1       2.284   7.857  18.373  0.00  0.00    +0.000 A 
ATOM      9  N   UNL     1       3.169   7.816  17.420  0.00  0.00    +0.000 NA
ATOM     10  C   UNL     1       4.056   6.794  17.498  0.00  0.00    +0.000 A 
ATOM     11  S   UNL     1       5.291   6.570  16.341  0.00  0.00    +0.000 S 
ATOM     12  C   UNL     1       1.313   9.024  18.374  0.00  0.00    +0.000 C 
ATOM     13  C   UNL     1       1.634   9.945  19.547  0.00  0.00    +0.000 C 
ATOM     14  N   UNL     1       0.959   9.520  20.780  0.00  0.00    +0.000 N 
ATOM     15  C   UNL     1      -0.058  10.226  21.454  0.00  0.00    +0.000 C 
ATOM     16  O   UNL     1      -0.479   9.834  22.544  0.00  0.00    +0.000 OA
ATOM     17  C   UNL     1       1.445   8.273  21.380  0.00  0.00    +0.000 C 
ATOM     18  C   UNL     1       1.198   7.058  20.478  0.00  0.00    +0.000 C 
ENDROOT
BRANCH  15  19
ATOM     19  C   UNL     1      -0.600  11.475  20.880  0.00  0.00    +0.000 A 
ATOM     20  C   UNL     1      -1.602  11.548  19.868  0.00  0.00    +0.000 A 
ATOM     21  C   UNL     1      -1.843  12.888  19.681  0.00  0.00    +0.000 A 
ATOM     22  N   UNL     1      -0.990  13.535  20.520  0.00  0.00    +0.000 N 
ATOM     23  C   UNL     1      -0.915  14.955  20.762  0.00  0.00    +0.000 C 
ATOM     24  N   UNL     1      -0.182  12.711  21.209  0.00  0.00    +0.000 NA
ENDBRANCH  15  19
TORSDOF 1
ENDMDL
MODEL 5
REMARK VINA RESULT:      -6.3      1.401      1.680
REMARK  Name = 
REMARK  3 active torsions:
REMARK  status: ('A' for Active; 'I' for Inactive)
REMARK    1  A    between atoms: C_1  and  C_2
REMARK    2  A    between atoms: C_15  and  C_17
REMARK    3  A    between atoms: N_20  and  C_21
REMARK                            x       y       z     vdW  Elec       q    Type
REMARK                         _______ _______ _______ _____ _____    ______ ____
ROOT
ATOM      1  C   UNL     1       3.124   4.224  18.344  0.00  0.00    +0.000 C 
ATOM      2  C   UNL     1       2.649   5.554  18.818  0.00  0.00    +0.000 A 
ATOM      3  C   UNL     1       2.572   6.735  18.109  0.00  0.00    +0.000 A 
ATOM      4  C   UNL     1       2.056   7.799  18.904  0.00  0.00    +0.000 A 
ATOM      5  C   UNL     1       1.806   9.173  18.532  0.00  0.00    +0.000 A 
ATOM      6  O   UNL     1       1.995   9.572  17.387  0.00  0.00    +0.000 OA
ATOM      7  N   UNL     1       1.315   9.971  19.573  0.00  0.00    +0.000 N 
ATOM      8  C   UNL     1       1.035   9.433  20.829  0.00  0.00    +0.000 A 
ATOM      9  N   UNL     1       1.243   8.192  21.163  0.00  0.00    +0.000 NA
ATOM     10  C   UNL     1       1.761   7.409  20.187  0.00  0.00    +0.000 A 
ATOM     11  S   UNL     1       2.104   5.754  20.431  0.00  0.00    +0.000 S 
ATOM     12  C   UNL     1       0.387  10.335  21.863  0.00  0.00    +0.000 C 
ATOM     13  C   UNL     1      -1.028  10.681  21.412  0.00  0.00    +0.000 C 
ATOM     14  N   UNL     1      -1.053  11.854  20.528  0.00  0.00    +0.000 N 
ATOM     15  C   UNL     1      -1.630  13.104  20.826  0.00  0.00    +0.000 C 
ATOM     16  O   UNL     1      -1.693  13.988  19.969  0.00  0.00    +0.000 OA
ATOM     17  C   UNL     1      -0.470  11.664  19.195  0.00  0.00    +0.000 C 
ATOM     18  C   UNL     1       1.034  11.374  19.254  0.00  0.00    +0.000 C 
ENDROOT
BRANCH  15  19
ATOM     19  C   UNL     1      -2.208  13.356  22.163  0.00  0.00    +0.000 A 
ATOM     20  C   UNL     1      -3.260  12.601  22.759  0.00  0.00    +0.000 A 
ATOM     21  C   UNL     1      -3.437  13.138  24.012  0.00  0.00    +0.000 A 
ATOM     22  N   UNL     1      -2.553  14.168  24.099  0.00  0.00    +0.000 N 
ATOM     23  C   UNL     1      -2.287  14.993  25.251  0.00  0.00    +0.000 C 
ATOM     24  N   UNL     1      -1.843  14.365  22.975  0.00  0.00    +0.000 NA
ENDBRANCH  15  19
TORSDOF 1
ENDMDL
MODEL 6
REMARK VINA RESULT:      -6.2      2.699      7.850
REMARK  Name = 
REMARK  3 active torsions:
REMARK  status: ('A' for Active; 'I' for Inactive)
REMARK    1  A    between atoms: C_1  and  C_2
REMARK    2  A    between atoms: C_15  and  C_17
REMARK    3  A    between atoms: N_20  and  C_21
REMARK                            x       y       z     vdW  Elec       q    Type
REMARK                         _______ _______ _______ _____ _____    ______ ____
ROOT
ATOM      1  C   UNL     1      -1.126  15.782  22.615  0.00  0.00    +0.000 C 
ATOM      2  C   UNL     1      -0.858  14.429  22.052  0.00  0.00    +0.000 A 
ATOM      3  C   UNL     1      -0.438  14.103  20.779  0.00  0.00    +0.000 A 
ATOM      4  C   UNL     1      -0.281  12.696  20.615  0.00  0.00    +0.000 A 
ATOM      5  C   UNL     1       0.155  11.959  19.451  0.00  0.00    +0.000 A 
ATOM      6  O   UNL     1       0.498  12.532  18.422  0.00  0.00    +0.000 OA
ATOM      7  N   UNL     1       0.171  10.570  19.623  0.00  0.00    +0.000 N 
ATOM      8  C   UNL     1      -0.143   9.987  20.850  0.00  0.00    +0.000 A 
ATOM      9  N   UNL     1      -0.520  10.647  21.906  0.00  0.00    +0.000 NA
ATOM     10  C   UNL     1      -0.589  11.992  21.753  0.00  0.00    +0.000 A 
ATOM     11  S   UNL     1      -1.063  13.030  23.022  0.00  0.00    +0.000 S 
ATOM     12  C   UNL     1       0.022   8.484  20.988  0.00  0.00    +0.000 C 
ATOM     13  C   UNL     1       1.504   8.132  20.911  0.00  0.00    +0.000 C 
ATOM     14  N   UNL     1       1.954   7.947  19.524  0.00  0.00    +0.000 N 
ATOM     15  C   UNL     1       2.387   6.736  18.949  0.00  0.00    +0.000 C 
ATOM     16  O   UNL     1       2.849   6.713  17.806  0.00  0.00    +0.000 OA
ATOM     17  C   UNL     1       2.003   9.158  18.699  0.00  0.00    +0.000 C 
ATOM     18  C   UNL     1       0.614   9.768  18.477  0.00  0.00    +0.000 C 
ENDROOT
BRANCH  15  19
ATOM     19  C   UNL     1       2.334   5.482  19.729  0.00  0.00    +0.000 A 
ATOM     20  C   UNL     1       1.192   4.998  20.431  0.00  0.00    +0.000 A 
ATOM     21  C   UNL     1       1.568   3.786  20.959  0.00  0.00    +0.000 A 
ATOM     22  N   UNL     1       2.870   3.617  20.603  0.00  0.00    +0.000 N 
ATOM     23  C   UNL     1       3.696   2.460  20.840  0.00  0.00    +0.000 C 
ATOM     24  N   UNL     1       3.379   4.654  19.915  0.00  0.00    +0.000 NA
ENDBRANCH  15  19
TORSDOF 1
ENDMDL
MODEL 7
REMARK VINA RESULT:      -6.1      3.258      8.536
REMARK  Name = 
REMARK  3 active torsions:
REMARK  status: ('A' for Active; 'I' for Inactive)
REMARK    1  A    between atoms: C_1  and  C_2
REMARK    2  A    between atoms: C_15  and  C_17
REMARK    3  A    between atoms: N_20  and  C_21
REMARK                            x       y       z     vdW  Elec       q    Type
REMARK                         _______ _______ _______ _____ _____    ______ ____
ROOT
ATOM      1  C   UNL     1      -3.664  12.897  19.718  0.00  0.00    +0.000 C 
ATOM      2  C   UNL     1      -2.454  12.029  19.655  0.00  0.00    +0.000 A 
ATOM      3  C   UNL     1      -1.995  11.135  20.600  0.00  0.00    +0.000 A 
ATOM      4  C   UNL     1      -0.803  10.480  20.176  0.00  0.00    +0.000 A 
ATOM      5  C   UNL     1      -0.028   9.471  20.862  0.00  0.00    +0.000 A 
ATOM      6  O   UNL     1      -0.378   9.021  21.948  0.00  0.00    +0.000 OA
ATOM      7  N   UNL     1       1.115   9.054  20.168  0.00  0.00    +0.000 N 
ATOM      8  C   UNL     1       1.407   9.539  18.894  0.00  0.00    +0.000 A 
ATOM      9  N   UNL     1       0.702  10.435  18.266  0.00  0.00    +0.000 NA
ATOM     10  C   UNL     1      -0.384  10.890  18.935  0.00  0.00    +0.000 A 
ATOM     11  S   UNL     1      -1.433  12.065  18.278  0.00  0.00    +0.000 S 
ATOM     12  C   UNL     1       2.593   8.942  18.159  0.00  0.00    +0.000 C 
ATOM     13  C   UNL     1       2.291   7.488  17.814  0.00  0.00    +0.000 C 
ATOM     14  N   UNL     1       2.648   6.577  18.911  0.00  0.00    +0.000 N 
ATOM     15  C   UNL     1       3.669   5.607  18.882  0.00  0.00    +0.000 C 
ATOM     16  O   UNL     1       3.813   4.817  19.819  0.00  0.00    +0.000 OA
ATOM     17  C   UNL     1       1.814   6.665  20.114  0.00  0.00    +0.000 C 
ATOM     18  C   UNL     1       1.938   8.025  20.811  0.00  0.00    +0.000 C 
ENDROOT
BRANCH  15  19
ATOM     19  C   UNL     1       4.554   5.493  17.704  0.00  0.00    +0.000 A 
ATOM     20  C   UNL     1       5.575   6.423  17.351  0.00  0.00    +0.000 A 
ATOM     21  C   UNL     1       6.181   5.901  16.233  0.00  0.00    +0.000 A 
ATOM     22  N   UNL     1       5.505   4.754  15.951  0.00  0.00    +0.000 N 
ATOM     23  C   UNL     1       5.812   3.792  14.921  0.00  0.00    +0.000 C 
ATOM     24  N   UNL     1       4.477   4.515  16.783  0.00  0.00    +0.000 NA
ENDBRANCH  15  19
TORSDOF 1
ENDMDL
MODEL 8
REMARK VINA RESULT:      -6.1      2.547      7.755
REMARK  Name = 
REMARK  3 active torsions:
REMARK  status: ('A' for Active; 'I' for Inactive)
REMARK    1  A    between atoms: C_1  and  C_2
REMARK    2  A    between atoms: C_15  and  C_17
REMARK    3  A    between atoms: N_20  and  C_21
REMARK                            x       y       z     vdW  Elec       q    Type
REMARK                         _______ _______ _______ _____ _____    ______ ____
ROOT
ATOM      1  C   UNL     1      -2.021  15.663  22.737  0.00  0.00    +0.000 C 
ATOM      2  C   UNL     1      -1.602  14.373  22.122  0.00  0.00    +0.000 A 
ATOM      3  C   UNL     1      -1.290  14.117  20.803  0.00  0.00    +0.000 A 
ATOM      4  C   UNL     1      -0.923  12.756  20.598  0.00  0.00    +0.000 A 
ATOM      5  C   UNL     1      -0.514  12.098  19.378  0.00  0.00    +0.000 A 
ATOM      6  O   UNL     1      -0.399  12.716  18.324  0.00  0.00    +0.000 OA
ATOM      7  N   UNL     1      -0.246  10.731  19.523  0.00  0.00    +0.000 N 
ATOM      8  C   UNL     1      -0.308  10.109  20.768  0.00  0.00    +0.000 A 
ATOM      9  N   UNL     1      -0.658  10.700  21.873  0.00  0.00    +0.000 NA
ATOM     10  C   UNL     1      -0.968  12.014  21.752  0.00  0.00    +0.000 A 
ATOM     11  S   UNL     1      -1.451  12.963  23.087  0.00  0.00    +0.000 S 
ATOM     12  C   UNL     1       0.121   8.656  20.860  0.00  0.00    +0.000 C 
ATOM     13  C   UNL     1       1.621   8.556  20.599  0.00  0.00    +0.000 C 
ATOM     14  N   UNL     1       1.923   8.444  19.166  0.00  0.00    +0.000 N 
ATOM     15  C   UNL     1       2.479   7.320  18.522  0.00  0.00    +0.000 C 
ATOM     16  O   UNL     1       2.797   7.371  17.332  0.00  0.00    +0.000 OA
ATOM     17  C   UNL     1       1.669   9.643  18.362  0.00  0.00    +0.000 C 
ATOM     18  C   UNL     1       0.181  10.012  18.319  0.00  0.00    +0.000 C 
ENDROOT
BRANCH  15  19
ATOM     19  C   UNL     1       2.731   6.078  19.282  0.00  0.00    +0.000 A 
ATOM     20  C   UNL     1       4.003   5.454  19.439  0.00  0.00    +0.000 A 
ATOM     21  C   UNL     1       3.786   4.372  20.259  0.00  0.00    +0.000 A 
ATOM     22  N   UNL     1       2.450   4.368  20.516  0.00  0.00    +0.000 N 
ATOM     23  C   UNL     1       1.735   3.482  21.400  0.00  0.00    +0.000 C 
ATOM     24  N   UNL     1       1.777   5.347  19.888  0.00  0.00    +0.000 NA
ENDBRANCH  15  19
TORSDOF 1
ENDMDL
MODEL 9
REMARK VINA RESULT:      -6.0      2.479      3.135
REMARK  Name = 
REMARK  3 active torsions:
REMARK  status: ('A' for Active; 'I' for Inactive)
REMARK    1  A    between atoms: C_1  and  C_2
REMARK    2  A    between atoms: C_15  and  C_17
REMARK    3  A    between atoms: N_20  and  C_21
REMARK                            x       y       z     vdW  Elec       q    Type
REMARK                         _______ _______ _______ _____ _____    ______ ____
ROOT
ATOM      1  C   UNL     1       5.742   4.381  17.086  0.00  0.00    +0.000 C 
ATOM      2  C   UNL     1       4.730   5.323  17.641  0.00  0.00    +0.000 A 
ATOM      3  C   UNL     1       3.974   5.185  18.786  0.00  0.00    +0.000 A 
ATOM      4  C   UNL     1       3.116   6.304  18.994  0.00  0.00    +0.000 A 
ATOM      5  C   UNL     1       2.190   6.550  20.076  0.00  0.00    +0.000 A 
ATOM      6  O   UNL     1       2.078   5.768  21.015  0.00  0.00    +0.000 OA
ATOM      7  N   UNL     1       1.476   7.749  19.960  0.00  0.00    +0.000 N 
ATOM      8  C   UNL     1       1.718   8.639  18.914  0.00  0.00    +0.000 A 
ATOM      9  N   UNL     1       2.563   8.429  17.947  0.00  0.00    +0.000 NA
ATOM     10  C   UNL     1       3.234   7.254  18.011  0.00  0.00    +0.000 A 
ATOM     11  S   UNL     1       4.386   6.797  16.835  0.00  0.00    +0.000 S 
ATOM     12  C   UNL     1       0.993   9.972  18.931  0.00  0.00    +0.000 C 
ATOM     13  C   UNL     1       1.505  10.808  20.100  0.00  0.00    +0.000 C 
ATOM     14  N   UNL     1       0.778  10.518  21.343  0.00  0.00    +0.000 N 
ATOM     15  C   UNL     1      -0.071  11.406  22.033  0.00  0.00    +0.000 C 
ATOM     16  O   UNL     1      -0.546  11.099  23.129  0.00  0.00    +0.000 OA
ATOM     17  C   UNL     1       1.019   9.197  21.933  0.00  0.00    +0.000 C 
ATOM     18  C   UNL     1       0.526   8.058  21.033  0.00  0.00    +0.000 C 
ENDROOT
BRANCH  15  19
ATOM     19  C   UNL     1      -0.368  12.739  21.468  0.00  0.00    +0.000 A 
ATOM     20  C   UNL     1      -1.441  13.036  20.579  0.00  0.00    +0.000 A 
ATOM     21  C   UNL     1      -1.377  14.391  20.359  0.00  0.00    +0.000 A 
ATOM     22  N   UNL     1      -0.296  14.826  21.060  0.00  0.00    +0.000 N 
ATOM     23  C   UNL     1       0.146  16.189  21.226  0.00  0.00    +0.000 C 
ATOM     24  N   UNL     1       0.372  13.843  21.688  0.00  0.00    +0.000 NA
ENDBRANCH  15  19
TORSDOF 1
ENDMDL
