MODEL 1
REMARK VINA RESULT:      -7.3      0.000      0.000
REMARK  Name = 
REMARK  5 active torsions:
REMARK  status: ('A' for Active; 'I' for Inactive)
REMARK    1  A    between atoms: C_1  and  C_2
REMARK    2  A    between atoms: C_2  and  S_3
REMARK    3  A    between atoms: S_3  and  N_6
REMARK    4  A    between atoms: C_10  and  C_11
REMARK    5  A    between atoms: N_13  and  C_14
REMARK                            x       y       z     vdW  Elec       q    Type
REMARK                         _______ _______ _______ _____ _____    ______ ____
ROOT
ATOM      1  C   UNL     1       3.815   6.323  17.202  0.00  0.00    +0.000 C 
ATOM      2  O   UNL     1       4.111   7.488  16.958  0.00  0.00    +0.000 OA
ATOM      3  N   UNL     1       4.396   5.261  16.544  0.00  0.00    +0.000 N 
ATOM      4  H   UNL     1       3.930   4.364  16.533  0.00  0.00    +0.000 HD
ENDROOT
BRANCH   3   5
ATOM      5  C   UNL     1       5.435   5.466  15.544  0.00  0.00    +0.000 C 
ATOM      6  C   UNL     1       5.454   4.344  14.514  0.00  0.00    +0.000 C 
ATOM      7  C   UNL     1       6.816   4.481  13.841  0.00  0.00    +0.000 C 
ATOM      8  C   UNL     1       7.715   5.248  14.824  0.00  0.00    +0.000 C 
ATOM      9  C   UNL     1       6.883   5.440  16.095  0.00  0.00    +0.000 C 
ATOM     10  O   UNL     1       7.087   4.330  16.984  0.00  0.00    +0.000 OA
ATOM     11  C   UNL     1       7.098   4.900  18.289  0.00  0.00    +0.000 C 
ATOM     12  C   UNL     1       7.537   6.328  18.096  0.00  0.00    +0.000 C 
ATOM     13  O   UNL     1       7.201   6.664  16.754  0.00  0.00    +0.000 OA
ENDBRANCH   3   5
BRANCH   1  18
ATOM     14  N   UNL     1       2.371   4.235  20.062  0.00  0.00    +0.000 NA
ATOM     15  C   UNL     1       2.295   5.302  21.100  0.00  0.00    +0.000 C 
ATOM     16  C   UNL     1       1.761   6.587  20.473  0.00  0.00    +0.000 C 
ATOM     17  C   UNL     1       2.634   7.039  19.310  0.00  0.00    +0.000 C 
ATOM     18  C   UNL     1       2.792   5.926  18.263  0.00  0.00    +0.000 C 
ATOM     19  C   UNL     1       3.256   4.623  18.923  0.00  0.00    +0.000 C 
BRANCH  14  20
ATOM     20  S   UNL     1       2.688   2.667  20.691  0.00  0.00    +0.000 S 
ATOM     21  O   UNL     1       2.019   2.552  21.971  0.00  0.00    +0.000 OA
ATOM     22  O   UNL     1       4.103   2.407  20.547  0.00  0.00    +0.000 OA
BRANCH  20  24
ATOM     23  C   UNL     1       0.658   2.410  18.869  0.00  0.00    +0.000 C 
ATOM     24  C   UNL     1       1.796   1.647  19.519  0.00  0.00    +0.000 C 
ENDBRANCH  20  24
ENDBRANCH  14  20
ENDBRANCH   1  18
TORSDOF 4
ENDMDL
MODEL 2
REMARK VINA RESULT:      -7.1      1.050      1.310
REMARK  Name = 
REMARK  5 active torsions:
REMARK  status: ('A' for Active; 'I' for Inactive)
REMARK    1  A    between atoms: C_1  and  C_2
REMARK    2  A    between atoms: C_2  and  S_3
REMARK    3  A    between atoms: S_3  and  N_6
REMARK    4  A    between atoms: C_10  and  C_11
REMARK    5  A    between atoms: N_13  and  C_14
REMARK                            x       y       z     vdW  Elec       q    Type
REMARK                         _______ _______ _______ _____ _____    ______ ____
ROOT
ATOM      1  C   UNL     1       3.701   6.498  17.174  0.00  0.00    +0.000 C 
ATOM      2  O   UNL     1       4.083   7.638  16.929  0.00  0.00    +0.000 OA
ATOM      3  N   UNL     1       4.243   5.390  16.561  0.00  0.00    +0.000 N 
ATOM      4  H   UNL     1       3.720   4.524  16.539  0.00  0.00    +0.000 HD
ENDROOT
BRANCH   3   5
ATOM      5  C   UNL     1       5.340   5.511  15.610  0.00  0.00    +0.000 C 
ATOM      6  C   UNL     1       5.333   4.376  14.595  0.00  0.00    +0.000 C 
ATOM      7  C   UNL     1       6.732   4.412  13.988  0.00  0.00    +0.000 C 
ATOM      8  C   UNL     1       7.632   5.132  15.004  0.00  0.00    +0.000 C 
ATOM      9  C   UNL     1       6.755   5.397  16.231  0.00  0.00    +0.000 C 
ATOM     10  O   UNL     1       6.841   4.289  17.141  0.00  0.00    +0.000 OA
ATOM     11  C   UNL     1       6.828   4.875  18.439  0.00  0.00    +0.000 C 
ATOM     12  C   UNL     1       7.370   6.268  18.251  0.00  0.00    +0.000 C 
ATOM     13  O   UNL     1       7.122   6.606  16.891  0.00  0.00    +0.000 OA
ENDBRANCH   3   5
BRANCH   1  18
ATOM     14  N   UNL     1       1.669   4.317  19.571  0.00  0.00    +0.000 NA
ATOM     15  C   UNL     1       1.934   5.067  20.832  0.00  0.00    +0.000 C 
ATOM     16  C   UNL     1       1.833   6.566  20.565  0.00  0.00    +0.000 C 
ATOM     17  C   UNL     1       2.805   7.000  19.475  0.00  0.00    +0.000 C 
ATOM     18  C   UNL     1       2.604   6.185  18.190  0.00  0.00    +0.000 C 
ATOM     19  C   UNL     1       2.632   4.683  18.490  0.00  0.00    +0.000 C 
BRANCH  14  20
ATOM     20  S   UNL     1       1.475   2.624  19.791  0.00  0.00    +0.000 S 
ATOM     21  O   UNL     1       0.393   2.180  18.935  0.00  0.00    +0.000 OA
ATOM     22  O   UNL     1       1.480   2.355  21.211  0.00  0.00    +0.000 OA
BRANCH  20  24
ATOM     23  C   UNL     1       4.156   2.131  20.070  0.00  0.00    +0.000 C 
ATOM     24  C   UNL     1       3.007   2.015  19.087  0.00  0.00    +0.000 C 
ENDBRANCH  20  24
ENDBRANCH  14  20
ENDBRANCH   1  18
TORSDOF 4
ENDMDL
MODEL 3
REMARK VINA RESULT:      -7.1      2.430      6.401
REMARK  Name = 
REMARK  5 active torsions:
REMARK  status: ('A' for Active; 'I' for Inactive)
REMARK    1  A    between atoms: C_1  and  C_2
REMARK    2  A    between atoms: C_2  and  S_3
REMARK    3  A    between atoms: S_3  and  N_6
REMARK    4  A    between atoms: C_10  and  C_11
REMARK    5  A    between atoms: N_13  and  C_14
REMARK                            x       y       z     vdW  Elec       q    Type
REMARK                         _______ _______ _______ _____ _____    ______ ____
ROOT
ATOM      1  C   UNL     1       5.158   3.558  19.322  0.00  0.00    +0.000 C 
ATOM      2  O   UNL     1       5.234   3.055  20.439  0.00  0.00    +0.000 OA
ATOM      3  N   UNL     1       3.986   3.574  18.599  0.00  0.00    +0.000 N 
ATOM      4  H   UNL     1       4.019   3.702  17.596  0.00  0.00    +0.000 HD
ENDROOT
BRANCH   3   5
ATOM      5  C   UNL     1       2.751   3.026  19.144  0.00  0.00    +0.000 C 
ATOM      6  C   UNL     1       1.990   2.213  18.105  0.00  0.00    +0.000 C 
ATOM      7  C   UNL     1       0.584   2.096  18.685  0.00  0.00    +0.000 C 
ATOM      8  C   UNL     1       0.423   3.253  19.682  0.00  0.00    +0.000 C 
ATOM      9  C   UNL     1       1.705   4.084  19.575  0.00  0.00    +0.000 C 
ATOM     10  O   UNL     1       1.544   5.102  18.574  0.00  0.00    +0.000 OA
ATOM     11  C   UNL     1       2.221   6.242  19.095  0.00  0.00    +0.000 C 
ATOM     12  C   UNL     1       2.195   6.070  20.591  0.00  0.00    +0.000 C 
ATOM     13  O   UNL     1       2.058   4.672  20.824  0.00  0.00    +0.000 OA
ENDBRANCH   3   5
BRANCH   1  18
ATOM     14  N   UNL     1       7.012   5.286  16.458  0.00  0.00    +0.000 NA
ATOM     15  C   UNL     1       7.315   6.579  17.137  0.00  0.00    +0.000 C 
ATOM     16  C   UNL     1       7.777   6.308  18.566  0.00  0.00    +0.000 C 
ATOM     17  C   UNL     1       6.726   5.531  19.349  0.00  0.00    +0.000 C 
ATOM     18  C   UNL     1       6.340   4.231  18.628  0.00  0.00    +0.000 C 
ATOM     19  C   UNL     1       5.952   4.513  17.173  0.00  0.00    +0.000 C 
BRANCH  14  20
ATOM     20  S   UNL     1       6.753   5.428  14.765  0.00  0.00    +0.000 S 
ATOM     21  O   UNL     1       8.038   5.640  14.130  0.00  0.00    +0.000 OA
ATOM     22  O   UNL     1       5.645   6.334  14.558  0.00  0.00    +0.000 OA
BRANCH  20  24
ATOM     23  C   UNL     1       6.139   3.551  12.866  0.00  0.00    +0.000 C 
ATOM     24  C   UNL     1       6.216   3.766  14.366  0.00  0.00    +0.000 C 
ENDBRANCH  20  24
ENDBRANCH  14  20
ENDBRANCH   1  18
TORSDOF 4
ENDMDL
MODEL 4
REMARK VINA RESULT:      -7.1      3.620      5.850
REMARK  Name = 
REMARK  5 active torsions:
REMARK  status: ('A' for Active; 'I' for Inactive)
REMARK    1  A    between atoms: C_1  and  C_2
REMARK    2  A    between atoms: C_2  and  S_3
REMARK    3  A    between atoms: S_3  and  N_6
REMARK    4  A    between atoms: C_10  and  C_11
REMARK    5  A    between atoms: N_13  and  C_14
REMARK                            x       y       z     vdW  Elec       q    Type
REMARK                         _______ _______ _______ _____ _____    ______ ____
ROOT
ATOM      1  C   UNL     1       2.882   6.536  18.377  0.00  0.00    +0.000 C 
ATOM      2  O   UNL     1       4.063   6.732  18.108  0.00  0.00    +0.000 OA
ATOM      3  N   UNL     1       2.371   5.273  18.580  0.00  0.00    +0.000 N 
ATOM      4  H   UNL     1       1.376   5.116  18.489  0.00  0.00    +0.000 HD
ENDROOT
BRANCH   3   5
ATOM      5  C   UNL     1       3.224   4.093  18.527  0.00  0.00    +0.000 C 
ATOM      6  C   UNL     1       3.146   3.404  17.171  0.00  0.00    +0.000 C 
ATOM      7  C   UNL     1       3.723   2.015  17.428  0.00  0.00    +0.000 C 
ATOM      8  C   UNL     1       3.584   1.756  18.936  0.00  0.00    +0.000 C 
ATOM      9  C   UNL     1       2.826   2.959  19.504  0.00  0.00    +0.000 C 
ATOM     10  O   UNL     1       1.412   2.706  19.467  0.00  0.00    +0.000 OA
ATOM     11  C   UNL     1       0.902   3.282  20.666  0.00  0.00    +0.000 C 
ATOM     12  C   UNL     1       2.058   3.275  21.632  0.00  0.00    +0.000 C 
ATOM     13  O   UNL     1       3.237   3.263  20.834  0.00  0.00    +0.000 OA
ENDBRANCH   3   5
BRANCH   1  18
ATOM     14  N   UNL     1       0.770   9.108  20.261  0.00  0.00    +0.000 NA
ATOM     15  C   UNL     1       1.297  10.345  19.616  0.00  0.00    +0.000 C 
ATOM     16  C   UNL     1       1.433  10.117  18.113  0.00  0.00    +0.000 C 
ATOM     17  C   UNL     1       2.343   8.933  17.813  0.00  0.00    +0.000 C 
ATOM     18  C   UNL     1       1.864   7.664  18.532  0.00  0.00    +0.000 C 
ATOM     19  C   UNL     1       1.660   7.932  20.027  0.00  0.00    +0.000 C 
BRANCH  14  20
ATOM     20  S   UNL     1       0.306   9.318  21.903  0.00  0.00    +0.000 S 
ATOM     21  O   UNL     1       1.510   9.486  22.692  0.00  0.00    +0.000 OA
ATOM     22  O   UNL     1      -0.676   8.307  22.222  0.00  0.00    +0.000 OA
BRANCH  20  24
ATOM     23  C   UNL     1      -1.313  11.190  23.079  0.00  0.00    +0.000 C 
ATOM     24  C   UNL     1      -0.514  10.909  21.820  0.00  0.00    +0.000 C 
ENDBRANCH  20  24
ENDBRANCH  14  20
ENDBRANCH   1  18
TORSDOF 4
ENDMDL
MODEL 5
REMARK VINA RESULT:      -7.0      2.711      3.745
REMARK  Name = 
REMARK  5 active torsions:
REMARK  status: ('A' for Active; 'I' for Inactive)
REMARK    1  A    between atoms: C_1  and  C_2
REMARK    2  A    between atoms: C_2  and  S_3
REMARK    3  A    between atoms: S_3  and  N_6
REMARK    4  A    between atoms: C_10  and  C_11
REMARK    5  A    between atoms: N_13  and  C_14
REMARK                            x       y       z     vdW  Elec       q    Type
REMARK                         _______ _______ _______ _____ _____    ______ ____
ROOT
ATOM      1  C   UNL     1       3.867   6.320  17.886  0.00  0.00    +0.000 C 
ATOM      2  O   UNL     1       3.842   7.380  17.268  0.00  0.00    +0.000 OA
ATOM      3  N   UNL     1       4.491   5.195  17.394  0.00  0.00    +0.000 N 
ATOM      4  H   UNL     1       4.237   4.284  17.755  0.00  0.00    +0.000 HD
ENDROOT
BRANCH   3   5
ATOM      5  C   UNL     1       5.199   5.215  16.122  0.00  0.00    +0.000 C 
ATOM      6  C   UNL     1       5.153   3.858  15.431  0.00  0.00    +0.000 C 
ATOM      7  C   UNL     1       6.261   3.937  14.386  0.00  0.00    +0.000 C 
ATOM      8  C   UNL     1       7.231   5.031  14.857  0.00  0.00    +0.000 C 
ATOM      9  C   UNL     1       6.720   5.486  16.227  0.00  0.00    +0.000 C 
ATOM     10  O   UNL     1       7.324   4.693  17.262  0.00  0.00    +0.000 OA
ATOM     11  C   UNL     1       7.562   5.601  18.333  0.00  0.00    +0.000 C 
ATOM     12  C   UNL     1       7.689   6.955  17.684  0.00  0.00    +0.000 C 
ATOM     13  O   UNL     1       6.978   6.870  16.454  0.00  0.00    +0.000 OA
ENDBRANCH   3   5
BRANCH   1  18
ATOM     14  N   UNL     1       1.610   7.218  20.840  0.00  0.00    +0.000 NA
ATOM     15  C   UNL     1       0.737   6.009  20.828  0.00  0.00    +0.000 C 
ATOM     16  C   UNL     1       1.591   4.765  20.605  0.00  0.00    +0.000 C 
ATOM     17  C   UNL     1       2.381   4.862  19.306  0.00  0.00    +0.000 C 
ATOM     18  C   UNL     1       3.229   6.141  19.262  0.00  0.00    +0.000 C 
ATOM     19  C   UNL     1       2.369   7.373  19.563  0.00  0.00    +0.000 C 
BRANCH  14  20
ATOM     20  S   UNL     1       0.816   8.651  21.359  0.00  0.00    +0.000 S 
ATOM     21  O   UNL     1       1.670   9.314  22.324  0.00  0.00    +0.000 OA
ATOM     22  O   UNL     1      -0.556   8.314  21.666  0.00  0.00    +0.000 OA
BRANCH  20  24
ATOM     23  C   UNL     1       0.878  11.106  20.146  0.00  0.00    +0.000 C 
ATOM     24  C   UNL     1       0.846   9.619  19.851  0.00  0.00    +0.000 C 
ENDBRANCH  20  24
ENDBRANCH  14  20
ENDBRANCH   1  18
TORSDOF 4
ENDMDL
MODEL 6
REMARK VINA RESULT:      -6.9      3.349      4.961
REMARK  Name = 
REMARK  5 active torsions:
REMARK  status: ('A' for Active; 'I' for Inactive)
REMARK    1  A    between atoms: C_1  and  C_2
REMARK    2  A    between atoms: C_2  and  S_3
REMARK    3  A    between atoms: S_3  and  N_6
REMARK    4  A    between atoms: C_10  and  C_11
REMARK    5  A    between atoms: N_13  and  C_14
REMARK                            x       y       z     vdW  Elec       q    Type
REMARK                         _______ _______ _______ _____ _____    ______ ____
ROOT
ATOM      1  C   UNL     1       3.464   5.960  19.196  0.00  0.00    +0.000 C 
ATOM      2  O   UNL     1       3.425   5.061  20.031  0.00  0.00    +0.000 OA
ATOM      3  N   UNL     1       4.557   6.165  18.383  0.00  0.00    +0.000 N 
ATOM      4  H   UNL     1       4.691   7.066  17.944  0.00  0.00    +0.000 HD
ENDROOT
BRANCH   3   5
ATOM      5  C   UNL     1       5.721   5.291  18.442  0.00  0.00    +0.000 C 
ATOM      6  C   UNL     1       6.881   5.948  19.177  0.00  0.00    +0.000 C 
ATOM      7  C   UNL     1       8.094   5.114  18.776  0.00  0.00    +0.000 C 
ATOM      8  C   UNL     1       7.726   4.412  17.459  0.00  0.00    +0.000 C 
ATOM      9  C   UNL     1       6.345   4.945  17.068  0.00  0.00    +0.000 C 
ATOM     10  O   UNL     1       6.489   6.116  16.247  0.00  0.00    +0.000 OA
ATOM     11  C   UNL     1       5.452   6.016  15.276  0.00  0.00    +0.000 C 
ATOM     12  C   UNL     1       5.161   4.542  15.156  0.00  0.00    +0.000 C 
ATOM     13  O   UNL     1       5.572   3.959  16.388  0.00  0.00    +0.000 OA
ENDBRANCH   3   5
BRANCH   1  18
ATOM     14  N   UNL     1       0.886   8.627  20.126  0.00  0.00    +0.000 NA
ATOM     15  C   UNL     1       1.320   9.696  19.180  0.00  0.00    +0.000 C 
ATOM     16  C   UNL     1       1.627   9.078  17.819  0.00  0.00    +0.000 C 
ATOM     17  C   UNL     1       2.697   7.999  17.930  0.00  0.00    +0.000 C 
ATOM     18  C   UNL     1       2.307   6.928  18.958  0.00  0.00    +0.000 C 
ATOM     19  C   UNL     1       1.929   7.572  20.296  0.00  0.00    +0.000 C 
BRANCH  14  20
ATOM     20  S   UNL     1       0.244   9.221  21.605  0.00  0.00    +0.000 S 
ATOM     21  O   UNL     1       1.352   9.626  22.446  0.00  0.00    +0.000 OA
ATOM     22  O   UNL     1      -0.755   8.282  22.066  0.00  0.00    +0.000 OA
BRANCH  20  24
ATOM     23  C   UNL     1      -0.394  11.853  22.018  0.00  0.00    +0.000 C 
ATOM     24  C   UNL     1      -0.583  10.708  21.042  0.00  0.00    +0.000 C 
ENDBRANCH  20  24
ENDBRANCH  14  20
ENDBRANCH   1  18
TORSDOF 4
ENDMDL
MODEL 7
REMARK VINA RESULT:      -6.7      3.599      6.510
REMARK  Name = 
REMARK  5 active torsions:
REMARK  status: ('A' for Active; 'I' for Inactive)
REMARK    1  A    between atoms: C_1  and  C_2
REMARK    2  A    between atoms: C_2  and  S_3
REMARK    3  A    between atoms: S_3  and  N_6
REMARK    4  A    between atoms: C_10  and  C_11
REMARK    5  A    between atoms: N_13  and  C_14
REMARK                            x       y       z     vdW  Elec       q    Type
REMARK                         _______ _______ _______ _____ _____    ______ ____
ROOT
ATOM      1  C   UNL     1       2.256   8.235  18.125  0.00  0.00    +0.000 C 
ATOM      2  O   UNL     1       1.965   8.663  17.012  0.00  0.00    +0.000 OA
ATOM      3  N   UNL     1       1.762   8.796  19.283  0.00  0.00    +0.000 N 
ATOM      4  H   UNL     1       2.244   8.639  20.159  0.00  0.00    +0.000 HD
ENDROOT
BRANCH   3   5
ATOM      5  C   UNL     1       0.827   9.912  19.246  0.00  0.00    +0.000 C 
ATOM      6  C   UNL     1       1.499  11.195  18.779  0.00  0.00    +0.000 C 
ATOM      7  C   UNL     1       0.534  12.296  19.205  0.00  0.00    +0.000 C 
ATOM      8  C   UNL     1      -0.322  11.713  20.340  0.00  0.00    +0.000 C 
ATOM      9  C   UNL     1       0.245  10.319  20.623  0.00  0.00    +0.000 C 
ATOM     10  O   UNL     1       1.274  10.403  21.622  0.00  0.00    +0.000 OA
ATOM     11  C   UNL     1       1.109   9.237  22.422  0.00  0.00    +0.000 C 
ATOM     12  C   UNL     1      -0.343   8.859  22.278  0.00  0.00    +0.000 C 
ATOM     13  O   UNL     1      -0.771   9.410  21.038  0.00  0.00    +0.000 OA
ENDBRANCH   3   5
BRANCH   1  18
ATOM     14  N   UNL     1       3.198   4.531  18.263  0.00  0.00    +0.000 NA
ATOM     15  C   UNL     1       4.277   4.538  17.234  0.00  0.00    +0.000 C 
ATOM     16  C   UNL     1       5.158   5.769  17.427  0.00  0.00    +0.000 C 
ATOM     17  C   UNL     1       4.340   7.052  17.347  0.00  0.00    +0.000 C 
ATOM     18  C   UNL     1       3.173   7.034  18.344  0.00  0.00    +0.000 C 
ATOM     19  C   UNL     1       2.345   5.755  18.187  0.00  0.00    +0.000 C 
BRANCH  14  20
ATOM     20  S   UNL     1       2.309   3.062  18.336  0.00  0.00    +0.000 S 
ATOM     21  O   UNL     1       3.087   2.033  17.676  0.00  0.00    +0.000 OA
ATOM     22  O   UNL     1       0.945   3.347  17.951  0.00  0.00    +0.000 OA
BRANCH  20  24
ATOM     23  C   UNL     1       1.129   3.291  20.798  0.00  0.00    +0.000 C 
ATOM     24  C   UNL     1       2.351   2.730  20.096  0.00  0.00    +0.000 C 
ENDBRANCH  20  24
ENDBRANCH  14  20
ENDBRANCH   1  18
TORSDOF 4
ENDMDL
MODEL 8
REMARK VINA RESULT:      -6.7      3.658      5.002
REMARK  Name = 
REMARK  5 active torsions:
REMARK  status: ('A' for Active; 'I' for Inactive)
REMARK    1  A    between atoms: C_1  and  C_2
REMARK    2  A    between atoms: C_2  and  S_3
REMARK    3  A    between atoms: S_3  and  N_6
REMARK    4  A    between atoms: C_10  and  C_11
REMARK    5  A    between atoms: N_13  and  C_14
REMARK                            x       y       z     vdW  Elec       q    Type
REMARK                         _______ _______ _______ _____ _____    ______ ____
ROOT
ATOM      1  C   UNL     1       3.304   6.673  18.655  0.00  0.00    +0.000 C 
ATOM      2  O   UNL     1       3.920   6.245  19.626  0.00  0.00    +0.000 OA
ATOM      3  N   UNL     1       3.707   6.429  17.360  0.00  0.00    +0.000 N 
ATOM      4  H   UNL     1       3.383   7.030  16.614  0.00  0.00    +0.000 HD
ENDROOT
BRANCH   3   5
ATOM      5  C   UNL     1       4.873   5.605  17.071  0.00  0.00    +0.000 C 
ATOM      6  C   UNL     1       5.406   5.857  15.667  0.00  0.00    +0.000 C 
ATOM      7  C   UNL     1       6.303   4.655  15.390  0.00  0.00    +0.000 C 
ATOM      8  C   UNL     1       5.839   3.535  16.334  0.00  0.00    +0.000 C 
ATOM      9  C   UNL     1       4.605   4.079  17.060  0.00  0.00    +0.000 C 
ATOM     10  O   UNL     1       3.419   3.760  16.315  0.00  0.00    +0.000 OA
ATOM     11  C   UNL     1       2.437   3.452  17.299  0.00  0.00    +0.000 C 
ATOM     12  C   UNL     1       3.213   2.985  18.503  0.00  0.00    +0.000 C 
ATOM     13  O   UNL     1       4.506   3.568  18.387  0.00  0.00    +0.000 OA
ENDBRANCH   3   5
BRANCH   1  18
ATOM     14  N   UNL     1       0.728   8.899  20.397  0.00  0.00    +0.000 NA
ATOM     15  C   UNL     1       0.822  10.089  19.504  0.00  0.00    +0.000 C 
ATOM     16  C   UNL     1       0.882   9.632  18.049  0.00  0.00    +0.000 C 
ATOM     17  C   UNL     1       2.059   8.695  17.811  0.00  0.00    +0.000 C 
ATOM     18  C   UNL     1       2.027   7.500  18.775  0.00  0.00    +0.000 C 
ATOM     19  C   UNL     1       1.890   7.977  20.225  0.00  0.00    +0.000 C 
BRANCH  14  20
ATOM     20  S   UNL     1       0.374   9.279  22.035  0.00  0.00    +0.000 S 
ATOM     21  O   UNL     1       1.625   9.349  22.761  0.00  0.00    +0.000 OA
ATOM     22  O   UNL     1      -0.708   8.423  22.467  0.00  0.00    +0.000 OA
BRANCH  20  24
ATOM     23  C   UNL     1      -1.271  11.274  22.940  0.00  0.00    +0.000 C 
ATOM     24  C   UNL     1      -0.250  10.950  21.866  0.00  0.00    +0.000 C 
ENDBRANCH  20  24
ENDBRANCH  14  20
ENDBRANCH   1  18
TORSDOF 4
ENDMDL
MODEL 9
REMARK VINA RESULT:      -6.6      3.761      7.271
REMARK  Name = 
REMARK  5 active torsions:
REMARK  status: ('A' for Active; 'I' for Inactive)
REMARK    1  A    between atoms: C_1  and  C_2
REMARK    2  A    between atoms: C_2  and  S_3
REMARK    3  A    between atoms: S_3  and  N_6
REMARK    4  A    between atoms: C_10  and  C_11
REMARK    5  A    between atoms: N_13  and  C_14
REMARK                            x       y       z     vdW  Elec       q    Type
REMARK                         _______ _______ _______ _____ _____    ______ ____
ROOT
ATOM      1  C   UNL     1       1.920   8.524  18.201  0.00  0.00    +0.000 C 
ATOM      2  O   UNL     1       1.924   9.213  17.185  0.00  0.00    +0.000 OA
ATOM      3  N   UNL     1       1.388   8.968  19.391  0.00  0.00    +0.000 N 
ATOM      4  H   UNL     1       1.669   8.530  20.259  0.00  0.00    +0.000 HD
ENDROOT
BRANCH   3   5
ATOM      5  C   UNL     1       0.758  10.277  19.499  0.00  0.00    +0.000 C 
ATOM      6  C   UNL     1       1.702  11.393  19.072  0.00  0.00    +0.000 C 
ATOM      7  C   UNL     1       1.064  12.656  19.642  0.00  0.00    +0.000 C 
ATOM      8  C   UNL     1       0.153  12.205  20.794  0.00  0.00    +0.000 C 
ATOM      9  C   UNL     1       0.370  10.697  20.939  0.00  0.00    +0.000 C 
ATOM     10  O   UNL     1       1.440  10.445  21.864  0.00  0.00    +0.000 OA
ATOM     11  C   UNL     1       1.034   9.290  22.593  0.00  0.00    +0.000 C 
ATOM     12  C   UNL     1      -0.471   9.290  22.529  0.00  0.00    +0.000 C 
ATOM     13  O   UNL     1      -0.816  10.031  21.363  0.00  0.00    +0.000 OA
ENDBRANCH   3   5
BRANCH   1  18
ATOM     14  N   UNL     1       4.511   5.767  17.643  0.00  0.00    +0.000 NA
ATOM     15  C   UNL     1       4.715   5.363  19.063  0.00  0.00    +0.000 C 
ATOM     16  C   UNL     1       3.367   5.295  19.773  0.00  0.00    +0.000 C 
ATOM     17  C   UNL     1       2.635   6.630  19.701  0.00  0.00    +0.000 C 
ATOM     18  C   UNL     1       2.483   7.106  18.249  0.00  0.00    +0.000 C 
ATOM     19  C   UNL     1       3.836   7.094  17.530  0.00  0.00    +0.000 C 
BRANCH  14  20
ATOM     20  S   UNL     1       5.913   5.610  16.661  0.00  0.00    +0.000 S 
ATOM     21  O   UNL     1       5.841   6.607  15.612  0.00  0.00    +0.000 OA
ATOM     22  O   UNL     1       6.095   4.207  16.365  0.00  0.00    +0.000 OA
BRANCH  20  24
ATOM     23  C   UNL     1       7.571   7.577  17.604  0.00  0.00    +0.000 C 
ATOM     24  C   UNL     1       7.188   6.124  17.811  0.00  0.00    +0.000 C 
ENDBRANCH  20  24
ENDBRANCH  14  20
ENDBRANCH   1  18
TORSDOF 4
ENDMDL
