MODEL 1
REMARK VINA RESULT:      -6.0      0.000      0.000
REMARK  Name = 
REMARK  12 active torsions:
REMARK  status: ('A' for Active; 'I' for Inactive)
REMARK    1  A    between atoms: C_1  and  N_2
REMARK    2  A    between atoms: N_2  and  C_3
REMARK    3  A    between atoms: N_2  and  S_14
REMARK    4  A    between atoms: C_5  and  C_6
REMARK    5  A    between atoms: C_5  and  C_7
REMARK    6  A    between atoms: N_8  and  O_9
REMARK    7  A    between atoms: C_10  and  C_11
REMARK    8  A    between atoms: C_10  and  C_12
REMARK    9  A    between atoms: S_14  and  C_17
REMARK   10  A    between atoms: C_17  and  C_18
REMARK   11  A    between atoms: C_25  and  C_26
REMARK   12  A    between atoms: C_25  and  C_27
REMARK                            x       y       z     vdW  Elec       q    Type
REMARK                         _______ _______ _______ _____ _____    ______ ____
ROOT
ATOM      1  C   UNL     1       5.749  14.476  17.799  0.00  0.00    +0.000 C 
ATOM      2  N   UNL     1       6.220  15.178  19.017  0.00  0.00    +0.000 NA
ENDROOT
BRANCH   2   3
ATOM      3  C   UNL     1       5.349  16.369  19.433  0.00  0.00    +0.000 C 
ATOM      4  C   UNL     1       5.100  16.578  20.939  0.00  0.00    +0.000 C 
ATOM      5  C   UNL     1       3.925  15.779  21.541  0.00  0.00    +0.000 C 
ATOM      6  C   UNL     1       4.273  14.290  21.654  0.00  0.00    +0.000 C 
ATOM      7  C   UNL     1       3.709  16.317  22.984  0.00  0.00    +0.000 C 
ATOM      8  N   UNL     1       2.692  16.064  20.788  0.00  0.00    +0.000 NA
ATOM      9  C   UNL     1       2.717  16.081  19.308  0.00  0.00    +0.000 C 
ATOM     10  C   UNL     1       1.554  17.036  18.911  0.00  0.00    +0.000 C 
ATOM     11  C   UNL     1       2.361  14.729  18.662  0.00  0.00    +0.000 C 
ATOM     12  C   UNL     1       4.033  16.678  18.710  0.00  0.00    +0.000 C 
BRANCH   8  13
ATOM     13  O   UNL     1       1.585  15.216  21.206  0.00  0.00    +0.000 OA
ATOM     14  H   UNL     1       1.136  15.695  21.922  0.00  0.00    +0.000 HD
ENDBRANCH   8  13
ENDBRANCH   2   3
BRANCH   2  15
ATOM     15  S   UNL     1       7.792  14.845  19.563  0.00  0.00    +0.000 S 
ATOM     16  O   UNL     1       8.519  16.099  19.537  0.00  0.00    +0.000 OA
ATOM     17  O   UNL     1       7.707  14.033  20.750  0.00  0.00    +0.000 OA
BRANCH  15  18
ATOM     18  C   UNL     1       8.572  13.770  18.369  0.00  0.00    +0.000 C 
BRANCH  18  19
ATOM     19  C   UNL     1       9.823  13.001  18.861  0.00  0.00    +0.000 C 
ATOM     20  C   UNL     1      10.739  13.680  19.915  0.00  0.00    +0.000 C 
ATOM     21  C   UNL     1      11.790  12.590  20.248  0.00  0.00    +0.000 C 
ATOM     22  C   UNL     1      11.381  11.408  19.334  0.00  0.00    +0.000 C 
ATOM     23  C   UNL     1      11.804  11.779  17.906  0.00  0.00    +0.000 C 
ATOM     24  C   UNL     1      10.780  12.862  17.653  0.00  0.00    +0.000 C 
ATOM     25  O   UNL     1      10.738  13.540  16.634  0.00  0.00    +0.000 OA
ATOM     26  C   UNL     1       9.821  11.497  19.327  0.00  0.00    +0.000 C 
ATOM     27  C   UNL     1       9.137  10.522  18.352  0.00  0.00    +0.000 C 
ATOM     28  C   UNL     1       9.292  11.151  20.737  0.00  0.00    +0.000 C 
ENDBRANCH  18  19
ENDBRANCH  15  18
ENDBRANCH   2  15
TORSDOF 5
ENDMDL
MODEL 2
REMARK VINA RESULT:      -6.0      3.218      4.662
REMARK  Name = 
REMARK  12 active torsions:
REMARK  status: ('A' for Active; 'I' for Inactive)
REMARK    1  A    between atoms: C_1  and  N_2
REMARK    2  A    between atoms: N_2  and  C_3
REMARK    3  A    between atoms: N_2  and  S_14
REMARK    4  A    between atoms: C_5  and  C_6
REMARK    5  A    between atoms: C_5  and  C_7
REMARK    6  A    between atoms: N_8  and  O_9
REMARK    7  A    between atoms: C_10  and  C_11
REMARK    8  A    between atoms: C_10  and  C_12
REMARK    9  A    between atoms: S_14  and  C_17
REMARK   10  A    between atoms: C_17  and  C_18
REMARK   11  A    between atoms: C_25  and  C_26
REMARK   12  A    between atoms: C_25  and  C_27
REMARK                            x       y       z     vdW  Elec       q    Type
REMARK                         _______ _______ _______ _____ _____    ______ ____
ROOT
ATOM      1  C   UNL     1       6.463  15.362  21.431  0.00  0.00    +0.000 C 
ATOM      2  N   UNL     1       6.841  14.044  21.996  0.00  0.00    +0.000 NA
ENDROOT
BRANCH   2   3
ATOM      3  C   UNL     1       5.861  13.507  23.046  0.00  0.00    +0.000 C 
ATOM      4  C   UNL     1       5.214  14.526  24.004  0.00  0.00    +0.000 C 
ATOM      5  C   UNL     1       6.038  14.883  25.259  0.00  0.00    +0.000 C 
ATOM      6  C   UNL     1       7.240  15.762  24.898  0.00  0.00    +0.000 C 
ATOM      7  C   UNL     1       5.109  15.721  26.182  0.00  0.00    +0.000 C 
ATOM      8  N   UNL     1       6.378  13.653  25.996  0.00  0.00    +0.000 NA
ATOM      9  C   UNL     1       6.873  12.466  25.265  0.00  0.00    +0.000 C 
ATOM     10  C   UNL     1       6.468  11.260  26.161  0.00  0.00    +0.000 C 
ATOM     11  C   UNL     1       8.407  12.390  25.163  0.00  0.00    +0.000 C 
ATOM     12  C   UNL     1       6.192  12.258  23.872  0.00  0.00    +0.000 C 
BRANCH   8  13
ATOM     13  O   UNL     1       7.291  13.911  27.100  0.00  0.00    +0.000 OA
ATOM     14  H   UNL     1       7.811  14.690  26.842  0.00  0.00    +0.000 HD
ENDBRANCH   8  13
ENDBRANCH   2   3
BRANCH   2  15
ATOM     15  S   UNL     1       8.419  13.487  21.718  0.00  0.00    +0.000 S 
ATOM     16  O   UNL     1       9.294  14.261  22.576  0.00  0.00    +0.000 OA
ATOM     17  O   UNL     1       8.410  12.047  21.732  0.00  0.00    +0.000 OA
BRANCH  15  18
ATOM     18  C   UNL     1       8.856  13.891  20.034  0.00  0.00    +0.000 C 
BRANCH  18  19
ATOM     19  C   UNL     1       9.947  13.006  19.383  0.00  0.00    +0.000 C 
ATOM     20  C   UNL     1      11.197  12.637  20.226  0.00  0.00    +0.000 C 
ATOM     21  C   UNL     1      11.987  11.666  19.310  0.00  0.00    +0.000 C 
ATOM     22  C   UNL     1      11.119  11.597  18.030  0.00  0.00    +0.000 C 
ATOM     23  C   UNL     1      11.323  12.920  17.278  0.00  0.00    +0.000 C 
ATOM     24  C   UNL     1      10.574  13.825  18.229  0.00  0.00    +0.000 C 
ATOM     25  O   UNL     1      10.497  15.041  18.100  0.00  0.00    +0.000 OA
ATOM     26  C   UNL     1       9.662  11.675  18.591  0.00  0.00    +0.000 C 
ATOM     27  C   UNL     1       8.573  11.790  17.510  0.00  0.00    +0.000 C 
ATOM     28  C   UNL     1       9.361  10.383  19.384  0.00  0.00    +0.000 C 
ENDBRANCH  18  19
ENDBRANCH  15  18
ENDBRANCH   2  15
TORSDOF 5
ENDMDL
MODEL 3
REMARK VINA RESULT:      -5.7      1.699      2.674
REMARK  Name = 
REMARK  12 active torsions:
REMARK  status: ('A' for Active; 'I' for Inactive)
REMARK    1  A    between atoms: C_1  and  N_2
REMARK    2  A    between atoms: N_2  and  C_3
REMARK    3  A    between atoms: N_2  and  S_14
REMARK    4  A    between atoms: C_5  and  C_6
REMARK    5  A    between atoms: C_5  and  C_7
REMARK    6  A    between atoms: N_8  and  O_9
REMARK    7  A    between atoms: C_10  and  C_11
REMARK    8  A    between atoms: C_10  and  C_12
REMARK    9  A    between atoms: S_14  and  C_17
REMARK   10  A    between atoms: C_17  and  C_18
REMARK   11  A    between atoms: C_25  and  C_26
REMARK   12  A    between atoms: C_25  and  C_27
REMARK                            x       y       z     vdW  Elec       q    Type
REMARK                         _______ _______ _______ _____ _____    ______ ____
ROOT
ATOM      1  C   UNL     1       4.988  14.576  18.193  0.00  0.00    +0.000 C 
ATOM      2  N   UNL     1       6.182  15.194  18.817  0.00  0.00    +0.000 NA
ENDROOT
BRANCH   2   3
ATOM      3  C   UNL     1       5.873  16.422  19.681  0.00  0.00    +0.000 C 
ATOM      4  C   UNL     1       6.571  16.523  21.051  0.00  0.00    +0.000 C 
ATOM      5  C   UNL     1       5.871  15.789  22.215  0.00  0.00    +0.000 C 
ATOM      6  C   UNL     1       6.027  14.270  22.081  0.00  0.00    +0.000 C 
ATOM      7  C   UNL     1       6.601  16.218  23.519  0.00  0.00    +0.000 C 
ATOM      8  N   UNL     1       4.478  16.255  22.330  0.00  0.00    +0.000 NA
ATOM      9  C   UNL     1       3.644  16.398  21.116  0.00  0.00    +0.000 C 
ATOM     10  C   UNL     1       2.600  17.490  21.488  0.00  0.00    +0.000 C 
ATOM     11  C   UNL     1       2.811  15.147  20.780  0.00  0.00    +0.000 C 
ATOM     12  C   UNL     1       4.434  16.917  19.870  0.00  0.00    +0.000 C 
BRANCH   8  13
ATOM     13  O   UNL     1       3.721  15.482  23.304  0.00  0.00    +0.000 OA
ATOM     14  H   UNL     1       3.747  15.993  24.130  0.00  0.00    +0.000 HD
ENDBRANCH   8  13
ENDBRANCH   2   3
BRANCH   2  15
ATOM     15  S   UNL     1       7.707  14.737  18.231  0.00  0.00    +0.000 S 
ATOM     16  O   UNL     1       7.479  13.749  17.195  0.00  0.00    +0.000 OA
ATOM     17  O   UNL     1       8.488  15.925  17.999  0.00  0.00    +0.000 OA
BRANCH  15  18
ATOM     18  C   UNL     1       8.578  13.909  19.553  0.00  0.00    +0.000 C 
BRANCH  18  19
ATOM     19  C   UNL     1       9.776  13.025  19.129  0.00  0.00    +0.000 C 
ATOM     20  C   UNL     1       9.487  11.720  18.338  0.00  0.00    +0.000 C 
ATOM     21  C   UNL     1      10.898  11.179  17.991  0.00  0.00    +0.000 C 
ATOM     22  C   UNL     1      11.848  12.217  18.637  0.00  0.00    +0.000 C 
ATOM     23  C   UNL     1      11.818  11.970  20.152  0.00  0.00    +0.000 C 
ATOM     24  C   UNL     1      10.420  12.474  20.424  0.00  0.00    +0.000 C 
ATOM     25  O   UNL     1       9.877  12.429  21.521  0.00  0.00    +0.000 OA
ATOM     26  C   UNL     1      11.082  13.564  18.435  0.00  0.00    +0.000 C 
ATOM     27  C   UNL     1      11.731  14.771  19.135  0.00  0.00    +0.000 C 
ATOM     28  C   UNL     1      11.045  13.898  16.927  0.00  0.00    +0.000 C 
ENDBRANCH  18  19
ENDBRANCH  15  18
ENDBRANCH   2  15
TORSDOF 5
ENDMDL
MODEL 4
REMARK VINA RESULT:      -5.7      1.715      3.205
REMARK  Name = 
REMARK  12 active torsions:
REMARK  status: ('A' for Active; 'I' for Inactive)
REMARK    1  A    between atoms: C_1  and  N_2
REMARK    2  A    between atoms: N_2  and  C_3
REMARK    3  A    between atoms: N_2  and  S_14
REMARK    4  A    between atoms: C_5  and  C_6
REMARK    5  A    between atoms: C_5  and  C_7
REMARK    6  A    between atoms: N_8  and  O_9
REMARK    7  A    between atoms: C_10  and  C_11
REMARK    8  A    between atoms: C_10  and  C_12
REMARK    9  A    between atoms: S_14  and  C_17
REMARK   10  A    between atoms: C_17  and  C_18
REMARK   11  A    between atoms: C_25  and  C_26
REMARK   12  A    between atoms: C_25  and  C_27
REMARK                            x       y       z     vdW  Elec       q    Type
REMARK                         _______ _______ _______ _____ _____    ______ ____
ROOT
ATOM      1  C   UNL     1       5.057  14.793  20.538  0.00  0.00    +0.000 C 
ATOM      2  N   UNL     1       5.435  15.004  19.121  0.00  0.00    +0.000 NA
ENDROOT
BRANCH   2   3
ATOM      3  C   UNL     1       4.297  14.756  18.124  0.00  0.00    +0.000 C 
ATOM      4  C   UNL     1       3.572  15.987  17.548  0.00  0.00    +0.000 C 
ATOM      5  C   UNL     1       2.417  16.547  18.405  0.00  0.00    +0.000 C 
ATOM      6  C   UNL     1       2.952  17.259  19.652  0.00  0.00    +0.000 C 
ATOM      7  C   UNL     1       1.690  17.612  17.537  0.00  0.00    +0.000 C 
ATOM      8  N   UNL     1       1.441  15.479  18.681  0.00  0.00    +0.000 NA
ATOM      9  C   UNL     1       1.909  14.138  19.098  0.00  0.00    +0.000 C 
ATOM     10  C   UNL     1       0.783  13.171  18.633  0.00  0.00    +0.000 C 
ATOM     11  C   UNL     1       1.992  13.952  20.624  0.00  0.00    +0.000 C 
ATOM     12  C   UNL     1       3.229  13.687  18.390  0.00  0.00    +0.000 C 
BRANCH   8  13
ATOM     13  O   UNL     1       0.413  15.905  19.620  0.00  0.00    +0.000 OA
ATOM     14  H   UNL     1      -0.431  15.601  19.249  0.00  0.00    +0.000 HD
ENDBRANCH   8  13
ENDBRANCH   2   3
BRANCH   2  15
ATOM     15  S   UNL     1       7.087  15.114  18.751  0.00  0.00    +0.000 S 
ATOM     16  O   UNL     1       7.261  14.529  17.436  0.00  0.00    +0.000 OA
ATOM     17  O   UNL     1       7.543  16.444  19.064  0.00  0.00    +0.000 OA
BRANCH  15  18
ATOM     18  C   UNL     1       7.978  14.078  19.901  0.00  0.00    +0.000 C 
BRANCH  18  19
ATOM     19  C   UNL     1       9.214  13.338  19.333  0.00  0.00    +0.000 C 
ATOM     20  C   UNL     1       9.002  12.338  18.164  0.00  0.00    +0.000 C 
ATOM     21  C   UNL     1      10.441  11.897  17.790  0.00  0.00    +0.000 C 
ATOM     22  C   UNL     1      11.326  12.674  18.797  0.00  0.00    +0.000 C 
ATOM     23  C   UNL     1      11.167  11.984  20.159  0.00  0.00    +0.000 C 
ATOM     24  C   UNL     1       9.747  12.411  20.452  0.00  0.00    +0.000 C 
ATOM     25  O   UNL     1       9.112  12.049  21.434  0.00  0.00    +0.000 OA
ATOM     26  C   UNL     1      10.572  14.035  18.946  0.00  0.00    +0.000 C 
ATOM     27  C   UNL     1      11.151  14.963  20.029  0.00  0.00    +0.000 C 
ATOM     28  C   UNL     1      10.663  14.807  17.611  0.00  0.00    +0.000 C 
ENDBRANCH  18  19
ENDBRANCH  15  18
ENDBRANCH   2  15
TORSDOF 5
ENDMDL
MODEL 5
REMARK VINA RESULT:      -5.6      8.266     11.374
REMARK  Name = 
REMARK  12 active torsions:
REMARK  status: ('A' for Active; 'I' for Inactive)
REMARK    1  A    between atoms: C_1  and  N_2
REMARK    2  A    between atoms: N_2  and  C_3
REMARK    3  A    between atoms: N_2  and  S_14
REMARK    4  A    between atoms: C_5  and  C_6
REMARK    5  A    between atoms: C_5  and  C_7
REMARK    6  A    between atoms: N_8  and  O_9
REMARK    7  A    between atoms: C_10  and  C_11
REMARK    8  A    between atoms: C_10  and  C_12
REMARK    9  A    between atoms: S_14  and  C_17
REMARK   10  A    between atoms: C_17  and  C_18
REMARK   11  A    between atoms: C_25  and  C_26
REMARK   12  A    between atoms: C_25  and  C_27
REMARK                            x       y       z     vdW  Elec       q    Type
REMARK                         _______ _______ _______ _____ _____    ______ ____
ROOT
ATOM      1  C   UNL     1       4.346   6.604  17.531  0.00  0.00    +0.000 C 
ATOM      2  N   UNL     1       3.575   6.330  18.768  0.00  0.00    +0.000 NA
ENDROOT
BRANCH   2   3
ATOM      3  C   UNL     1       4.037   5.084  19.532  0.00  0.00    +0.000 C 
ATOM      4  C   UNL     1       4.508   3.874  18.704  0.00  0.00    +0.000 C 
ATOM      5  C   UNL     1       3.397   2.913  18.229  0.00  0.00    +0.000 C 
ATOM      6  C   UNL     1       2.565   3.545  17.108  0.00  0.00    +0.000 C 
ATOM      7  C   UNL     1       4.108   1.664  17.634  0.00  0.00    +0.000 C 
ATOM      8  N   UNL     1       2.614   2.449  19.387  0.00  0.00    +0.000 NA
ATOM      9  C   UNL     1       2.177   3.416  20.419  0.00  0.00    +0.000 C 
ATOM     10  C   UNL     1       2.035   2.564  21.714  0.00  0.00    +0.000 C 
ATOM     11  C   UNL     1       0.776   4.004  20.172  0.00  0.00    +0.000 C 
ATOM     12  C   UNL     1       3.229   4.535  20.715  0.00  0.00    +0.000 C 
BRANCH   8  13
ATOM     13  O   UNL     1       1.451   1.670  18.985  0.00  0.00    +0.000 OA
ATOM     14  H   UNL     1       1.740   1.127  18.233  0.00  0.00    +0.000 HD
ENDBRANCH   8  13
ENDBRANCH   2   3
BRANCH   2  15
ATOM     15  S   UNL     1       2.108   7.154  18.984  0.00  0.00    +0.000 S 
ATOM     16  O   UNL     1       1.198   6.661  17.968  0.00  0.00    +0.000 OA
ATOM     17  O   UNL     1       1.772   7.140  20.385  0.00  0.00    +0.000 OA
BRANCH  15  18
ATOM     18  C   UNL     1       2.390   8.882  18.632  0.00  0.00    +0.000 C 
BRANCH  18  19
ATOM     19  C   UNL     1       1.160   9.813  18.766  0.00  0.00    +0.000 C 
ATOM     20  C   UNL     1      -0.022   9.620  17.777  0.00  0.00    +0.000 C 
ATOM     21  C   UNL     1      -1.093  10.621  18.283  0.00  0.00    +0.000 C 
ATOM     22  C   UNL     1      -0.405  11.299  19.494  0.00  0.00    +0.000 C 
ATOM     23  C   UNL     1       0.642  12.270  18.930  0.00  0.00    +0.000 C 
ATOM     24  C   UNL     1       1.631  11.246  18.420  0.00  0.00    +0.000 C 
ATOM     25  O   UNL     1       2.652  11.528  17.805  0.00  0.00    +0.000 OA
ATOM     26  C   UNL     1       0.425  10.133  20.121  0.00  0.00    +0.000 C 
ATOM     27  C   UNL     1       1.353  10.565  21.270  0.00  0.00    +0.000 C 
ATOM     28  C   UNL     1      -0.547   9.086  20.711  0.00  0.00    +0.000 C 
ENDBRANCH  18  19
ENDBRANCH  15  18
ENDBRANCH   2  15
TORSDOF 5
ENDMDL
MODEL 6
REMARK VINA RESULT:      -5.6      7.289      8.914
REMARK  Name = 
REMARK  12 active torsions:
REMARK  status: ('A' for Active; 'I' for Inactive)
REMARK    1  A    between atoms: C_1  and  N_2
REMARK    2  A    between atoms: N_2  and  C_3
REMARK    3  A    between atoms: N_2  and  S_14
REMARK    4  A    between atoms: C_5  and  C_6
REMARK    5  A    between atoms: C_5  and  C_7
REMARK    6  A    between atoms: N_8  and  O_9
REMARK    7  A    between atoms: C_10  and  C_11
REMARK    8  A    between atoms: C_10  and  C_12
REMARK    9  A    between atoms: S_14  and  C_17
REMARK   10  A    between atoms: C_17  and  C_18
REMARK   11  A    between atoms: C_25  and  C_26
REMARK   12  A    between atoms: C_25  and  C_27
REMARK                            x       y       z     vdW  Elec       q    Type
REMARK                         _______ _______ _______ _____ _____    ______ ____
ROOT
ATOM      1  C   UNL     1       0.016   9.872  18.275  0.00  0.00    +0.000 C 
ATOM      2  N   UNL     1       1.184   9.340  19.017  0.00  0.00    +0.000 NA
ENDROOT
BRANCH   2   3
ATOM      3  C   UNL     1       1.625  10.210  20.199  0.00  0.00    +0.000 C 
ATOM      4  C   UNL     1       1.575   9.582  21.605  0.00  0.00    +0.000 C 
ATOM      5  C   UNL     1       0.213   9.662  22.326  0.00  0.00    +0.000 C 
ATOM      6  C   UNL     1      -0.800   8.699  21.698  0.00  0.00    +0.000 C 
ATOM      7  C   UNL     1       0.453   9.194  23.790  0.00  0.00    +0.000 C 
ATOM      8  N   UNL     1      -0.232  11.064  22.392  0.00  0.00    +0.000 NA
ATOM      9  C   UNL     1      -0.130  11.929  21.195  0.00  0.00    +0.000 C 
ATOM     10  C   UNL     1      -0.008  13.371  21.768  0.00  0.00    +0.000 C 
ATOM     11  C   UNL     1      -1.402  11.950  20.329  0.00  0.00    +0.000 C 
ATOM     12  C   UNL     1       1.149  11.662  20.336  0.00  0.00    +0.000 C 
BRANCH   8  13
ATOM     13  O   UNL     1      -1.585  11.185  22.916  0.00  0.00    +0.000 OA
ATOM     14  H   UNL     1      -1.498  11.597  23.792  0.00  0.00    +0.000 HD
ENDBRANCH   8  13
ENDBRANCH   2   3
BRANCH   2  15
ATOM     15  S   UNL     1       2.088   8.104  18.288  0.00  0.00    +0.000 S 
ATOM     16  O   UNL     1       1.237   7.500  17.281  0.00  0.00    +0.000 OA
ATOM     17  O   UNL     1       3.399   8.612  17.977  0.00  0.00    +0.000 OA
BRANCH  15  18
ATOM     18  C   UNL     1       2.400   6.850  19.521  0.00  0.00    +0.000 C 
BRANCH  18  19
ATOM     19  C   UNL     1       2.757   5.442  18.985  0.00  0.00    +0.000 C 
ATOM     20  C   UNL     1       1.751   4.738  18.035  0.00  0.00    +0.000 C 
ATOM     21  C   UNL     1       2.485   3.437  17.618  0.00  0.00    +0.000 C 
ATOM     22  C   UNL     1       3.826   3.521  18.389  0.00  0.00    +0.000 C 
ATOM     23  C   UNL     1       3.517   3.209  19.860  0.00  0.00    +0.000 C 
ATOM     24  C   UNL     1       2.773   4.481  20.198  0.00  0.00    +0.000 C 
ATOM     25  O   UNL     1       2.246   4.698  21.282  0.00  0.00    +0.000 OA
ATOM     26  C   UNL     1       4.149   5.050  18.363  0.00  0.00    +0.000 C 
ATOM     27  C   UNL     1       5.369   5.453  19.209  0.00  0.00    +0.000 C 
ATOM     28  C   UNL     1       4.464   5.470  16.909  0.00  0.00    +0.000 C 
ENDBRANCH  18  19
ENDBRANCH  15  18
ENDBRANCH   2  15
TORSDOF 5
ENDMDL
MODEL 7
REMARK VINA RESULT:      -5.6      6.893      8.668
REMARK  Name = 
REMARK  12 active torsions:
REMARK  status: ('A' for Active; 'I' for Inactive)
REMARK    1  A    between atoms: C_1  and  N_2
REMARK    2  A    between atoms: N_2  and  C_3
REMARK    3  A    between atoms: N_2  and  S_14
REMARK    4  A    between atoms: C_5  and  C_6
REMARK    5  A    between atoms: C_5  and  C_7
REMARK    6  A    between atoms: N_8  and  O_9
REMARK    7  A    between atoms: C_10  and  C_11
REMARK    8  A    between atoms: C_10  and  C_12
REMARK    9  A    between atoms: S_14  and  C_17
REMARK   10  A    between atoms: C_17  and  C_18
REMARK   11  A    between atoms: C_25  and  C_26
REMARK   12  A    between atoms: C_25  and  C_27
REMARK                            x       y       z     vdW  Elec       q    Type
REMARK                         _______ _______ _______ _____ _____    ______ ____
ROOT
ATOM      1  C   UNL     1       0.877   9.046  20.784  0.00  0.00    +0.000 C 
ATOM      2  N   UNL     1       1.113   9.297  19.343  0.00  0.00    +0.000 NA
ENDROOT
BRANCH   2   3
ATOM      3  C   UNL     1       0.206  10.375  18.736  0.00  0.00    +0.000 C 
ATOM      4  C   UNL     1       0.860  11.707  18.325  0.00  0.00    +0.000 C 
ATOM      5  C   UNL     1       1.005  12.758  19.446  0.00  0.00    +0.000 C 
ATOM      6  C   UNL     1       2.101  12.355  20.439  0.00  0.00    +0.000 C 
ATOM      7  C   UNL     1       1.456  14.081  18.766  0.00  0.00    +0.000 C 
ATOM      8  N   UNL     1      -0.311  13.016  20.057  0.00  0.00    +0.000 NA
ATOM      9  C   UNL     1      -1.203  11.886  20.398  0.00  0.00    +0.000 C 
ATOM     10  C   UNL     1      -2.636  12.490  20.339  0.00  0.00    +0.000 C 
ATOM     11  C   UNL     1      -1.043  11.377  21.842  0.00  0.00    +0.000 C 
ATOM     12  C   UNL     1      -1.152  10.713  19.364  0.00  0.00    +0.000 C 
BRANCH   8  13
ATOM     13  O   UNL     1      -0.212  13.876  21.227  0.00  0.00    +0.000 OA
ATOM     14  H   UNL     1       0.730  13.899  21.465  0.00  0.00    +0.000 HD
ENDBRANCH   8  13
ENDBRANCH   2   3
BRANCH   2  15
ATOM     15  S   UNL     1       2.036   8.163  18.483  0.00  0.00    +0.000 S 
ATOM     16  O   UNL     1       1.172   7.608  17.460  0.00  0.00    +0.000 OA
ATOM     17  O   UNL     1       3.314   8.749  18.171  0.00  0.00    +0.000 OA
BRANCH  15  18
ATOM     18  C   UNL     1       2.443   6.827  19.598  0.00  0.00    +0.000 C 
BRANCH  18  19
ATOM     19  C   UNL     1       2.830   5.483  18.935  0.00  0.00    +0.000 C 
ATOM     20  C   UNL     1       1.833   4.840  17.933  0.00  0.00    +0.000 C 
ATOM     21  C   UNL     1       2.596   3.601  17.396  0.00  0.00    +0.000 C 
ATOM     22  C   UNL     1       3.942   3.651  18.161  0.00  0.00    +0.000 C 
ATOM     23  C   UNL     1       3.656   3.201  19.601  0.00  0.00    +0.000 C 
ATOM     24  C   UNL     1       2.883   4.418  20.057  0.00  0.00    +0.000 C 
ATOM     25  O   UNL     1       2.362   4.524  21.160  0.00  0.00    +0.000 OA
ATOM     26  C   UNL     1       4.225   5.184  18.269  0.00  0.00    +0.000 C 
ATOM     27  C   UNL     1       5.443   5.542  19.139  0.00  0.00    +0.000 C 
ATOM     28  C   UNL     1       4.515   5.741  16.857  0.00  0.00    +0.000 C 
ENDBRANCH  18  19
ENDBRANCH  15  18
ENDBRANCH   2  15
TORSDOF 5
ENDMDL
MODEL 8
REMARK VINA RESULT:      -5.5      1.684      3.182
REMARK  Name = 
REMARK  12 active torsions:
REMARK  status: ('A' for Active; 'I' for Inactive)
REMARK    1  A    between atoms: C_1  and  N_2
REMARK    2  A    between atoms: N_2  and  C_3
REMARK    3  A    between atoms: N_2  and  S_14
REMARK    4  A    between atoms: C_5  and  C_6
REMARK    5  A    between atoms: C_5  and  C_7
REMARK    6  A    between atoms: N_8  and  O_9
REMARK    7  A    between atoms: C_10  and  C_11
REMARK    8  A    between atoms: C_10  and  C_12
REMARK    9  A    between atoms: S_14  and  C_17
REMARK   10  A    between atoms: C_17  and  C_18
REMARK   11  A    between atoms: C_25  and  C_26
REMARK   12  A    between atoms: C_25  and  C_27
REMARK                            x       y       z     vdW  Elec       q    Type
REMARK                         _______ _______ _______ _____ _____    ______ ____
ROOT
ATOM      1  C   UNL     1       5.831  17.813  20.135  0.00  0.00    +0.000 C 
ATOM      2  N   UNL     1       5.952  16.370  19.818  0.00  0.00    +0.000 NA
ENDROOT
BRANCH   2   3
ATOM      3  C   UNL     1       4.865  15.495  20.451  0.00  0.00    +0.000 C 
ATOM      4  C   UNL     1       4.248  14.383  19.581  0.00  0.00    +0.000 C 
ATOM      5  C   UNL     1       3.076  14.815  18.673  0.00  0.00    +0.000 C 
ATOM      6  C   UNL     1       3.574  15.664  17.498  0.00  0.00    +0.000 C 
ATOM      7  C   UNL     1       2.464  13.514  18.081  0.00  0.00    +0.000 C 
ATOM      8  N   UNL     1       2.026  15.451  19.487  0.00  0.00    +0.000 NA
ATOM      9  C   UNL     1       2.391  16.447  20.519  0.00  0.00    +0.000 C 
ATOM     10  C   UNL     1       1.242  16.364  21.564  0.00  0.00    +0.000 C 
ATOM     11  C   UNL     1       2.370  17.903  20.017  0.00  0.00    +0.000 C 
ATOM     12  C   UNL     1       3.724  16.115  21.268  0.00  0.00    +0.000 C 
BRANCH   8  13
ATOM     13  O   UNL     1       0.969  16.024  18.667  0.00  0.00    +0.000 OA
ATOM     14  H   UNL     1       1.348  16.133  17.779  0.00  0.00    +0.000 HD
ENDBRANCH   8  13
ENDBRANCH   2   3
BRANCH   2  15
ATOM     15  S   UNL     1       7.413  15.828  19.147  0.00  0.00    +0.000 S 
ATOM     16  O   UNL     1       7.110  15.356  17.810  0.00  0.00    +0.000 OA
ATOM     17  O   UNL     1       8.432  16.815  19.398  0.00  0.00    +0.000 OA
BRANCH  15  18
ATOM     18  C   UNL     1       7.956  14.409  20.086  0.00  0.00    +0.000 C 
BRANCH  18  19
ATOM     19  C   UNL     1       9.073  13.553  19.440  0.00  0.00    +0.000 C 
ATOM     20  C   UNL     1       8.715  12.686  18.202  0.00  0.00    +0.000 C 
ATOM     21  C   UNL     1      10.076  12.082  17.769  0.00  0.00    +0.000 C 
ATOM     22  C   UNL     1      11.068  12.647  18.815  0.00  0.00    +0.000 C 
ATOM     23  C   UNL     1      10.825  11.881  20.123  0.00  0.00    +0.000 C 
ATOM     24  C   UNL     1       9.480  12.475  20.474  0.00  0.00    +0.000 C 
ATOM     25  O   UNL     1       8.809  12.129  21.438  0.00  0.00    +0.000 OA
ATOM     26  C   UNL     1      10.511  14.083  19.083  0.00  0.00    +0.000 C 
ATOM     27  C   UNL     1      11.222  14.834  20.223  0.00  0.00    +0.000 C 
ATOM     28  C   UNL     1      10.699  14.938  17.810  0.00  0.00    +0.000 C 
ENDBRANCH  18  19
ENDBRANCH  15  18
ENDBRANCH   2  15
TORSDOF 5
ENDMDL
MODEL 9
REMARK VINA RESULT:      -5.4      1.332      2.360
REMARK  Name = 
REMARK  12 active torsions:
REMARK  status: ('A' for Active; 'I' for Inactive)
REMARK    1  A    between atoms: C_1  and  N_2
REMARK    2  A    between atoms: N_2  and  C_3
REMARK    3  A    between atoms: N_2  and  S_14
REMARK    4  A    between atoms: C_5  and  C_6
REMARK    5  A    between atoms: C_5  and  C_7
REMARK    6  A    between atoms: N_8  and  O_9
REMARK    7  A    between atoms: C_10  and  C_11
REMARK    8  A    between atoms: C_10  and  C_12
REMARK    9  A    between atoms: S_14  and  C_17
REMARK   10  A    between atoms: C_17  and  C_18
REMARK   11  A    between atoms: C_25  and  C_26
REMARK   12  A    between atoms: C_25  and  C_27
REMARK                            x       y       z     vdW  Elec       q    Type
REMARK                         _______ _______ _______ _____ _____    ______ ____
ROOT
ATOM      1  C   UNL     1       5.041  14.562  18.109  0.00  0.00    +0.000 C 
ATOM      2  N   UNL     1       5.920  15.374  18.984  0.00  0.00    +0.000 NA
ENDROOT
BRANCH   2   3
ATOM      3  C   UNL     1       5.185  16.462  19.776  0.00  0.00    +0.000 C 
ATOM      4  C   UNL     1       5.432  16.527  21.295  0.00  0.00    +0.000 C 
ATOM      5  C   UNL     1       4.551  15.599  22.158  0.00  0.00    +0.000 C 
ATOM      6  C   UNL     1       4.975  14.135  22.001  0.00  0.00    +0.000 C 
ATOM      7  C   UNL     1       4.795  15.999  23.640  0.00  0.00    +0.000 C 
ATOM      8  N   UNL     1       3.129  15.859  21.873  0.00  0.00    +0.000 NA
ATOM      9  C   UNL     1       2.669  16.001  20.473  0.00  0.00    +0.000 C 
ATOM     10  C   UNL     1       1.404  16.902  20.569  0.00  0.00    +0.000 C 
ATOM     11  C   UNL     1       2.176  14.686  19.841  0.00  0.00    +0.000 C 
ATOM     12  C   UNL     1       3.693  16.737  19.548  0.00  0.00    +0.000 C 
BRANCH   8  13
ATOM     13  O   UNL     1       2.254  14.903  22.535  0.00  0.00    +0.000 OA
ATOM     14  H   UNL     1       1.860  15.376  23.287  0.00  0.00    +0.000 HD
ENDBRANCH   8  13
ENDBRANCH   2   3
BRANCH   2  15
ATOM     15  S   UNL     1       7.595  15.271  18.736  0.00  0.00    +0.000 S 
ATOM     16  O   UNL     1       7.789  14.785  17.383  0.00  0.00    +0.000 OA
ATOM     17  O   UNL     1       8.207  16.487  19.208  0.00  0.00    +0.000 OA
BRANCH  15  18
ATOM     18  C   UNL     1       8.237  14.018  19.834  0.00  0.00    +0.000 C 
BRANCH  18  19
ATOM     19  C   UNL     1       9.466  13.228  19.320  0.00  0.00    +0.000 C 
ATOM     20  C   UNL     1       9.261  12.220  18.156  0.00  0.00    +0.000 C 
ATOM     21  C   UNL     1      10.696  11.725  17.840  0.00  0.00    +0.000 C 
ATOM     22  C   UNL     1      11.571  12.484  18.868  0.00  0.00    +0.000 C 
ATOM     23  C   UNL     1      11.339  11.817  20.231  0.00  0.00    +0.000 C 
ATOM     24  C   UNL     1       9.925  12.297  20.468  0.00  0.00    +0.000 C 
ATOM     25  O   UNL     1       9.244  11.972  21.431  0.00  0.00    +0.000 OA
ATOM     26  C   UNL     1      10.860  13.872  18.974  0.00  0.00    +0.000 C 
ATOM     27  C   UNL     1      11.433  14.793  20.066  0.00  0.00    +0.000 C 
ATOM     28  C   UNL     1      11.026  14.623  17.634  0.00  0.00    +0.000 C 
ENDBRANCH  18  19
ENDBRANCH  15  18
ENDBRANCH   2  15
TORSDOF 5
ENDMDL
