MODEL 1
REMARK VINA RESULT:      -7.9      0.000      0.000
REMARK  Name = 
REMARK  12 active torsions:
REMARK  status: ('A' for Active; 'I' for Inactive)
REMARK    1  A    between atoms: C_1  and  O_2
REMARK    2  A    between atoms: O_2  and  C_3
REMARK    3  A    between atoms: C_5  and  N_6
REMARK    4  A    between atoms: C_12  and  N_13
REMARK    5  A    between atoms: N_13  and  C_14
REMARK    6  A    between atoms: C_18  and  N_19
REMARK    7  A    between atoms: N_19  and  S_20
REMARK    8  A    between atoms: S_20  and  C_21
REMARK    9  A    between atoms: C_27  and  O_28
REMARK   10  A    between atoms: O_28  and  C_29
REMARK   11  A    between atoms: C_30  and  O_31
REMARK   12  A    between atoms: O_31  and  C_32
REMARK                            x       y       z     vdW  Elec       q    Type
REMARK                         _______ _______ _______ _____ _____    ______ ____
ROOT
ATOM      1  N   UNL     1       2.322   7.448  17.967  0.00  0.00    +0.000 N 
ATOM      2  C   UNL     1       1.736   8.347  18.861  0.00  0.00    +0.000 A 
ATOM      3  N   UNL     1       1.784   8.168  20.200  0.00  0.00    +0.000 NA
ATOM      4  N   UNL     1       1.145   9.020  21.045  0.00  0.00    +0.000 NA
ATOM      5  C   UNL     1       0.454  10.031  20.502  0.00  0.00    +0.000 A 
ATOM      6 CL   UNL     1      -0.384  11.023  21.618  0.00  0.00    +0.000 Cl
ATOM      7  C   UNL     1       0.402  10.209  19.122  0.00  0.00    +0.000 A 
ATOM      8  N   UNL     1       1.075   9.370  18.302  0.00  0.00    +0.000 NA
ATOM      9  H   UNL     1       2.201   7.780  17.019  0.00  0.00    +0.000 HD
ENDROOT
BRANCH   1  12
ATOM     10  C   UNL     1       2.637   3.744  18.090  0.00  0.00    +0.000 A 
ATOM     11  C   UNL     1       2.108   5.044  17.952  0.00  0.00    +0.000 A 
ATOM     12  C   UNL     1       2.890   6.183  18.152  0.00  0.00    +0.000 A 
ATOM     13  C   UNL     1       4.205   5.980  18.560  0.00  0.00    +0.000 A 
ATOM     14  C   UNL     1       4.744   4.702  18.784  0.00  0.00    +0.000 A 
ATOM     15  C   UNL     1       3.958   3.558  18.548  0.00  0.00    +0.000 A 
BRANCH  10  17
ATOM     16  C   UNL     1       0.840   2.373  18.815  0.00  0.00    +0.000 C 
ATOM     17  O   UNL     1       1.846   2.649  17.841  0.00  0.00    +0.000 OA
ENDBRANCH  10  17
BRANCH  14  18
ATOM     18  O   UNL     1       6.044   4.795  19.210  0.00  0.00    +0.000 OA
ATOM     19  C   UNL     1       7.093   4.922  18.269  0.00  0.00    +0.000 C 
ENDBRANCH  14  18
BRANCH  15  20
ATOM     20  O   UNL     1       4.555   2.358  18.822  0.00  0.00    +0.000 OA
ATOM     21  C   UNL     1       4.533   1.834  20.138  0.00  0.00    +0.000 C 
ENDBRANCH  15  20
ENDBRANCH   1  12
BRANCH   7  22
ATOM     22  N   UNL     1      -0.395  11.240  18.571  0.00  0.00    +0.000 N 
ATOM     23  H   UNL     1       0.076  12.139  18.532  0.00  0.00    +0.000 HD
BRANCH  22  24
ATOM     24  C   UNL     1      -1.781  11.297  18.350  0.00  0.00    +0.000 A 
ATOM     25  C   UNL     1      -2.348  10.434  17.400  0.00  0.00    +0.000 A 
ATOM     26  C   UNL     1      -3.722  10.435  17.152  0.00  0.00    +0.000 A 
ATOM     27  C   UNL     1      -4.555  11.297  17.860  0.00  0.00    +0.000 A 
ATOM     28  C   UNL     1      -4.008  12.150  18.813  0.00  0.00    +0.000 A 
ATOM     29  C   UNL     1      -2.639  12.135  19.072  0.00  0.00    +0.000 A 
BRANCH  28  30
ATOM     30  N   UNL     1      -4.863  13.034  19.537  0.00  0.00    +0.000 N 
ATOM     31  H   UNL     1      -4.474  13.961  19.707  0.00  0.00    +0.000 HD
BRANCH  30  32
ATOM     32  S   UNL     1      -5.555  12.455  20.965  0.00  0.00    +0.000 S 
ATOM     33  C   UNL     1      -6.572  13.835  21.442  0.00  0.00    +0.000 C 
ATOM     34  O   UNL     1      -6.394  11.308  20.696  0.00  0.00    +0.000 OA
ATOM     35  O   UNL     1      -4.463  12.368  21.914  0.00  0.00    +0.000 OA
ENDBRANCH  30  32
ENDBRANCH  28  30
ENDBRANCH  22  24
ENDBRANCH   7  22
TORSDOF 8
ENDMDL
MODEL 2
REMARK VINA RESULT:      -7.9      0.960      2.466
REMARK  Name = 
REMARK  12 active torsions:
REMARK  status: ('A' for Active; 'I' for Inactive)
REMARK    1  A    between atoms: C_1  and  O_2
REMARK    2  A    between atoms: O_2  and  C_3
REMARK    3  A    between atoms: C_5  and  N_6
REMARK    4  A    between atoms: C_12  and  N_13
REMARK    5  A    between atoms: N_13  and  C_14
REMARK    6  A    between atoms: C_18  and  N_19
REMARK    7  A    between atoms: N_19  and  S_20
REMARK    8  A    between atoms: S_20  and  C_21
REMARK    9  A    between atoms: C_27  and  O_28
REMARK   10  A    between atoms: O_28  and  C_29
REMARK   11  A    between atoms: C_30  and  O_31
REMARK   12  A    between atoms: O_31  and  C_32
REMARK                            x       y       z     vdW  Elec       q    Type
REMARK                         _______ _______ _______ _____ _____    ______ ____
ROOT
ATOM      1  N   UNL     1       2.604   7.251  18.300  0.00  0.00    +0.000 N 
ATOM      2  C   UNL     1       1.877   8.164  19.066  0.00  0.00    +0.000 A 
ATOM      3  N   UNL     1       1.751   8.045  20.406  0.00  0.00    +0.000 NA
ATOM      4  N   UNL     1       0.979   8.908  21.119  0.00  0.00    +0.000 NA
ATOM      5  C   UNL     1       0.336   9.869  20.442  0.00  0.00    +0.000 A 
ATOM      6 CL   UNL     1      -0.674  10.877  21.390  0.00  0.00    +0.000 Cl
ATOM      7  C   UNL     1       0.463   9.986  19.060  0.00  0.00    +0.000 A 
ATOM      8  N   UNL     1       1.264   9.138  18.377  0.00  0.00    +0.000 NA
ATOM      9  H   UNL     1       2.600   7.537  17.330  0.00  0.00    +0.000 HD
ENDROOT
BRANCH   1  12
ATOM     10  C   UNL     1       5.206   4.699  19.043  0.00  0.00    +0.000 A 
ATOM     11  C   UNL     1       4.571   5.909  18.692  0.00  0.00    +0.000 A 
ATOM     12  C   UNL     1       3.181   6.017  18.618  0.00  0.00    +0.000 A 
ATOM     13  C   UNL     1       2.447   4.856  18.845  0.00  0.00    +0.000 A 
ATOM     14  C   UNL     1       3.047   3.616  19.120  0.00  0.00    +0.000 A 
ATOM     15  C   UNL     1       4.448   3.524  19.224  0.00  0.00    +0.000 A 
BRANCH  10  17
ATOM     16  C   UNL     1       7.301   4.898  17.944  0.00  0.00    +0.000 C 
ATOM     17  O   UNL     1       6.574   4.645  19.147  0.00  0.00    +0.000 OA
ENDBRANCH  10  17
BRANCH  14  18
ATOM     18  O   UNL     1       2.095   2.641  19.265  0.00  0.00    +0.000 OA
ATOM     19  C   UNL     1       0.822   2.965  19.794  0.00  0.00    +0.000 C 
ENDBRANCH  14  18
BRANCH  15  20
ATOM     20  O   UNL     1       4.946   2.272  19.463  0.00  0.00    +0.000 OA
ATOM     21  C   UNL     1       4.873   1.712  20.763  0.00  0.00    +0.000 C 
ENDBRANCH  15  20
ENDBRANCH   1  12
BRANCH   7  22
ATOM     22  N   UNL     1      -0.285  10.962  18.361  0.00  0.00    +0.000 N 
ATOM     23  H   UNL     1       0.111  11.895  18.420  0.00  0.00    +0.000 HD
BRANCH  22  24
ATOM     24  C   UNL     1      -1.598  10.917  17.863  0.00  0.00    +0.000 A 
ATOM     25  C   UNL     1      -1.922   9.940  16.908  0.00  0.00    +0.000 A 
ATOM     26  C   UNL     1      -3.215   9.837  16.392  0.00  0.00    +0.000 A 
ATOM     27  C   UNL     1      -4.210  10.707  16.831  0.00  0.00    +0.000 A 
ATOM     28  C   UNL     1      -3.905  11.671  17.785  0.00  0.00    +0.000 A 
ATOM     29  C   UNL     1      -2.619  11.761  18.313  0.00  0.00    +0.000 A 
BRANCH  28  30
ATOM     30  N   UNL     1      -4.926  12.563  18.232  0.00  0.00    +0.000 N 
ATOM     31  H   UNL     1      -4.584  13.433  18.641  0.00  0.00    +0.000 HD
BRANCH  30  32
ATOM     32  S   UNL     1      -6.139  11.927  19.221  0.00  0.00    +0.000 S 
ATOM     33  C   UNL     1      -7.147  13.366  19.503  0.00  0.00    +0.000 C 
ATOM     34  O   UNL     1      -6.908  10.932  18.507  0.00  0.00    +0.000 OA
ATOM     35  O   UNL     1      -5.485  11.600  20.472  0.00  0.00    +0.000 OA
ENDBRANCH  30  32
ENDBRANCH  28  30
ENDBRANCH  22  24
ENDBRANCH   7  22
TORSDOF 8
ENDMDL
MODEL 3
REMARK VINA RESULT:      -7.9      4.160      5.225
REMARK  Name = 
REMARK  12 active torsions:
REMARK  status: ('A' for Active; 'I' for Inactive)
REMARK    1  A    between atoms: C_1  and  O_2
REMARK    2  A    between atoms: O_2  and  C_3
REMARK    3  A    between atoms: C_5  and  N_6
REMARK    4  A    between atoms: C_12  and  N_13
REMARK    5  A    between atoms: N_13  and  C_14
REMARK    6  A    between atoms: C_18  and  N_19
REMARK    7  A    between atoms: N_19  and  S_20
REMARK    8  A    between atoms: S_20  and  C_21
REMARK    9  A    between atoms: C_27  and  O_28
REMARK   10  A    between atoms: O_28  and  C_29
REMARK   11  A    between atoms: C_30  and  O_31
REMARK   12  A    between atoms: O_31  and  C_32
REMARK                            x       y       z     vdW  Elec       q    Type
REMARK                         _______ _______ _______ _____ _____    ______ ____
ROOT
ATOM      1  N   UNL     1       2.736   7.641  17.955  0.00  0.00    +0.000 N 
ATOM      2  C   UNL     1       2.059   8.509  18.814  0.00  0.00    +0.000 A 
ATOM      3  N   UNL     1       1.776   8.183  20.095  0.00  0.00    +0.000 NA
ATOM      4  N   UNL     1       1.054   9.017  20.889  0.00  0.00    +0.000 NA
ATOM      5  C   UNL     1       0.618  10.164  20.350  0.00  0.00    +0.000 A 
ATOM      6 CL   UNL     1      -0.344  11.134  21.382  0.00  0.00    +0.000 Cl
ATOM      7  C   UNL     1       0.906  10.495  19.028  0.00  0.00    +0.000 A 
ATOM      8  N   UNL     1       1.657   9.665  18.268  0.00  0.00    +0.000 NA
ATOM      9  H   UNL     1       2.873   8.085  17.057  0.00  0.00    +0.000 HD
ENDROOT
BRANCH   1  12
ATOM     10  C   UNL     1       2.463   3.932  18.044  0.00  0.00    +0.000 A 
ATOM     11  C   UNL     1       2.139   5.302  17.955  0.00  0.00    +0.000 A 
ATOM     12  C   UNL     1       3.108   6.299  18.087  0.00  0.00    +0.000 A 
ATOM     13  C   UNL     1       4.404   5.881  18.375  0.00  0.00    +0.000 A 
ATOM     14  C   UNL     1       4.749   4.531  18.549  0.00  0.00    +0.000 A 
ATOM     15  C   UNL     1       3.772   3.531  18.382  0.00  0.00    +0.000 A 
BRANCH  10  17
ATOM     16  C   UNL     1       0.760   2.608  19.034  0.00  0.00    +0.000 C 
ATOM     17  O   UNL     1       1.488   2.982  17.865  0.00  0.00    +0.000 OA
ENDBRANCH  10  17
BRANCH  14  18
ATOM     18  O   UNL     1       6.079   4.409  18.858  0.00  0.00    +0.000 OA
ATOM     19  C   UNL     1       7.064   4.747  17.900  0.00  0.00    +0.000 C 
ENDBRANCH  14  18
BRANCH  15  20
ATOM     20  O   UNL     1       4.191   2.247  18.600  0.00  0.00    +0.000 OA
ATOM     21  C   UNL     1       4.385   1.774  19.921  0.00  0.00    +0.000 C 
ENDBRANCH  15  20
ENDBRANCH   1  12
BRANCH   7  22
ATOM     22  N   UNL     1       0.372  11.676  18.462  0.00  0.00    +0.000 N 
ATOM     23  H   UNL     1      -0.362  11.503  17.783  0.00  0.00    +0.000 HD
BRANCH  22  24
ATOM     24  C   UNL     1       0.871  12.989  18.460  0.00  0.00    +0.000 A 
ATOM     25  C   UNL     1       0.057  14.020  18.956  0.00  0.00    +0.000 A 
ATOM     26  C   UNL     1       0.508  15.340  18.995  0.00  0.00    +0.000 A 
ATOM     27  C   UNL     1       1.789  15.651  18.545  0.00  0.00    +0.000 A 
ATOM     28  C   UNL     1       2.610  14.638  18.063  0.00  0.00    +0.000 A 
ATOM     29  C   UNL     1       2.165  13.317  18.042  0.00  0.00    +0.000 A 
BRANCH  28  30
ATOM     30  N   UNL     1       3.923  14.958  17.601  0.00  0.00    +0.000 N 
ATOM     31  H   UNL     1       4.394  14.205  17.101  0.00  0.00    +0.000 HD
BRANCH  30  32
ATOM     32  S   UNL     1       4.996  15.640  18.713  0.00  0.00    +0.000 S 
ATOM     33  C   UNL     1       6.560  15.100  18.061  0.00  0.00    +0.000 C 
ATOM     34  O   UNL     1       4.927  17.084  18.667  0.00  0.00    +0.000 OA
ATOM     35  O   UNL     1       4.770  14.926  19.954  0.00  0.00    +0.000 OA
ENDBRANCH  30  32
ENDBRANCH  28  30
ENDBRANCH  22  24
ENDBRANCH   7  22
TORSDOF 8
ENDMDL
MODEL 4
REMARK VINA RESULT:      -7.8      1.342      1.413
REMARK  Name = 
REMARK  12 active torsions:
REMARK  status: ('A' for Active; 'I' for Inactive)
REMARK    1  A    between atoms: C_1  and  O_2
REMARK    2  A    between atoms: O_2  and  C_3
REMARK    3  A    between atoms: C_5  and  N_6
REMARK    4  A    between atoms: C_12  and  N_13
REMARK    5  A    between atoms: N_13  and  C_14
REMARK    6  A    between atoms: C_18  and  N_19
REMARK    7  A    between atoms: N_19  and  S_20
REMARK    8  A    between atoms: S_20  and  C_21
REMARK    9  A    between atoms: C_27  and  O_28
REMARK   10  A    between atoms: O_28  and  C_29
REMARK   11  A    between atoms: C_30  and  O_31
REMARK   12  A    between atoms: O_31  and  C_32
REMARK                            x       y       z     vdW  Elec       q    Type
REMARK                         _______ _______ _______ _____ _____    ______ ____
ROOT
ATOM      1  N   UNL     1       2.417   7.358  18.888  0.00  0.00    +0.000 N 
ATOM      2  C   UNL     1       1.713   8.183  19.767  0.00  0.00    +0.000 A 
ATOM      3  N   UNL     1       1.630   7.924  21.091  0.00  0.00    +0.000 NA
ATOM      4  N   UNL     1       0.880   8.704  21.914  0.00  0.00    +0.000 NA
ATOM      5  C   UNL     1       0.212   9.726  21.361  0.00  0.00    +0.000 A 
ATOM      6 CL   UNL     1      -0.769  10.623  22.440  0.00  0.00    +0.000 Cl
ATOM      7  C   UNL     1       0.295   9.987  19.996  0.00  0.00    +0.000 A 
ATOM      8  N   UNL     1       1.076   9.219  19.203  0.00  0.00    +0.000 NA
ATOM      9  H   UNL     1       2.382   7.743  17.953  0.00  0.00    +0.000 HD
ENDROOT
BRANCH   1  12
ATOM     10  C   UNL     1       2.739   3.704  19.500  0.00  0.00    +0.000 A 
ATOM     11  C   UNL     1       2.203   5.000  19.353  0.00  0.00    +0.000 A 
ATOM     12  C   UNL     1       3.008   6.101  19.057  0.00  0.00    +0.000 A 
ATOM     13  C   UNL     1       4.378   5.875  18.977  0.00  0.00    +0.000 A 
ATOM     14  C   UNL     1       4.957   4.613  19.195  0.00  0.00    +0.000 A 
ATOM     15  C   UNL     1       4.134   3.502  19.461  0.00  0.00    +0.000 A 
BRANCH  10  17
ATOM     16  C   UNL     1       0.956   2.340  18.726  0.00  0.00    +0.000 C 
ATOM     17  O   UNL     1       1.907   2.639  19.747  0.00  0.00    +0.000 OA
ENDBRANCH  10  17
BRANCH  14  18
ATOM     18  O   UNL     1       6.322   4.683  19.088  0.00  0.00    +0.000 OA
ATOM     19  C   UNL     1       6.934   4.697  17.812  0.00  0.00    +0.000 C 
ENDBRANCH  14  18
BRANCH  15  20
ATOM     20  O   UNL     1       4.785   2.320  19.689  0.00  0.00    +0.000 OA
ATOM     21  C   UNL     1       4.760   1.729  20.977  0.00  0.00    +0.000 C 
ENDBRANCH  15  20
ENDBRANCH   1  12
BRANCH   7  22
ATOM     22  N   UNL     1      -0.478  11.026  19.426  0.00  0.00    +0.000 N 
ATOM     23  H   UNL     1      -0.364  11.919  19.895  0.00  0.00    +0.000 HD
BRANCH  22  24
ATOM     24  C   UNL     1      -1.564  10.968  18.538  0.00  0.00    +0.000 A 
ATOM     25  C   UNL     1      -1.498  10.084  17.449  0.00  0.00    +0.000 A 
ATOM     26  C   UNL     1      -2.556   9.973  16.545  0.00  0.00    +0.000 A 
ATOM     27  C   UNL     1      -3.705  10.740  16.721  0.00  0.00    +0.000 A 
ATOM     28  C   UNL     1      -3.788  11.611  17.801  0.00  0.00    +0.000 A 
ATOM     29  C   UNL     1      -2.739  11.708  18.713  0.00  0.00    +0.000 A 
BRANCH  28  30
ATOM     30  N   UNL     1      -4.966  12.398  17.979  0.00  0.00    +0.000 N 
ATOM     31  H   UNL     1      -4.802  13.334  18.351  0.00  0.00    +0.000 HD
BRANCH  30  32
ATOM     32  S   UNL     1      -6.257  11.693  18.810  0.00  0.00    +0.000 S 
ATOM     33  C   UNL     1      -5.901  12.180  20.483  0.00  0.00    +0.000 C 
ATOM     34  O   UNL     1      -7.511  12.279  18.392  0.00  0.00    +0.000 OA
ATOM     35  O   UNL     1      -6.040  10.263  18.715  0.00  0.00    +0.000 OA
ENDBRANCH  30  32
ENDBRANCH  28  30
ENDBRANCH  22  24
ENDBRANCH   7  22
TORSDOF 8
ENDMDL
MODEL 5
REMARK VINA RESULT:      -7.8      1.072      2.384
REMARK  Name = 
REMARK  12 active torsions:
REMARK  status: ('A' for Active; 'I' for Inactive)
REMARK    1  A    between atoms: C_1  and  O_2
REMARK    2  A    between atoms: O_2  and  C_3
REMARK    3  A    between atoms: C_5  and  N_6
REMARK    4  A    between atoms: C_12  and  N_13
REMARK    5  A    between atoms: N_13  and  C_14
REMARK    6  A    between atoms: C_18  and  N_19
REMARK    7  A    between atoms: N_19  and  S_20
REMARK    8  A    between atoms: S_20  and  C_21
REMARK    9  A    between atoms: C_27  and  O_28
REMARK   10  A    between atoms: O_28  and  C_29
REMARK   11  A    between atoms: C_30  and  O_31
REMARK   12  A    between atoms: O_31  and  C_32
REMARK                            x       y       z     vdW  Elec       q    Type
REMARK                         _______ _______ _______ _____ _____    ______ ____
ROOT
ATOM      1  N   UNL     1       2.515   7.195  18.844  0.00  0.00    +0.000 N 
ATOM      2  C   UNL     1       1.837   8.075  19.689  0.00  0.00    +0.000 A 
ATOM      3  N   UNL     1       1.749   7.873  21.023  0.00  0.00    +0.000 NA
ATOM      4  N   UNL     1       1.023   8.708  21.813  0.00  0.00    +0.000 NA
ATOM      5  C   UNL     1       0.386   9.727  21.220  0.00  0.00    +0.000 A 
ATOM      6 CL   UNL     1      -0.565  10.697  22.262  0.00  0.00    +0.000 Cl
ATOM      7  C   UNL     1       0.475   9.930  19.845  0.00  0.00    +0.000 A 
ATOM      8  N   UNL     1       1.231   9.107  19.084  0.00  0.00    +0.000 NA
ATOM      9  H   UNL     1       2.490   7.543  17.895  0.00  0.00    +0.000 HD
ENDROOT
BRANCH   1  12
ATOM     10  C   UNL     1       5.045   4.477  19.067  0.00  0.00    +0.000 A 
ATOM     11  C   UNL     1       4.427   5.723  18.828  0.00  0.00    +0.000 A 
ATOM     12  C   UNL     1       3.067   5.928  19.065  0.00  0.00    +0.000 A 
ATOM     13  C   UNL     1       2.329   4.827  19.488  0.00  0.00    +0.000 A 
ATOM     14  C   UNL     1       2.893   3.552  19.661  0.00  0.00    +0.000 A 
ATOM     15  C   UNL     1       4.272   3.362  19.450  0.00  0.00    +0.000 A 
BRANCH  10  17
ATOM     16  C   UNL     1       6.886   4.769  17.597  0.00  0.00    +0.000 C 
ATOM     17  O   UNL     1       6.394   4.328  18.862  0.00  0.00    +0.000 OA
ENDBRANCH  10  17
BRANCH  14  18
ATOM     18  O   UNL     1       1.936   2.650  20.048  0.00  0.00    +0.000 OA
ATOM     19  C   UNL     1       1.406   2.696  21.359  0.00  0.00    +0.000 C 
ENDBRANCH  14  18
BRANCH  15  20
ATOM     20  O   UNL     1       4.728   2.082  19.613  0.00  0.00    +0.000 OA
ATOM     21  C   UNL     1       5.051   1.598  20.905  0.00  0.00    +0.000 C 
ENDBRANCH  15  20
ENDBRANCH   1  12
BRANCH   7  22
ATOM     22  N   UNL     1      -0.267  10.968  19.234  0.00  0.00    +0.000 N 
ATOM     23  H   UNL     1       0.161  11.883  19.333  0.00  0.00    +0.000 HD
BRANCH  22  24
ATOM     24  C   UNL     1      -1.597  10.991  18.785  0.00  0.00    +0.000 A 
ATOM     25  C   UNL     1      -2.061   9.926  17.997  0.00  0.00    +0.000 A 
ATOM     26  C   UNL     1      -3.379   9.888  17.537  0.00  0.00    +0.000 A 
ATOM     27  C   UNL     1      -4.260  10.915  17.868  0.00  0.00    +0.000 A 
ATOM     28  C   UNL     1      -3.817  11.970  18.657  0.00  0.00    +0.000 A 
ATOM     29  C   UNL     1      -2.507  11.997  19.130  0.00  0.00    +0.000 A 
BRANCH  28  30
ATOM     30  N   UNL     1      -4.721  13.023  18.994  0.00  0.00    +0.000 N 
ATOM     31  H   UNL     1      -4.482  13.932  18.601  0.00  0.00    +0.000 HD
BRANCH  30  32
ATOM     32  S   UNL     1      -5.124  13.213  20.624  0.00  0.00    +0.000 S 
ATOM     33  C   UNL     1      -6.680  14.065  20.498  0.00  0.00    +0.000 C 
ATOM     34  O   UNL     1      -5.328  11.926  21.251  0.00  0.00    +0.000 OA
ATOM     35  O   UNL     1      -4.154  14.150  21.154  0.00  0.00    +0.000 OA
ENDBRANCH  30  32
ENDBRANCH  28  30
ENDBRANCH  22  24
ENDBRANCH   7  22
TORSDOF 8
ENDMDL
MODEL 6
REMARK VINA RESULT:      -7.8      4.231      5.756
REMARK  Name = 
REMARK  12 active torsions:
REMARK  status: ('A' for Active; 'I' for Inactive)
REMARK    1  A    between atoms: C_1  and  O_2
REMARK    2  A    between atoms: O_2  and  C_3
REMARK    3  A    between atoms: C_5  and  N_6
REMARK    4  A    between atoms: C_12  and  N_13
REMARK    5  A    between atoms: N_13  and  C_14
REMARK    6  A    between atoms: C_18  and  N_19
REMARK    7  A    between atoms: N_19  and  S_20
REMARK    8  A    between atoms: S_20  and  C_21
REMARK    9  A    between atoms: C_27  and  O_28
REMARK   10  A    between atoms: O_28  and  C_29
REMARK   11  A    between atoms: C_30  and  O_31
REMARK   12  A    between atoms: O_31  and  C_32
REMARK                            x       y       z     vdW  Elec       q    Type
REMARK                         _______ _______ _______ _____ _____    ______ ____
ROOT
ATOM      1  N   UNL     1       2.671   7.712  17.971  0.00  0.00    +0.000 N 
ATOM      2  C   UNL     1       1.994   8.591  18.819  0.00  0.00    +0.000 A 
ATOM      3  N   UNL     1       1.675   8.266  20.092  0.00  0.00    +0.000 NA
ATOM      4  N   UNL     1       0.955   9.113  20.873  0.00  0.00    +0.000 NA
ATOM      5  C   UNL     1       0.557  10.272  20.331  0.00  0.00    +0.000 A 
ATOM      6 CL   UNL     1      -0.406  11.259  21.345  0.00  0.00    +0.000 Cl
ATOM      7  C   UNL     1       0.882  10.601  19.017  0.00  0.00    +0.000 A 
ATOM      8  N   UNL     1       1.631   9.759  18.270  0.00  0.00    +0.000 NA
ATOM      9  H   UNL     1       2.839   8.157  17.078  0.00  0.00    +0.000 HD
ENDROOT
BRANCH   1  12
ATOM     10  C   UNL     1       4.721   4.668  18.574  0.00  0.00    +0.000 A 
ATOM     11  C   UNL     1       4.330   6.011  18.393  0.00  0.00    +0.000 A 
ATOM     12  C   UNL     1       3.010   6.361  18.105  0.00  0.00    +0.000 A 
ATOM     13  C   UNL     1       2.104   5.318  17.939  0.00  0.00    +0.000 A 
ATOM     14  C   UNL     1       2.473   3.966  18.034  0.00  0.00    +0.000 A 
ATOM     15  C   UNL     1       3.800   3.622  18.356  0.00  0.00    +0.000 A 
BRANCH  10  17
ATOM     16  C   UNL     1       6.869   5.483  19.175  0.00  0.00    +0.000 C 
ATOM     17  O   UNL     1       6.021   4.368  18.899  0.00  0.00    +0.000 OA
ENDBRANCH  10  17
BRANCH  14  18
ATOM     18  O   UNL     1       1.396   3.153  17.793  0.00  0.00    +0.000 OA
ATOM     19  C   UNL     1       0.678   2.587  18.874  0.00  0.00    +0.000 C 
ENDBRANCH  14  18
BRANCH  15  20
ATOM     20  O   UNL     1       4.076   2.283  18.397  0.00  0.00    +0.000 OA
ATOM     21  C   UNL     1       4.241   1.626  19.641  0.00  0.00    +0.000 C 
ENDBRANCH  15  20
ENDBRANCH   1  12
BRANCH   7  22
ATOM     22  N   UNL     1       0.388  11.797  18.445  0.00  0.00    +0.000 N 
ATOM     23  H   UNL     1      -0.343  11.645  17.757  0.00  0.00    +0.000 HD
BRANCH  22  24
ATOM     24  C   UNL     1       0.923  13.095  18.449  0.00  0.00    +0.000 A 
ATOM     25  C   UNL     1       0.145  14.144  18.964  0.00  0.00    +0.000 A 
ATOM     26  C   UNL     1       0.633  15.451  19.009  0.00  0.00    +0.000 A 
ATOM     27  C   UNL     1       1.916  15.730  18.546  0.00  0.00    +0.000 A 
ATOM     28  C   UNL     1       2.703  14.699  18.045  0.00  0.00    +0.000 A 
ATOM     29  C   UNL     1       2.221  13.391  18.017  0.00  0.00    +0.000 A 
BRANCH  28  30
ATOM     30  N   UNL     1       4.018  14.986  17.569  0.00  0.00    +0.000 N 
ATOM     31  H   UNL     1       4.469  14.220  17.070  0.00  0.00    +0.000 HD
BRANCH  30  32
ATOM     32  S   UNL     1       5.116  15.651  18.668  0.00  0.00    +0.000 S 
ATOM     33  C   UNL     1       6.663  15.085  17.996  0.00  0.00    +0.000 C 
ATOM     34  O   UNL     1       5.070  17.096  18.623  0.00  0.00    +0.000 OA
ATOM     35  O   UNL     1       4.894  14.942  19.912  0.00  0.00    +0.000 OA
ENDBRANCH  30  32
ENDBRANCH  28  30
ENDBRANCH  22  24
ENDBRANCH   7  22
TORSDOF 8
ENDMDL
MODEL 7
REMARK VINA RESULT:      -7.7      1.312      1.387
REMARK  Name = 
REMARK  12 active torsions:
REMARK  status: ('A' for Active; 'I' for Inactive)
REMARK    1  A    between atoms: C_1  and  O_2
REMARK    2  A    between atoms: O_2  and  C_3
REMARK    3  A    between atoms: C_5  and  N_6
REMARK    4  A    between atoms: C_12  and  N_13
REMARK    5  A    between atoms: N_13  and  C_14
REMARK    6  A    between atoms: C_18  and  N_19
REMARK    7  A    between atoms: N_19  and  S_20
REMARK    8  A    between atoms: S_20  and  C_21
REMARK    9  A    between atoms: C_27  and  O_28
REMARK   10  A    between atoms: O_28  and  C_29
REMARK   11  A    between atoms: C_30  and  O_31
REMARK   12  A    between atoms: O_31  and  C_32
REMARK                            x       y       z     vdW  Elec       q    Type
REMARK                         _______ _______ _______ _____ _____    ______ ____
ROOT
ATOM      1  N   UNL     1       2.284   7.403  19.066  0.00  0.00    +0.000 N 
ATOM      2  C   UNL     1       1.661   8.281  19.955  0.00  0.00    +0.000 A 
ATOM      3  N   UNL     1       1.605   8.043  21.285  0.00  0.00    +0.000 NA
ATOM      4  N   UNL     1       0.932   8.879  22.120  0.00  0.00    +0.000 NA
ATOM      5  C   UNL     1       0.313   9.935  21.575  0.00  0.00    +0.000 A 
ATOM      6 CL   UNL     1      -0.574  10.905  22.671  0.00  0.00    +0.000 Cl
ATOM      7  C   UNL     1       0.368  10.174  20.204  0.00  0.00    +0.000 A 
ATOM      8  N   UNL     1       1.073   9.348  19.397  0.00  0.00    +0.000 NA
ATOM      9  H   UNL     1       2.242   7.778  18.128  0.00  0.00    +0.000 HD
ENDROOT
BRANCH   1  12
ATOM     10  C   UNL     1       2.421   3.773  19.865  0.00  0.00    +0.000 A 
ATOM     11  C   UNL     1       1.966   5.098  19.709  0.00  0.00    +0.000 A 
ATOM     12  C   UNL     1       2.799   6.113  19.235  0.00  0.00    +0.000 A 
ATOM     13  C   UNL     1       4.124   5.771  18.981  0.00  0.00    +0.000 A 
ATOM     14  C   UNL     1       4.633   4.481  19.199  0.00  0.00    +0.000 A 
ATOM     15  C   UNL     1       3.778   3.456  19.648  0.00  0.00    +0.000 A 
BRANCH  10  17
ATOM     16  C   UNL     1       1.477   2.610  21.707  0.00  0.00    +0.000 C 
ATOM     17  O   UNL     1       1.558   2.794  20.294  0.00  0.00    +0.000 OA
ENDBRANCH  10  17
BRANCH  14  18
ATOM     18  O   UNL     1       5.971   4.433  18.902  0.00  0.00    +0.000 OA
ATOM     19  C   UNL     1       6.824   5.492  19.296  0.00  0.00    +0.000 C 
ENDBRANCH  14  18
BRANCH  15  20
ATOM     20  O   UNL     1       4.367   2.240  19.862  0.00  0.00    +0.000 OA
ATOM     21  C   UNL     1       4.185   1.185  18.933  0.00  0.00    +0.000 C 
ENDBRANCH  15  20
ENDBRANCH   1  12
BRANCH   7  22
ATOM     22  N   UNL     1      -0.356  11.253  19.644  0.00  0.00    +0.000 N 
ATOM     23  H   UNL     1       0.046  12.161  19.853  0.00  0.00    +0.000 HD
BRANCH  22  24
ATOM     24  C   UNL     1      -1.656  11.298  19.115  0.00  0.00    +0.000 A 
ATOM     25  C   UNL     1      -2.014  10.368  18.126  0.00  0.00    +0.000 A 
ATOM     26  C   UNL     1      -3.298  10.355  17.578  0.00  0.00    +0.000 A 
ATOM     27  C   UNL     1      -4.251  11.270  18.018  0.00  0.00    +0.000 A 
ATOM     28  C   UNL     1      -3.913  12.189  19.006  0.00  0.00    +0.000 A 
ATOM     29  C   UNL     1      -2.637  12.189  19.565  0.00  0.00    +0.000 A 
BRANCH  28  30
ATOM     30  N   UNL     1      -4.891  13.128  19.455  0.00  0.00    +0.000 N 
ATOM     31  H   UNL     1      -4.561  14.091  19.518  0.00  0.00    +0.000 HD
BRANCH  30  32
ATOM     32  S   UNL     1      -5.752  12.746  20.857  0.00  0.00    +0.000 S 
ATOM     33  C   UNL     1      -6.759  11.395  20.287  0.00  0.00    +0.000 C 
ATOM     34  O   UNL     1      -4.858  12.278  21.892  0.00  0.00    +0.000 OA
ATOM     35  O   UNL     1      -6.629  13.876  21.090  0.00  0.00    +0.000 OA
ENDBRANCH  30  32
ENDBRANCH  28  30
ENDBRANCH  22  24
ENDBRANCH   7  22
TORSDOF 8
ENDMDL
MODEL 8
REMARK VINA RESULT:      -7.5      1.453      1.543
REMARK  Name = 
REMARK  12 active torsions:
REMARK  status: ('A' for Active; 'I' for Inactive)
REMARK    1  A    between atoms: C_1  and  O_2
REMARK    2  A    between atoms: O_2  and  C_3
REMARK    3  A    between atoms: C_5  and  N_6
REMARK    4  A    between atoms: C_12  and  N_13
REMARK    5  A    between atoms: N_13  and  C_14
REMARK    6  A    between atoms: C_18  and  N_19
REMARK    7  A    between atoms: N_19  and  S_20
REMARK    8  A    between atoms: S_20  and  C_21
REMARK    9  A    between atoms: C_27  and  O_28
REMARK   10  A    between atoms: O_28  and  C_29
REMARK   11  A    between atoms: C_30  and  O_31
REMARK   12  A    between atoms: O_31  and  C_32
REMARK                            x       y       z     vdW  Elec       q    Type
REMARK                         _______ _______ _______ _____ _____    ______ ____
ROOT
ATOM      1  N   UNL     1       2.052   7.948  18.818  0.00  0.00    +0.000 N 
ATOM      2  C   UNL     1       1.395   8.680  19.810  0.00  0.00    +0.000 A 
ATOM      3  N   UNL     1       1.307   8.248  21.088  0.00  0.00    +0.000 NA
ATOM      4  N   UNL     1       0.602   8.945  22.017  0.00  0.00    +0.000 NA
ATOM      5  C   UNL     1      -0.015  10.065  21.617  0.00  0.00    +0.000 A 
ATOM      6 CL   UNL     1      -0.943  10.855  22.820  0.00  0.00    +0.000 Cl
ATOM      7  C   UNL     1       0.072  10.504  20.299  0.00  0.00    +0.000 A 
ATOM      8  N   UNL     1       0.809   9.813  19.399  0.00  0.00    +0.000 NA
ATOM      9  H   UNL     1       2.031   8.458  17.944  0.00  0.00    +0.000 HD
ENDROOT
BRANCH   1  12
ATOM     10  C   UNL     1       2.830   4.486  19.931  0.00  0.00    +0.000 A 
ATOM     11  C   UNL     1       2.354   5.813  19.902  0.00  0.00    +0.000 A 
ATOM     12  C   UNL     1       2.578   6.652  18.809  0.00  0.00    +0.000 A 
ATOM     13  C   UNL     1       3.352   6.140  17.771  0.00  0.00    +0.000 A 
ATOM     14  C   UNL     1       3.909   4.851  17.800  0.00  0.00    +0.000 A 
ATOM     15  C   UNL     1       3.651   4.001  18.892  0.00  0.00    +0.000 A 
BRANCH  10  17
ATOM     16  C   UNL     1       1.257   3.075  21.014  0.00  0.00    +0.000 C 
ATOM     17  O   UNL     1       2.551   3.679  21.007  0.00  0.00    +0.000 OA
ENDBRANCH  10  17
BRANCH  14  18
ATOM     18  O   UNL     1       4.651   4.620  16.671  0.00  0.00    +0.000 OA
ATOM     19  C   UNL     1       5.259   5.701  15.988  0.00  0.00    +0.000 C 
ENDBRANCH  14  18
BRANCH  15  20
ATOM     20  O   UNL     1       4.259   2.776  18.850  0.00  0.00    +0.000 OA
ATOM     21  C   UNL     1       3.547   1.641  18.387  0.00  0.00    +0.000 C 
ENDBRANCH  15  20
ENDBRANCH   1  12
BRANCH   7  22
ATOM     22  N   UNL     1      -0.649  11.648  19.885  0.00  0.00    +0.000 N 
ATOM     23  H   UNL     1      -0.197  12.523  20.130  0.00  0.00    +0.000 HD
BRANCH  22  24
ATOM     24  C   UNL     1      -1.985  11.779  19.469  0.00  0.00    +0.000 A 
ATOM     25  C   UNL     1      -2.398  11.106  18.308  0.00  0.00    +0.000 A 
ATOM     26  C   UNL     1      -3.717  11.186  17.858  0.00  0.00    +0.000 A 
ATOM     27  C   UNL     1      -4.650  11.935  18.570  0.00  0.00    +0.000 A 
ATOM     28  C   UNL     1      -4.257  12.597  19.727  0.00  0.00    +0.000 A 
ATOM     29  C   UNL     1      -2.945  12.502  20.186  0.00  0.00    +0.000 A 
BRANCH  28  30
ATOM     30  N   UNL     1      -5.214  13.367  20.455  0.00  0.00    +0.000 N 
ATOM     31  H   UNL     1      -4.885  14.283  20.758  0.00  0.00    +0.000 HD
BRANCH  30  32
ATOM     32  S   UNL     1      -6.006  12.612  21.743  0.00  0.00    +0.000 S 
ATOM     33  C   UNL     1      -7.148  13.882  22.240  0.00  0.00    +0.000 C 
ATOM     34  O   UNL     1      -6.741  11.456  21.280  0.00  0.00    +0.000 OA
ATOM     35  O   UNL     1      -5.010  12.486  22.787  0.00  0.00    +0.000 OA
ENDBRANCH  30  32
ENDBRANCH  28  30
ENDBRANCH  22  24
ENDBRANCH   7  22
TORSDOF 8
ENDMDL
MODEL 9
REMARK VINA RESULT:      -7.5      3.683      4.574
REMARK  Name = 
REMARK  12 active torsions:
REMARK  status: ('A' for Active; 'I' for Inactive)
REMARK    1  A    between atoms: C_1  and  O_2
REMARK    2  A    between atoms: O_2  and  C_3
REMARK    3  A    between atoms: C_5  and  N_6
REMARK    4  A    between atoms: C_12  and  N_13
REMARK    5  A    between atoms: N_13  and  C_14
REMARK    6  A    between atoms: C_18  and  N_19
REMARK    7  A    between atoms: N_19  and  S_20
REMARK    8  A    between atoms: S_20  and  C_21
REMARK    9  A    between atoms: C_27  and  O_28
REMARK   10  A    between atoms: O_28  and  C_29
REMARK   11  A    between atoms: C_30  and  O_31
REMARK   12  A    between atoms: O_31  and  C_32
REMARK                            x       y       z     vdW  Elec       q    Type
REMARK                         _______ _______ _______ _____ _____    ______ ____
ROOT
ATOM      1  N   UNL     1       2.782   7.608  17.916  0.00  0.00    +0.000 N 
ATOM      2  C   UNL     1       2.051   8.447  18.761  0.00  0.00    +0.000 A 
ATOM      3  N   UNL     1       1.695   8.080  20.012  0.00  0.00    +0.000 NA
ATOM      4  N   UNL     1       0.924   8.887  20.788  0.00  0.00    +0.000 NA
ATOM      5  C   UNL     1       0.514  10.049  20.260  0.00  0.00    +0.000 A 
ATOM      6 CL   UNL     1      -0.512  10.983  21.263  0.00  0.00    +0.000 Cl
ATOM      7  C   UNL     1       0.877  10.421  18.968  0.00  0.00    +0.000 A 
ATOM      8  N   UNL     1       1.676   9.618  18.228  0.00  0.00    +0.000 NA
ATOM      9  H   UNL     1       2.969   8.081  17.042  0.00  0.00    +0.000 HD
ENDROOT
BRANCH   1  12
ATOM     10  C   UNL     1       2.503   3.900  17.959  0.00  0.00    +0.000 A 
ATOM     11  C   UNL     1       2.181   5.271  17.890  0.00  0.00    +0.000 A 
ATOM     12  C   UNL     1       3.152   6.264  18.029  0.00  0.00    +0.000 A 
ATOM     13  C   UNL     1       4.449   5.841  18.303  0.00  0.00    +0.000 A 
ATOM     14  C   UNL     1       4.794   4.488  18.456  0.00  0.00    +0.000 A 
ATOM     15  C   UNL     1       3.814   3.492  18.283  0.00  0.00    +0.000 A 
BRANCH  10  17
ATOM     16  C   UNL     1       0.813   2.556  18.945  0.00  0.00    +0.000 C 
ATOM     17  O   UNL     1       1.526   2.953  17.774  0.00  0.00    +0.000 OA
ENDBRANCH  10  17
BRANCH  14  18
ATOM     18  O   UNL     1       6.125   4.359  18.755  0.00  0.00    +0.000 OA
ATOM     19  C   UNL     1       7.103   4.614  17.764  0.00  0.00    +0.000 C 
ENDBRANCH  14  18
BRANCH  15  20
ATOM     20  O   UNL     1       4.232   2.204  18.481  0.00  0.00    +0.000 OA
ATOM     21  C   UNL     1       4.357   1.689  19.795  0.00  0.00    +0.000 C 
ENDBRANCH  15  20
ENDBRANCH   1  12
BRANCH   7  22
ATOM     22  N   UNL     1       0.371  11.618  18.408  0.00  0.00    +0.000 N 
ATOM     23  H   UNL     1      -0.134  11.476  17.539  0.00  0.00    +0.000 HD
BRANCH  22  24
ATOM     24  C   UNL     1       0.692  12.957  18.685  0.00  0.00    +0.000 A 
ATOM     25  C   UNL     1      -0.297  13.937  18.507  0.00  0.00    +0.000 A 
ATOM     26  C   UNL     1      -0.039  15.281  18.783  0.00  0.00    +0.000 A 
ATOM     27  C   UNL     1       1.214  15.666  19.252  0.00  0.00    +0.000 A 
ATOM     28  C   UNL     1       2.199  14.704  19.444  0.00  0.00    +0.000 A 
ATOM     29  C   UNL     1       1.935  13.361  19.186  0.00  0.00    +0.000 A 
BRANCH  28  30
ATOM     30  N   UNL     1       3.484  15.101  19.924  0.00  0.00    +0.000 N 
ATOM     31  H   UNL     1       4.272  14.666  19.445  0.00  0.00    +0.000 HD
BRANCH  30  32
ATOM     32  S   UNL     1       3.748  15.036  21.592  0.00  0.00    +0.000 S 
ATOM     33  C   UNL     1       4.103  16.742  21.952  0.00  0.00    +0.000 C 
ATOM     34  O   UNL     1       2.542  14.638  22.283  0.00  0.00    +0.000 OA
ATOM     35  O   UNL     1       4.978  14.289  21.758  0.00  0.00    +0.000 OA
ENDBRANCH  30  32
ENDBRANCH  28  30
ENDBRANCH  22  24
ENDBRANCH   7  22
TORSDOF 8
ENDMDL
