MODEL 1
REMARK VINA RESULT:      -7.2      0.000      0.000
REMARK  Name = 
REMARK  7 active torsions:
REMARK  status: ('A' for Active; 'I' for Inactive)
REMARK    1  A    between atoms: C_1  and  C_2
REMARK    2  A    between atoms: C_2  and  C_4
REMARK    3  A    between atoms: C_7  and  N_8
REMARK    4  A    between atoms: C_9  and  C_11
REMARK    5  A    between atoms: C_11  and  S_12
REMARK    6  A    between atoms: S_12  and  C_13
REMARK    7  A    between atoms: C_16  and  C_17
REMARK                            x       y       z     vdW  Elec       q    Type
REMARK                         _______ _______ _______ _____ _____    ______ ____
ROOT
ATOM      1  N   UNL     1       3.362   4.955  18.297  0.00  0.00    +0.000 N 
ATOM      2  C   UNL     1       2.152   4.279  18.323  0.00  0.00    +0.000 C 
ATOM      3  O   UNL     1       1.739   3.500  17.465  0.00  0.00    +0.000 OA
ATOM      4  H   UNL     1       3.644   5.443  19.140  0.00  0.00    +0.000 HD
ENDROOT
BRANCH   1   8
ATOM      5  C   UNL     1       6.030   4.896  15.018  0.00  0.00    +0.000 A 
ATOM      6  C   UNL     1       5.505   6.109  15.465  0.00  0.00    +0.000 A 
ATOM      7  C   UNL     1       4.634   6.138  16.555  0.00  0.00    +0.000 A 
ATOM      8  C   UNL     1       4.274   4.964  17.221  0.00  0.00    +0.000 A 
ATOM      9  C   UNL     1       4.839   3.753  16.808  0.00  0.00    +0.000 A 
ATOM     10  C   UNL     1       5.702   3.718  15.703  0.00  0.00    +0.000 A 
BRANCH   5  12
ATOM     11  C   UNL     1       6.551   3.903  12.693  0.00  0.00    +0.000 C 
ATOM     12  C   UNL     1       6.920   4.830  13.823  0.00  0.00    +0.000 C 
ATOM     13  O   UNL     1       7.935   5.523  13.779  0.00  0.00    +0.000 OA
ENDBRANCH   5  12
ENDBRANCH   1   8
BRANCH   2  14
ATOM     14  C   UNL     1       1.329   4.507  19.573  0.00  0.00    +0.000 C 
BRANCH  14  15
ATOM     15  S   UNL     1       2.211   5.517  20.795  0.00  0.00    +0.000 S 
BRANCH  15  16
ATOM     16  C   UNL     1       1.549   7.149  20.537  0.00  0.00    +0.000 A 
ATOM     17  C   UNL     1       0.767   7.848  21.442  0.00  0.00    +0.000 A 
ATOM     18  C   UNL     1       0.394   9.166  21.151  0.00  0.00    +0.000 A 
ATOM     19  C   UNL     1       0.836   9.748  19.973  0.00  0.00    +0.000 A 
ATOM     20  N   UNL     1       1.565   9.035  19.092  0.00  0.00    +0.000 NA
ATOM     21  N   UNL     1       1.925   7.732  19.381  0.00  0.00    +0.000 NA
BRANCH  19  22
ATOM     22  C   UNL     1       0.607  11.146  19.595  0.00  0.00    +0.000 A 
ATOM     23  C   UNL     1      -0.150  11.646  18.548  0.00  0.00    +0.000 A 
ATOM     24  C   UNL     1      -0.084  13.065  18.441  0.00  0.00    +0.000 A 
ATOM     25  C   UNL     1       0.731  13.614  19.404  0.00  0.00    +0.000 A 
ATOM     26  S   UNL     1       1.388  12.426  20.440  0.00  0.00    +0.000 S 
ENDBRANCH  19  22
ENDBRANCH  15  16
ENDBRANCH  14  15
ENDBRANCH   2  14
TORSDOF 6
ENDMDL
MODEL 2
REMARK VINA RESULT:      -7.2      4.748      6.277
REMARK  Name = 
REMARK  7 active torsions:
REMARK  status: ('A' for Active; 'I' for Inactive)
REMARK    1  A    between atoms: C_1  and  C_2
REMARK    2  A    between atoms: C_2  and  C_4
REMARK    3  A    between atoms: C_7  and  N_8
REMARK    4  A    between atoms: C_9  and  C_11
REMARK    5  A    between atoms: C_11  and  S_12
REMARK    6  A    between atoms: S_12  and  C_13
REMARK    7  A    between atoms: C_16  and  C_17
REMARK                            x       y       z     vdW  Elec       q    Type
REMARK                         _______ _______ _______ _____ _____    ______ ____
ROOT
ATOM      1  N   UNL     1       7.503   5.591  15.829  0.00  0.00    +0.000 N 
ATOM      2  C   UNL     1       6.917   6.698  16.423  0.00  0.00    +0.000 C 
ATOM      3  O   UNL     1       5.798   7.145  16.175  0.00  0.00    +0.000 OA
ATOM      4  H   UNL     1       8.364   5.241  16.236  0.00  0.00    +0.000 HD
ENDROOT
BRANCH   1   8
ATOM      5  C   UNL     1       5.793   3.452  12.608  0.00  0.00    +0.000 A 
ATOM      6  C   UNL     1       6.960   4.190  12.410  0.00  0.00    +0.000 A 
ATOM      7  C   UNL     1       7.538   4.888  13.471  0.00  0.00    +0.000 A 
ATOM      8  C   UNL     1       6.969   4.861  14.746  0.00  0.00    +0.000 A 
ATOM      9  C   UNL     1       5.828   4.080  14.961  0.00  0.00    +0.000 A 
ATOM     10  C   UNL     1       5.236   3.390  13.892  0.00  0.00    +0.000 A 
BRANCH   5  12
ATOM     11  C   UNL     1       3.886   3.347  10.872  0.00  0.00    +0.000 C 
ATOM     12  C   UNL     1       5.126   2.740  11.480  0.00  0.00    +0.000 C 
ATOM     13  O   UNL     1       5.588   1.678  11.069  0.00  0.00    +0.000 OA
ENDBRANCH   5  12
ENDBRANCH   1   8
BRANCH   2  14
ATOM     14  C   UNL     1       7.746   7.341  17.514  0.00  0.00    +0.000 C 
BRANCH  14  15
ATOM     15  S   UNL     1       7.913   6.267  18.966  0.00  0.00    +0.000 S 
BRANCH  15  16
ATOM     16  C   UNL     1       6.284   5.575  19.158  0.00  0.00    +0.000 A 
ATOM     17  C   UNL     1       5.122   6.305  19.348  0.00  0.00    +0.000 A 
ATOM     18  C   UNL     1       3.892   5.637  19.387  0.00  0.00    +0.000 A 
ATOM     19  C   UNL     1       3.865   4.262  19.211  0.00  0.00    +0.000 A 
ATOM     20  N   UNL     1       5.013   3.570  19.064  0.00  0.00    +0.000 NA
ATOM     21  N   UNL     1       6.225   4.234  19.033  0.00  0.00    +0.000 NA
BRANCH  19  22
ATOM     22  C   UNL     1       2.644   3.455  19.125  0.00  0.00    +0.000 A 
ATOM     23  C   UNL     1       1.378   3.748  19.607  0.00  0.00    +0.000 A 
ATOM     24  C   UNL     1       0.447   2.689  19.404  0.00  0.00    +0.000 A 
ATOM     25  C   UNL     1       1.027   1.609  18.781  0.00  0.00    +0.000 A 
ATOM     26  S   UNL     1       2.673   1.884  18.424  0.00  0.00    +0.000 S 
ENDBRANCH  19  22
ENDBRANCH  15  16
ENDBRANCH  14  15
ENDBRANCH   2  14
TORSDOF 6
ENDMDL
MODEL 3
REMARK VINA RESULT:      -7.1      3.604      4.550
REMARK  Name = 
REMARK  7 active torsions:
REMARK  status: ('A' for Active; 'I' for Inactive)
REMARK    1  A    between atoms: C_1  and  C_2
REMARK    2  A    between atoms: C_2  and  C_4
REMARK    3  A    between atoms: C_7  and  N_8
REMARK    4  A    between atoms: C_9  and  C_11
REMARK    5  A    between atoms: C_11  and  S_12
REMARK    6  A    between atoms: S_12  and  C_13
REMARK    7  A    between atoms: C_16  and  C_17
REMARK                            x       y       z     vdW  Elec       q    Type
REMARK                         _______ _______ _______ _____ _____    ______ ____
ROOT
ATOM      1  N   UNL     1       2.663   7.201  18.686  0.00  0.00    +0.000 N 
ATOM      2  C   UNL     1       2.046   8.404  18.380  0.00  0.00    +0.000 C 
ATOM      3  O   UNL     1       2.094   8.989  17.299  0.00  0.00    +0.000 OA
ATOM      4  H   UNL     1       2.413   6.755  19.562  0.00  0.00    +0.000 HD
ENDROOT
BRANCH   1   8
ATOM      5  C   UNL     1       5.440   5.157  16.240  0.00  0.00    +0.000 A 
ATOM      6  C   UNL     1       4.394   4.455  16.840  0.00  0.00    +0.000 A 
ATOM      7  C   UNL     1       3.465   5.125  17.638  0.00  0.00    +0.000 A 
ATOM      8  C   UNL     1       3.558   6.502  17.849  0.00  0.00    +0.000 A 
ATOM      9  C   UNL     1       4.575   7.217  17.207  0.00  0.00    +0.000 A 
ATOM     10  C   UNL     1       5.519   6.545  16.417  0.00  0.00    +0.000 A 
BRANCH   5  12
ATOM     11  C   UNL     1       6.063   3.818  14.123  0.00  0.00    +0.000 C 
ATOM     12  C   UNL     1       6.475   4.458  15.425  0.00  0.00    +0.000 C 
ATOM     13  O   UNL     1       7.637   4.409  15.824  0.00  0.00    +0.000 OA
ENDBRANCH   5  12
ENDBRANCH   1   8
BRANCH   2  14
ATOM     14  C   UNL     1       1.195   8.977  19.493  0.00  0.00    +0.000 C 
BRANCH  14  15
ATOM     15  S   UNL     1       1.049  10.782  19.380  0.00  0.00    +0.000 S 
BRANCH  15  16
ATOM     16  C   UNL     1      -0.654  11.032  18.926  0.00  0.00    +0.000 A 
ATOM     17  C   UNL     1      -1.368  10.247  18.035  0.00  0.00    +0.000 A 
ATOM     18  C   UNL     1      -2.732  10.498  17.842  0.00  0.00    +0.000 A 
ATOM     19  C   UNL     1      -3.341  11.511  18.567  0.00  0.00    +0.000 A 
ATOM     20  N   UNL     1      -2.616  12.283  19.401  0.00  0.00    +0.000 NA
ATOM     21  N   UNL     1      -1.269  12.036  19.582  0.00  0.00    +0.000 NA
BRANCH  19  22
ATOM     22  C   UNL     1      -4.776  11.810  18.540  0.00  0.00    +0.000 A 
ATOM     23  C   UNL     1      -5.715  11.456  17.585  0.00  0.00    +0.000 A 
ATOM     24  C   UNL     1      -7.010  11.987  17.855  0.00  0.00    +0.000 A 
ATOM     25  C   UNL     1      -7.025  12.741  19.005  0.00  0.00    +0.000 A 
ATOM     26  S   UNL     1      -5.496  12.785  19.762  0.00  0.00    +0.000 S 
ENDBRANCH  19  22
ENDBRANCH  15  16
ENDBRANCH  14  15
ENDBRANCH   2  14
TORSDOF 6
ENDMDL
MODEL 4
REMARK VINA RESULT:      -7.1      1.030      1.548
REMARK  Name = 
REMARK  7 active torsions:
REMARK  status: ('A' for Active; 'I' for Inactive)
REMARK    1  A    between atoms: C_1  and  C_2
REMARK    2  A    between atoms: C_2  and  C_4
REMARK    3  A    between atoms: C_7  and  N_8
REMARK    4  A    between atoms: C_9  and  C_11
REMARK    5  A    between atoms: C_11  and  S_12
REMARK    6  A    between atoms: S_12  and  C_13
REMARK    7  A    between atoms: C_16  and  C_17
REMARK                            x       y       z     vdW  Elec       q    Type
REMARK                         _______ _______ _______ _____ _____    ______ ____
ROOT
ATOM      1  N   UNL     1       3.361   4.897  18.252  0.00  0.00    +0.000 N 
ATOM      2  C   UNL     1       2.034   4.497  18.252  0.00  0.00    +0.000 C 
ATOM      3  O   UNL     1       1.447   3.937  17.326  0.00  0.00    +0.000 OA
ATOM      4  H   UNL     1       3.757   5.205  19.134  0.00  0.00    +0.000 HD
ENDROOT
BRANCH   1   8
ATOM      5  C   UNL     1       6.048   4.832  14.989  0.00  0.00    +0.000 A 
ATOM      6  C   UNL     1       5.650   3.635  15.586  0.00  0.00    +0.000 A 
ATOM      7  C   UNL     1       4.752   3.647  16.654  0.00  0.00    +0.000 A 
ATOM      8  C   UNL     1       4.234   4.847  17.146  0.00  0.00    +0.000 A 
ATOM      9  C   UNL     1       4.590   6.045  16.517  0.00  0.00    +0.000 A 
ATOM     10  C   UNL     1       5.504   6.037  15.452  0.00  0.00    +0.000 A 
BRANCH   5  12
ATOM     11  C   UNL     1       6.810   3.968  12.680  0.00  0.00    +0.000 C 
ATOM     12  C   UNL     1       7.045   4.851  13.880  0.00  0.00    +0.000 C 
ATOM     13  O   UNL     1       8.035   5.575  13.961  0.00  0.00    +0.000 OA
ENDBRANCH   5  12
ENDBRANCH   1   8
BRANCH   2  14
ATOM     14  C   UNL     1       1.302   4.736  19.555  0.00  0.00    +0.000 C 
BRANCH  14  15
ATOM     15  S   UNL     1       2.260   5.771  20.695  0.00  0.00    +0.000 S 
BRANCH  15  16
ATOM     16  C   UNL     1       1.815   7.429  20.222  0.00  0.00    +0.000 A 
ATOM     17  C   UNL     1       2.008   7.982  18.967  0.00  0.00    +0.000 A 
ATOM     18  C   UNL     1       1.521   9.268  18.703  0.00  0.00    +0.000 A 
ATOM     19  C   UNL     1       0.836   9.948  19.698  0.00  0.00    +0.000 A 
ATOM     20  N   UNL     1       0.694   9.403  20.923  0.00  0.00    +0.000 NA
ATOM     21  N   UNL     1       1.182   8.136  21.180  0.00  0.00    +0.000 NA
BRANCH  19  22
ATOM     22  C   UNL     1       0.187  11.251  19.524  0.00  0.00    +0.000 A 
ATOM     23  C   UNL     1       0.530  12.280  18.662  0.00  0.00    +0.000 A 
ATOM     24  C   UNL     1      -0.289  13.435  18.821  0.00  0.00    +0.000 A 
ATOM     25  C   UNL     1      -1.231  13.264  19.808  0.00  0.00    +0.000 A 
ATOM     26  S   UNL     1      -1.141  11.713  20.517  0.00  0.00    +0.000 S 
ENDBRANCH  19  22
ENDBRANCH  15  16
ENDBRANCH  14  15
ENDBRANCH   2  14
TORSDOF 6
ENDMDL
MODEL 5
REMARK VINA RESULT:      -7.0      3.554      6.978
REMARK  Name = 
REMARK  7 active torsions:
REMARK  status: ('A' for Active; 'I' for Inactive)
REMARK    1  A    between atoms: C_1  and  C_2
REMARK    2  A    between atoms: C_2  and  C_4
REMARK    3  A    between atoms: C_7  and  N_8
REMARK    4  A    between atoms: C_9  and  C_11
REMARK    5  A    between atoms: C_11  and  S_12
REMARK    6  A    between atoms: S_12  and  C_13
REMARK    7  A    between atoms: C_16  and  C_17
REMARK                            x       y       z     vdW  Elec       q    Type
REMARK                         _______ _______ _______ _____ _____    ______ ____
ROOT
ATOM      1  N   UNL     1       2.474   4.663  19.952  0.00  0.00    +0.000 N 
ATOM      2  C   UNL     1       1.571   3.612  19.962  0.00  0.00    +0.000 C 
ATOM      3  O   UNL     1       0.369   3.687  19.709  0.00  0.00    +0.000 OA
ATOM      4  H   UNL     1       3.459   4.436  20.027  0.00  0.00    +0.000 HD
ENDROOT
BRANCH   1   8
ATOM      5  C   UNL     1       1.554   8.767  19.520  0.00  0.00    +0.000 A 
ATOM      6  C   UNL     1       2.118   8.066  18.455  0.00  0.00    +0.000 A 
ATOM      7  C   UNL     1       2.412   6.707  18.584  0.00  0.00    +0.000 A 
ATOM      8  C   UNL     1       2.147   6.024  19.773  0.00  0.00    +0.000 A 
ATOM      9  C   UNL     1       1.534   6.711  20.825  0.00  0.00    +0.000 A 
ATOM     10  C   UNL     1       1.251   8.080  20.704  0.00  0.00    +0.000 A 
BRANCH   5  12
ATOM     11  C   UNL     1       0.486  10.890  20.527  0.00  0.00    +0.000 C 
ATOM     12  C   UNL     1       1.278  10.230  19.426  0.00  0.00    +0.000 C 
ATOM     13  O   UNL     1       1.691  10.868  18.461  0.00  0.00    +0.000 OA
ENDBRANCH   5  12
ENDBRANCH   1   8
BRANCH   2  14
ATOM     14  C   UNL     1       2.182   2.258  20.257  0.00  0.00    +0.000 C 
BRANCH  14  15
ATOM     15  S   UNL     1       3.087   1.594  18.832  0.00  0.00    +0.000 S 
BRANCH  15  16
ATOM     16  C   UNL     1       4.198   2.915  18.396  0.00  0.00    +0.000 A 
ATOM     17  C   UNL     1       4.271   3.523  17.154  0.00  0.00    +0.000 A 
ATOM     18  C   UNL     1       5.125   4.618  16.976  0.00  0.00    +0.000 A 
ATOM     19  C   UNL     1       5.862   5.082  18.054  0.00  0.00    +0.000 A 
ATOM     20  N   UNL     1       5.801   4.449  19.244  0.00  0.00    +0.000 NA
ATOM     21  N   UNL     1       4.961   3.365  19.413  0.00  0.00    +0.000 NA
BRANCH  19  22
ATOM     22  C   UNL     1       6.711   6.277  18.034  0.00  0.00    +0.000 A 
ATOM     23  C   UNL     1       6.642   7.372  17.189  0.00  0.00    +0.000 A 
ATOM     24  C   UNL     1       7.684   8.318  17.417  0.00  0.00    +0.000 A 
ATOM     25  C   UNL     1       8.529   7.915  18.424  0.00  0.00    +0.000 A 
ATOM     26  S   UNL     1       8.053   6.423  19.102  0.00  0.00    +0.000 S 
ENDBRANCH  19  22
ENDBRANCH  15  16
ENDBRANCH  14  15
ENDBRANCH   2  14
TORSDOF 6
ENDMDL
MODEL 6
REMARK VINA RESULT:      -7.0      3.340      7.772
REMARK  Name = 
REMARK  7 active torsions:
REMARK  status: ('A' for Active; 'I' for Inactive)
REMARK    1  A    between atoms: C_1  and  C_2
REMARK    2  A    between atoms: C_2  and  C_4
REMARK    3  A    between atoms: C_7  and  N_8
REMARK    4  A    between atoms: C_9  and  C_11
REMARK    5  A    between atoms: C_11  and  S_12
REMARK    6  A    between atoms: S_12  and  C_13
REMARK    7  A    between atoms: C_16  and  C_17
REMARK                            x       y       z     vdW  Elec       q    Type
REMARK                         _______ _______ _______ _____ _____    ______ ____
ROOT
ATOM      1  N   UNL     1       2.187   6.034  21.057  0.00  0.00    +0.000 N 
ATOM      2  C   UNL     1       1.563   4.810  20.872  0.00  0.00    +0.000 C 
ATOM      3  O   UNL     1       0.603   4.592  20.133  0.00  0.00    +0.000 OA
ATOM      4  H   UNL     1       3.060   6.040  21.574  0.00  0.00    +0.000 HD
ENDROOT
BRANCH   1   8
ATOM      5  C   UNL     1       0.844   9.670  19.372  0.00  0.00    +0.000 A 
ATOM      6  C   UNL     1       0.468   9.326  20.670  0.00  0.00    +0.000 A 
ATOM      7  C   UNL     1       0.919   8.133  21.239  0.00  0.00    +0.000 A 
ATOM      8  C   UNL     1       1.752   7.266  20.528  0.00  0.00    +0.000 A 
ATOM      9  C   UNL     1       2.172   7.634  19.246  0.00  0.00    +0.000 A 
ATOM     10  C   UNL     1       1.708   8.824  18.666  0.00  0.00    +0.000 A 
BRANCH   5  12
ATOM     11  C   UNL     1      -1.097  10.949  18.248  0.00  0.00    +0.000 C 
ATOM     12  C   UNL     1       0.335  10.913  18.722  0.00  0.00    +0.000 C 
ATOM     13  O   UNL     1       1.082  11.878  18.580  0.00  0.00    +0.000 OA
ENDBRANCH   5  12
ENDBRANCH   1   8
BRANCH   2  14
ATOM     14  C   UNL     1       2.196   3.658  21.621  0.00  0.00    +0.000 C 
BRANCH  14  15
ATOM     15  S   UNL     1       2.591   2.267  20.525  0.00  0.00    +0.000 S 
BRANCH  15  16
ATOM     16  C   UNL     1       3.556   3.019  19.233  0.00  0.00    +0.000 A 
ATOM     17  C   UNL     1       4.728   3.733  19.422  0.00  0.00    +0.000 A 
ATOM     18  C   UNL     1       5.440   4.189  18.306  0.00  0.00    +0.000 A 
ATOM     19  C   UNL     1       4.967   3.895  17.036  0.00  0.00    +0.000 A 
ATOM     20  N   UNL     1       3.804   3.229  16.880  0.00  0.00    +0.000 NA
ATOM     21  N   UNL     1       3.102   2.787  17.984  0.00  0.00    +0.000 NA
BRANCH  19  22
ATOM     22  C   UNL     1       5.664   4.219  15.788  0.00  0.00    +0.000 A 
ATOM     23  C   UNL     1       5.361   3.813  14.498  0.00  0.00    +0.000 A 
ATOM     24  C   UNL     1       6.309   4.267  13.536  0.00  0.00    +0.000 A 
ATOM     25  C   UNL     1       7.319   4.998  14.116  0.00  0.00    +0.000 A 
ATOM     26  S   UNL     1       7.108   5.156  15.803  0.00  0.00    +0.000 S 
ENDBRANCH  19  22
ENDBRANCH  15  16
ENDBRANCH  14  15
ENDBRANCH   2  14
TORSDOF 6
ENDMDL
MODEL 7
REMARK VINA RESULT:      -6.9      1.243      1.473
REMARK  Name = 
REMARK  7 active torsions:
REMARK  status: ('A' for Active; 'I' for Inactive)
REMARK    1  A    between atoms: C_1  and  C_2
REMARK    2  A    between atoms: C_2  and  C_4
REMARK    3  A    between atoms: C_7  and  N_8
REMARK    4  A    between atoms: C_9  and  C_11
REMARK    5  A    between atoms: C_11  and  S_12
REMARK    6  A    between atoms: S_12  and  C_13
REMARK    7  A    between atoms: C_16  and  C_17
REMARK                            x       y       z     vdW  Elec       q    Type
REMARK                         _______ _______ _______ _____ _____    ______ ____
ROOT
ATOM      1  N   UNL     1       3.693   4.795  17.872  0.00  0.00    +0.000 N 
ATOM      2  C   UNL     1       2.404   4.285  17.822  0.00  0.00    +0.000 C 
ATOM      3  O   UNL     1       1.894   3.698  16.868  0.00  0.00    +0.000 OA
ATOM      4  H   UNL     1       4.035   5.116  18.771  0.00  0.00    +0.000 HD
ENDROOT
BRANCH   1   8
ATOM      5  C   UNL     1       6.341   4.855  14.577  0.00  0.00    +0.000 A 
ATOM      6  C   UNL     1       5.884   6.055  15.123  0.00  0.00    +0.000 A 
ATOM      7  C   UNL     1       5.021   6.044  16.220  0.00  0.00    +0.000 A 
ATOM      8  C   UNL     1       4.600   4.842  16.793  0.00  0.00    +0.000 A 
ATOM      9  C   UNL     1       5.097   3.639  16.280  0.00  0.00    +0.000 A 
ATOM     10  C   UNL     1       5.952   3.646  15.169  0.00  0.00    +0.000 A 
BRANCH   5  12
ATOM     11  C   UNL     1       6.987   3.787  12.318  0.00  0.00    +0.000 C 
ATOM     12  C   UNL     1       7.222   4.838  13.374  0.00  0.00    +0.000 C 
ATOM     13  O   UNL     1       8.121   5.669  13.263  0.00  0.00    +0.000 OA
ENDBRANCH   5  12
ENDBRANCH   1   8
BRANCH   2  14
ATOM     14  C   UNL     1       1.616   4.435  19.105  0.00  0.00    +0.000 C 
BRANCH  14  15
ATOM     15  S   UNL     1       2.522   5.389  20.354  0.00  0.00    +0.000 S 
BRANCH  15  16
ATOM     16  C   UNL     1       1.981   7.061  20.071  0.00  0.00    +0.000 A 
ATOM     17  C   UNL     1       2.141   7.765  18.889  0.00  0.00    +0.000 A 
ATOM     18  C   UNL     1       1.579   9.042  18.770  0.00  0.00    +0.000 A 
ATOM     19  C   UNL     1       0.855   9.563  19.832  0.00  0.00    +0.000 A 
ATOM     20  N   UNL     1       0.745   8.872  20.985  0.00  0.00    +0.000 NA
ATOM     21  N   UNL     1       1.306   7.615  21.099  0.00  0.00    +0.000 NA
BRANCH  19  22
ATOM     22  C   UNL     1       0.130  10.836  19.804  0.00  0.00    +0.000 A 
ATOM     23  C   UNL     1       0.227  11.905  20.680  0.00  0.00    +0.000 A 
ATOM     24  C   UNL     1      -0.690  12.954  20.381  0.00  0.00    +0.000 A 
ATOM     25  C   UNL     1      -1.472  12.656  19.290  0.00  0.00    +0.000 A 
ATOM     26  S   UNL     1      -1.083  11.134  18.620  0.00  0.00    +0.000 S 
ENDBRANCH  19  22
ENDBRANCH  15  16
ENDBRANCH  14  15
ENDBRANCH   2  14
TORSDOF 6
ENDMDL
MODEL 8
REMARK VINA RESULT:      -6.8      1.136      1.382
REMARK  Name = 
REMARK  7 active torsions:
REMARK  status: ('A' for Active; 'I' for Inactive)
REMARK    1  A    between atoms: C_1  and  C_2
REMARK    2  A    between atoms: C_2  and  C_4
REMARK    3  A    between atoms: C_7  and  N_8
REMARK    4  A    between atoms: C_9  and  C_11
REMARK    5  A    between atoms: C_11  and  S_12
REMARK    6  A    between atoms: S_12  and  C_13
REMARK    7  A    between atoms: C_16  and  C_17
REMARK                            x       y       z     vdW  Elec       q    Type
REMARK                         _______ _______ _______ _____ _____    ______ ____
ROOT
ATOM      1  N   UNL     1       3.762   4.770  17.951  0.00  0.00    +0.000 N 
ATOM      2  C   UNL     1       2.461   4.292  18.001  0.00  0.00    +0.000 C 
ATOM      3  O   UNL     1       1.874   3.696  17.099  0.00  0.00    +0.000 OA
ATOM      4  H   UNL     1       4.172   5.104  18.817  0.00  0.00    +0.000 HD
ENDROOT
BRANCH   1   8
ATOM      5  C   UNL     1       6.189   4.673  14.491  0.00  0.00    +0.000 A 
ATOM      6  C   UNL     1       5.678   5.888  14.948  0.00  0.00    +0.000 A 
ATOM      7  C   UNL     1       4.887   5.930  16.097  0.00  0.00    +0.000 A 
ATOM      8  C   UNL     1       4.594   4.767  16.813  0.00  0.00    +0.000 A 
ATOM      9  C   UNL     1       5.148   3.555  16.388  0.00  0.00    +0.000 A 
ATOM     10  C   UNL     1       5.930   3.507  15.224  0.00  0.00    +0.000 A 
BRANCH   5  12
ATOM     11  C   UNL     1       8.144   5.549  13.052  0.00  0.00    +0.000 C 
ATOM     12  C   UNL     1       6.993   4.592  13.238  0.00  0.00    +0.000 C 
ATOM     13  O   UNL     1       6.707   3.759  12.381  0.00  0.00    +0.000 OA
ENDBRANCH   5  12
ENDBRANCH   1   8
BRANCH   2  14
ATOM     14  C   UNL     1       1.766   4.493  19.330  0.00  0.00    +0.000 C 
BRANCH  14  15
ATOM     15  S   UNL     1       2.677   5.630  20.411  0.00  0.00    +0.000 S 
BRANCH  15  16
ATOM     16  C   UNL     1       2.122   7.237  19.884  0.00  0.00    +0.000 A 
ATOM     17  C   UNL     1       2.296   7.767  18.616  0.00  0.00    +0.000 A 
ATOM     18  C   UNL     1       1.722   9.006  18.307  0.00  0.00    +0.000 A 
ATOM     19  C   UNL     1       0.974   9.663  19.271  0.00  0.00    +0.000 A 
ATOM     20  N   UNL     1       0.850   9.143  20.509  0.00  0.00    +0.000 NA
ATOM     21  N   UNL     1       1.423   7.923  20.811  0.00  0.00    +0.000 NA
BRANCH  19  22
ATOM     22  C   UNL     1       0.235  10.910  19.050  0.00  0.00    +0.000 A 
ATOM     23  C   UNL     1      -0.866  11.130  18.238  0.00  0.00    +0.000 A 
ATOM     24  C   UNL     1      -1.276  12.495  18.214  0.00  0.00    +0.000 A 
ATOM     25  C   UNL     1      -0.471  13.285  19.001  0.00  0.00    +0.000 A 
ATOM     26  S   UNL     1       0.751  12.381  19.778  0.00  0.00    +0.000 S 
ENDBRANCH  19  22
ENDBRANCH  15  16
ENDBRANCH  14  15
ENDBRANCH   2  14
TORSDOF 6
ENDMDL
MODEL 9
REMARK VINA RESULT:      -6.7      6.264      8.868
REMARK  Name = 
REMARK  7 active torsions:
REMARK  status: ('A' for Active; 'I' for Inactive)
REMARK    1  A    between atoms: C_1  and  C_2
REMARK    2  A    between atoms: C_2  and  C_4
REMARK    3  A    between atoms: C_7  and  N_8
REMARK    4  A    between atoms: C_9  and  C_11
REMARK    5  A    between atoms: C_11  and  S_12
REMARK    6  A    between atoms: S_12  and  C_13
REMARK    7  A    between atoms: C_16  and  C_17
REMARK                            x       y       z     vdW  Elec       q    Type
REMARK                         _______ _______ _______ _____ _____    ______ ____
ROOT
ATOM      1  N   UNL     1       9.343   9.410  19.207  0.00  0.00    +0.000 N 
ATOM      2  C   UNL     1       8.346   8.943  18.365  0.00  0.00    +0.000 C 
ATOM      3  O   UNL     1       7.652   9.628  17.614  0.00  0.00    +0.000 OA
ATOM      4  H   UNL     1       9.939   8.722  19.654  0.00  0.00    +0.000 HD
ENDROOT
BRANCH   1   8
ATOM      5  C   UNL     1      10.179  13.507  19.831  0.00  0.00    +0.000 A 
ATOM      6  C   UNL     1       9.894  12.682  20.919  0.00  0.00    +0.000 A 
ATOM      7  C   UNL     1       9.630  11.326  20.723  0.00  0.00    +0.000 A 
ATOM      8  C   UNL     1       9.649  10.766  19.444  0.00  0.00    +0.000 A 
ATOM      9  C   UNL     1       9.985  11.579  18.356  0.00  0.00    +0.000 A 
ATOM     10  C   UNL     1      10.235  12.946  18.548  0.00  0.00    +0.000 A 
BRANCH   5  12
ATOM     11  C   UNL     1       9.958  15.628  21.286  0.00  0.00    +0.000 C 
ATOM     12  C   UNL     1      10.413  14.969  20.007  0.00  0.00    +0.000 C 
ATOM     13  O   UNL     1      10.964  15.611  19.116  0.00  0.00    +0.000 OA
ENDBRANCH   5  12
ENDBRANCH   1   8
BRANCH   2  14
ATOM     14  C   UNL     1       8.178   7.439  18.359  0.00  0.00    +0.000 C 
BRANCH  14  15
ATOM     15  S   UNL     1       7.161   6.871  16.968  0.00  0.00    +0.000 S 
BRANCH  15  16
ATOM     16  C   UNL     1       5.694   6.245  17.755  0.00  0.00    +0.000 A 
ATOM     17  C   UNL     1       4.419   6.766  17.604  0.00  0.00    +0.000 A 
ATOM     18  C   UNL     1       3.336   6.115  18.206  0.00  0.00    +0.000 A 
ATOM     19  C   UNL     1       3.562   4.949  18.922  0.00  0.00    +0.000 A 
ATOM     20  N   UNL     1       4.817   4.482  19.085  0.00  0.00    +0.000 NA
ATOM     21  N   UNL     1       5.883   5.133  18.494  0.00  0.00    +0.000 NA
BRANCH  19  22
ATOM     22  C   UNL     1       2.512   4.114  19.512  0.00  0.00    +0.000 A 
ATOM     23  C   UNL     1       2.231   3.898  20.852  0.00  0.00    +0.000 A 
ATOM     24  C   UNL     1       1.176   2.961  21.055  0.00  0.00    +0.000 A 
ATOM     25  C   UNL     1       0.685   2.477  19.865  0.00  0.00    +0.000 A 
ATOM     26  S   UNL     1       1.475   3.167  18.518  0.00  0.00    +0.000 S 
ENDBRANCH  19  22
ENDBRANCH  15  16
ENDBRANCH  14  15
ENDBRANCH   2  14
TORSDOF 6
ENDMDL
