MODEL 1
REMARK VINA RESULT:      -7.4      0.000      0.000
REMARK  Name = 
REMARK  7 active torsions:
REMARK  status: ('A' for Active; 'I' for Inactive)
REMARK    1  A    between atoms: C_1  and  C_2
REMARK    2  A    between atoms: C_2  and  C_3
REMARK    3  A    between atoms: C_6  and  C_7
REMARK    4  A    between atoms: N_8  and  N_9
REMARK    5  A    between atoms: C_14  and  C_15
REMARK    6  A    between atoms: C_15  and  C_16
REMARK    7  A    between atoms: C_18  and  C_19
REMARK                            x       y       z     vdW  Elec       q    Type
REMARK                         _______ _______ _______ _____ _____    ______ ____
ROOT
ATOM      1  C   UNL     1       7.180   7.311  17.747  0.00  0.00    +0.000 A 
ATOM      2  N   UNL     1       5.912   7.520  17.519  0.00  0.00    +0.000 NA
ATOM      3  N   UNL     1       5.260   6.493  18.123  0.00  0.00    +0.000 N 
ATOM      4  C   UNL     1       3.935   6.206  18.247  0.00  0.00    +0.000 A 
ATOM      5  C   UNL     1       3.930   4.989  18.938  0.00  0.00    +0.000 A 
ATOM      6  N   UNL     1       5.219   4.605  19.302  0.00  0.00    +0.000 NA
ATOM      7  C   UNL     1       5.959   5.542  18.787  0.00  0.00    +0.000 A 
ATOM      8  S   UNL     1       7.633   5.882  18.709  0.00  0.00    +0.000 S 
ENDROOT
BRANCH   5   9
ATOM      9  C   UNL     1       2.769   4.161  19.241  0.00  0.00    +0.000 A 
ATOM     10  C   UNL     1       2.208   4.134  20.525  0.00  0.00    +0.000 A 
ATOM     11  C   UNL     1       1.120   3.312  20.815  0.00  0.00    +0.000 A 
ATOM     12  C   UNL     1       0.550   2.535  19.808  0.00  0.00    +0.000 A 
ATOM     13  C   UNL     1       1.069   2.588  18.515  0.00  0.00    +0.000 A 
ATOM     14  C   UNL     1       2.175   3.397  18.232  0.00  0.00    +0.000 A 
ENDBRANCH   5   9
BRANCH   1  16
ATOM     15  C   UNL     1       8.415   9.406  18.212  0.00  0.00    +0.000 C 
ATOM     16  C   UNL     1       8.262   8.225  17.269  0.00  0.00    +0.000 C 
ENDBRANCH   1  16
BRANCH   4  17
ATOM     17  C   UNL     1       2.900   7.064  17.761  0.00  0.00    +0.000 C 
ATOM     18  N   UNL     1       2.367   7.959  18.526  0.00  0.00    +0.000 NA
BRANCH  18  19
ATOM     19  N   UNL     1       1.398   8.694  17.856  0.00  0.00    +0.000 NA
ATOM     20  C   UNL     1       0.966   9.716  18.514  0.00  0.00    +0.000 C 
ATOM     21  N   UNL     1       0.038  10.524  17.955  0.00  0.00    +0.000 N 
ATOM     22  C   UNL     1      -0.317  11.650  18.633  0.00  0.00    +0.000 C 
ATOM     23  O   UNL     1      -0.932  12.575  18.121  0.00  0.00    +0.000 OA
ATOM     24  C   UNL     1       0.118  11.587  20.084  0.00  0.00    +0.000 C 
ATOM     25  S   UNL     1       1.428  10.305  20.088  0.00  0.00    +0.000 S 
ATOM     26  H   UNL     1      -0.216  10.402  16.988  0.00  0.00    +0.000 HD
BRANCH  24  27
ATOM     27  C   UNL     1      -1.020  11.131  20.998  0.00  0.00    +0.000 C 
ATOM     28  C   UNL     1      -0.529  10.359  22.217  0.00  0.00    +0.000 C 
ENDBRANCH  24  27
ENDBRANCH  18  19
ENDBRANCH   4  17
TORSDOF 5
ENDMDL
MODEL 2
REMARK VINA RESULT:      -7.2      4.344      7.166
REMARK  Name = 
REMARK  7 active torsions:
REMARK  status: ('A' for Active; 'I' for Inactive)
REMARK    1  A    between atoms: C_1  and  C_2
REMARK    2  A    between atoms: C_2  and  C_3
REMARK    3  A    between atoms: C_6  and  C_7
REMARK    4  A    between atoms: N_8  and  N_9
REMARK    5  A    between atoms: C_14  and  C_15
REMARK    6  A    between atoms: C_15  and  C_16
REMARK    7  A    between atoms: C_18  and  C_19
REMARK                            x       y       z     vdW  Elec       q    Type
REMARK                         _______ _______ _______ _____ _____    ______ ____
ROOT
ATOM      1  C   UNL     1       5.409   3.440  12.440  0.00  0.00    +0.000 A 
ATOM      2  N   UNL     1       4.806   3.700  13.568  0.00  0.00    +0.000 NA
ATOM      3  N   UNL     1       5.705   4.401  14.307  0.00  0.00    +0.000 N 
ATOM      4  C   UNL     1       5.622   4.965  15.543  0.00  0.00    +0.000 A 
ATOM      5  C   UNL     1       6.900   5.498  15.744  0.00  0.00    +0.000 A 
ATOM      6  N   UNL     1       7.701   5.340  14.613  0.00  0.00    +0.000 NA
ATOM      7  C   UNL     1       6.929   4.681  13.800  0.00  0.00    +0.000 A 
ATOM      8  S   UNL     1       7.071   4.042  12.220  0.00  0.00    +0.000 S 
ENDROOT
BRANCH   5   9
ATOM      9  C   UNL     1       7.407   6.120  16.960  0.00  0.00    +0.000 A 
ATOM     10  C   UNL     1       7.636   7.500  17.034  0.00  0.00    +0.000 A 
ATOM     11  C   UNL     1       8.155   8.081  18.190  0.00  0.00    +0.000 A 
ATOM     12  C   UNL     1       8.411   7.290  19.307  0.00  0.00    +0.000 A 
ATOM     13  C   UNL     1       8.144   5.922  19.265  0.00  0.00    +0.000 A 
ATOM     14  C   UNL     1       7.645   5.338  18.096  0.00  0.00    +0.000 A 
ENDBRANCH   5   9
BRANCH   1  16
ATOM     15  C   UNL     1       3.629   3.504  10.721  0.00  0.00    +0.000 C 
ATOM     16  C   UNL     1       4.764   2.692  11.318  0.00  0.00    +0.000 C 
ENDBRANCH   1  16
BRANCH   4  17
ATOM     17  C   UNL     1       4.425   4.961  16.325  0.00  0.00    +0.000 C 
ATOM     18  N   UNL     1       4.099   5.986  17.042  0.00  0.00    +0.000 NA
BRANCH  18  19
ATOM     19  N   UNL     1       2.897   5.784  17.707  0.00  0.00    +0.000 NA
ATOM     20  C   UNL     1       2.944   4.867  18.612  0.00  0.00    +0.000 C 
ATOM     21  N   UNL     1       1.842   4.596  19.345  0.00  0.00    +0.000 N 
ATOM     22  C   UNL     1       1.957   3.698  20.361  0.00  0.00    +0.000 C 
ATOM     23  O   UNL     1       1.119   3.571  21.243  0.00  0.00    +0.000 OA
ATOM     24  C   UNL     1       3.222   2.872  20.233  0.00  0.00    +0.000 C 
ATOM     25  S   UNL     1       4.282   3.874  19.123  0.00  0.00    +0.000 S 
ATOM     26  H   UNL     1       1.032   5.191  19.271  0.00  0.00    +0.000 HD
BRANCH  24  27
ATOM     27  C   UNL     1       2.954   1.520  19.570  0.00  0.00    +0.000 C 
ATOM     28  C   UNL     1       3.607   1.391  18.199  0.00  0.00    +0.000 C 
ENDBRANCH  24  27
ENDBRANCH  18  19
ENDBRANCH   4  17
TORSDOF 5
ENDMDL
MODEL 3
REMARK VINA RESULT:      -7.1      2.835      5.064
REMARK  Name = 
REMARK  7 active torsions:
REMARK  status: ('A' for Active; 'I' for Inactive)
REMARK    1  A    between atoms: C_1  and  C_2
REMARK    2  A    between atoms: C_2  and  C_3
REMARK    3  A    between atoms: C_6  and  C_7
REMARK    4  A    between atoms: N_8  and  N_9
REMARK    5  A    between atoms: C_14  and  C_15
REMARK    6  A    between atoms: C_15  and  C_16
REMARK    7  A    between atoms: C_18  and  C_19
REMARK                            x       y       z     vdW  Elec       q    Type
REMARK                         _______ _______ _______ _____ _____    ______ ____
ROOT
ATOM      1  C   UNL     1       2.883   3.937  20.254  0.00  0.00    +0.000 A 
ATOM      2  N   UNL     1       3.102   5.004  19.535  0.00  0.00    +0.000 NA
ATOM      3  N   UNL     1       3.783   4.572  18.442  0.00  0.00    +0.000 N 
ATOM      4  C   UNL     1       4.243   5.227  17.341  0.00  0.00    +0.000 A 
ATOM      5  C   UNL     1       4.896   4.225  16.616  0.00  0.00    +0.000 A 
ATOM      6  N   UNL     1       4.748   2.978  17.223  0.00  0.00    +0.000 NA
ATOM      7  C   UNL     1       4.077   3.258  18.301  0.00  0.00    +0.000 A 
ATOM      8  S   UNL     1       3.473   2.374  19.634  0.00  0.00    +0.000 S 
ENDROOT
BRANCH   5   9
ATOM      9  C   UNL     1       5.677   4.396  15.397  0.00  0.00    +0.000 A 
ATOM     10  C   UNL     1       5.268   3.827  14.183  0.00  0.00    +0.000 A 
ATOM     11  C   UNL     1       6.040   3.965  13.031  0.00  0.00    +0.000 A 
ATOM     12  C   UNL     1       7.214   4.714  13.068  0.00  0.00    +0.000 A 
ATOM     13  C   UNL     1       7.609   5.325  14.258  0.00  0.00    +0.000 A 
ATOM     14  C   UNL     1       6.845   5.166  15.419  0.00  0.00    +0.000 A 
ENDBRANCH   5   9
BRANCH   1  16
ATOM     15  C   UNL     1       1.341   2.677  21.725  0.00  0.00    +0.000 C 
ATOM     16  C   UNL     1       2.138   3.957  21.550  0.00  0.00    +0.000 C 
ENDBRANCH   1  16
BRANCH   4  17
ATOM     17  C   UNL     1       4.007   6.617  17.103  0.00  0.00    +0.000 C 
ATOM     18  N   UNL     1       2.964   7.205  17.592  0.00  0.00    +0.000 NA
BRANCH  18  19
ATOM     19  N   UNL     1       2.934   8.553  17.259  0.00  0.00    +0.000 NA
ATOM     20  C   UNL     1       2.201   9.271  18.040  0.00  0.00    +0.000 C 
ATOM     21  N   UNL     1       2.112  10.603  17.833  0.00  0.00    +0.000 N 
ATOM     22  C   UNL     1       1.417  11.344  18.738  0.00  0.00    +0.000 C 
ATOM     23  O   UNL     1       1.488  12.563  18.804  0.00  0.00    +0.000 OA
ATOM     24  C   UNL     1       0.537  10.472  19.613  0.00  0.00    +0.000 C 
ATOM     25  S   UNL     1       1.275   8.803  19.440  0.00  0.00    +0.000 S 
ATOM     26  H   UNL     1       2.711  11.046  17.155  0.00  0.00    +0.000 HD
BRANCH  24  27
ATOM     27  C   UNL     1      -0.904  10.428  19.105  0.00  0.00    +0.000 C 
ATOM     28  C   UNL     1      -1.714  11.654  19.510  0.00  0.00    +0.000 C 
ENDBRANCH  24  27
ENDBRANCH  18  19
ENDBRANCH   4  17
TORSDOF 5
ENDMDL
MODEL 4
REMARK VINA RESULT:      -7.0      3.678      7.870
REMARK  Name = 
REMARK  7 active torsions:
REMARK  status: ('A' for Active; 'I' for Inactive)
REMARK    1  A    between atoms: C_1  and  C_2
REMARK    2  A    between atoms: C_2  and  C_3
REMARK    3  A    between atoms: C_6  and  C_7
REMARK    4  A    between atoms: N_8  and  N_9
REMARK    5  A    between atoms: C_14  and  C_15
REMARK    6  A    between atoms: C_15  and  C_16
REMARK    7  A    between atoms: C_18  and  C_19
REMARK                            x       y       z     vdW  Elec       q    Type
REMARK                         _______ _______ _______ _____ _____    ______ ____
ROOT
ATOM      1  C   UNL     1       2.746  14.236  20.599  0.00  0.00    +0.000 A 
ATOM      2  N   UNL     1       2.322  13.025  20.841  0.00  0.00    +0.000 NA
ATOM      3  N   UNL     1       1.229  12.859  20.050  0.00  0.00    +0.000 N 
ATOM      4  C   UNL     1       0.404  11.795  19.854  0.00  0.00    +0.000 A 
ATOM      5  C   UNL     1      -0.550  12.284  18.955  0.00  0.00    +0.000 A 
ATOM      6  N   UNL     1      -0.247  13.583  18.549  0.00  0.00    +0.000 NA
ATOM      7  C   UNL     1       0.821  13.862  19.237  0.00  0.00    +0.000 A 
ATOM      8  S   UNL     1       1.858  15.211  19.402  0.00  0.00    +0.000 S 
ENDROOT
BRANCH   5   9
ATOM      9  C   UNL     1      -1.746  11.595  18.489  0.00  0.00    +0.000 A 
ATOM     10  C   UNL     1      -3.027  12.010  18.879  0.00  0.00    +0.000 A 
ATOM     11  C   UNL     1      -4.163  11.323  18.457  0.00  0.00    +0.000 A 
ATOM     12  C   UNL     1      -4.035  10.233  17.599  0.00  0.00    +0.000 A 
ATOM     13  C   UNL     1      -2.771   9.837  17.165  0.00  0.00    +0.000 A 
ATOM     14  C   UNL     1      -1.630  10.514  17.608  0.00  0.00    +0.000 A 
ENDBRANCH   5   9
BRANCH   1  16
ATOM     15  C   UNL     1       4.931  15.330  20.203  0.00  0.00    +0.000 C 
ATOM     16  C   UNL     1       3.954  14.829  21.252  0.00  0.00    +0.000 C 
ENDBRANCH   1  16
BRANCH   4  17
ATOM     17  C   UNL     1       0.610  10.521  20.471  0.00  0.00    +0.000 C 
ATOM     18  N   UNL     1       1.154   9.549  19.816  0.00  0.00    +0.000 NA
BRANCH  18  19
ATOM     19  N   UNL     1       1.279   8.410  20.601  0.00  0.00    +0.000 NA
ATOM     20  C   UNL     1       1.871   7.428  20.011  0.00  0.00    +0.000 C 
ATOM     21  N   UNL     1       2.074   6.273  20.682  0.00  0.00    +0.000 N 
ATOM     22  C   UNL     1       2.795   5.296  20.066  0.00  0.00    +0.000 C 
ATOM     23  O   UNL     1       3.263   4.333  20.657  0.00  0.00    +0.000 OA
ATOM     24  C   UNL     1       2.909   5.545  18.574  0.00  0.00    +0.000 C 
ATOM     25  S   UNL     1       2.542   7.333  18.405  0.00  0.00    +0.000 S 
ATOM     26  H   UNL     1       1.880   6.225  21.669  0.00  0.00    +0.000 HD
BRANCH  24  27
ATOM     27  C   UNL     1       1.867   4.752  17.785  0.00  0.00    +0.000 C 
ATOM     28  C   UNL     1       2.358   3.367  17.379  0.00  0.00    +0.000 C 
ENDBRANCH  24  27
ENDBRANCH  18  19
ENDBRANCH   4  17
TORSDOF 5
ENDMDL
MODEL 5
REMARK VINA RESULT:      -6.9      4.492      6.495
REMARK  Name = 
REMARK  7 active torsions:
REMARK  status: ('A' for Active; 'I' for Inactive)
REMARK    1  A    between atoms: C_1  and  C_2
REMARK    2  A    between atoms: C_2  and  C_3
REMARK    3  A    between atoms: C_6  and  C_7
REMARK    4  A    between atoms: N_8  and  N_9
REMARK    5  A    between atoms: C_14  and  C_15
REMARK    6  A    between atoms: C_15  and  C_16
REMARK    7  A    between atoms: C_18  and  C_19
REMARK                            x       y       z     vdW  Elec       q    Type
REMARK                         _______ _______ _______ _____ _____    ______ ____
ROOT
ATOM      1  C   UNL     1       7.251   5.035  14.093  0.00  0.00    +0.000 A 
ATOM      2  N   UNL     1       7.452   5.545  15.278  0.00  0.00    +0.000 NA
ATOM      3  N   UNL     1       6.393   5.146  16.029  0.00  0.00    +0.000 N 
ATOM      4  C   UNL     1       6.084   5.343  17.339  0.00  0.00    +0.000 A 
ATOM      5  C   UNL     1       4.841   4.716  17.479  0.00  0.00    +0.000 A 
ATOM      6  N   UNL     1       4.459   4.076  16.300  0.00  0.00    +0.000 NA
ATOM      7  C   UNL     1       5.426   4.372  15.483  0.00  0.00    +0.000 A 
ATOM      8  S   UNL     1       5.791   4.045  13.844  0.00  0.00    +0.000 S 
ENDROOT
BRANCH   5   9
ATOM      9  C   UNL     1       3.987   4.721  18.659  0.00  0.00    +0.000 A 
ATOM     10  C   UNL     1       3.807   3.567  19.435  0.00  0.00    +0.000 A 
ATOM     11  C   UNL     1       2.959   3.572  20.541  0.00  0.00    +0.000 A 
ATOM     12  C   UNL     1       2.312   4.748  20.914  0.00  0.00    +0.000 A 
ATOM     13  C   UNL     1       2.518   5.915  20.180  0.00  0.00    +0.000 A 
ATOM     14  C   UNL     1       3.351   5.903  19.056  0.00  0.00    +0.000 A 
ENDBRANCH   5   9
BRANCH   1  16
ATOM     15  C   UNL     1       7.495   4.939  11.631  0.00  0.00    +0.000 C 
ATOM     16  C   UNL     1       8.197   5.215  12.949  0.00  0.00    +0.000 C 
ENDBRANCH   1  16
BRANCH   4  17
ATOM     17  C   UNL     1       6.947   6.027  18.252  0.00  0.00    +0.000 C 
ATOM     18  N   UNL     1       7.630   7.057  17.873  0.00  0.00    +0.000 NA
BRANCH  18  19
ATOM     19  N   UNL     1       8.387   7.580  18.913  0.00  0.00    +0.000 NA
ATOM     20  C   UNL     1       8.617   8.845  18.810  0.00  0.00    +0.000 C 
ATOM     21  N   UNL     1       9.323   9.474  19.775  0.00  0.00    +0.000 N 
ATOM     22  C   UNL     1       9.456  10.826  19.688  0.00  0.00    +0.000 C 
ATOM     23  O   UNL     1       9.834  11.524  20.619  0.00  0.00    +0.000 OA
ATOM     24  C   UNL     1       9.110  11.332  18.301  0.00  0.00    +0.000 C 
ATOM     25  S   UNL     1       8.109   9.974  17.584  0.00  0.00    +0.000 S 
ATOM     26  H   UNL     1       9.555   8.987  20.626  0.00  0.00    +0.000 HD
BRANCH  24  27
ATOM     27  C   UNL     1      10.359  11.530  17.441  0.00  0.00    +0.000 C 
ATOM     28  C   UNL     1      10.802  12.986  17.366  0.00  0.00    +0.000 C 
ENDBRANCH  24  27
ENDBRANCH  18  19
ENDBRANCH   4  17
TORSDOF 5
ENDMDL
MODEL 6
REMARK VINA RESULT:      -6.9      3.661      7.921
REMARK  Name = 
REMARK  7 active torsions:
REMARK  status: ('A' for Active; 'I' for Inactive)
REMARK    1  A    between atoms: C_1  and  C_2
REMARK    2  A    between atoms: C_2  and  C_3
REMARK    3  A    between atoms: C_6  and  C_7
REMARK    4  A    between atoms: N_8  and  N_9
REMARK    5  A    between atoms: C_14  and  C_15
REMARK    6  A    between atoms: C_15  and  C_16
REMARK    7  A    between atoms: C_18  and  C_19
REMARK                            x       y       z     vdW  Elec       q    Type
REMARK                         _______ _______ _______ _____ _____    ______ ____
ROOT
ATOM      1  C   UNL     1       2.925  14.259  20.464  0.00  0.00    +0.000 A 
ATOM      2  N   UNL     1       2.500  13.053  20.727  0.00  0.00    +0.000 NA
ATOM      3  N   UNL     1       1.391  12.884  19.960  0.00  0.00    +0.000 N 
ATOM      4  C   UNL     1       0.557  11.822  19.791  0.00  0.00    +0.000 A 
ATOM      5  C   UNL     1      -0.411  12.307  18.905  0.00  0.00    +0.000 A 
ATOM      6  N   UNL     1      -0.110  13.600  18.480  0.00  0.00    +0.000 NA
ATOM      7  C   UNL     1       0.972  13.880  19.144  0.00  0.00    +0.000 A 
ATOM      8  S   UNL     1       2.018  15.226  19.274  0.00  0.00    +0.000 S 
ENDROOT
BRANCH   5   9
ATOM      9  C   UNL     1      -1.620  11.619  18.469  0.00  0.00    +0.000 A 
ATOM     10  C   UNL     1      -1.557  10.467  17.673  0.00  0.00    +0.000 A 
ATOM     11  C   UNL     1      -2.718   9.837  17.230  0.00  0.00    +0.000 A 
ATOM     12  C   UNL     1      -3.964  10.327  17.618  0.00  0.00    +0.000 A 
ATOM     13  C   UNL     1      -4.041  11.444  18.449  0.00  0.00    +0.000 A 
ATOM     14  C   UNL     1      -2.874  12.089  18.873  0.00  0.00    +0.000 A 
ENDBRANCH   5   9
BRANCH   1  16
ATOM     15  C   UNL     1       3.901  15.161  22.553  0.00  0.00    +0.000 C 
ATOM     16  C   UNL     1       4.148  14.853  21.087  0.00  0.00    +0.000 C 
ENDBRANCH   1  16
BRANCH   4  17
ATOM     17  C   UNL     1       0.770  10.554  20.417  0.00  0.00    +0.000 C 
ATOM     18  N   UNL     1       1.246   9.556  19.748  0.00  0.00    +0.000 NA
BRANCH  18  19
ATOM     19  N   UNL     1       1.391   8.428  20.544  0.00  0.00    +0.000 NA
ATOM     20  C   UNL     1       1.954   7.433  19.947  0.00  0.00    +0.000 C 
ATOM     21  N   UNL     1       2.172   6.286  20.627  0.00  0.00    +0.000 N 
ATOM     22  C   UNL     1       2.863   5.295  19.999  0.00  0.00    +0.000 C 
ATOM     23  O   UNL     1       3.345   4.336  20.587  0.00  0.00    +0.000 OA
ATOM     24  C   UNL     1       2.923   5.521  18.501  0.00  0.00    +0.000 C 
ATOM     25  S   UNL     1       2.563   7.309  18.320  0.00  0.00    +0.000 S 
ATOM     26  H   UNL     1       2.014   6.254  21.622  0.00  0.00    +0.000 HD
BRANCH  24  27
ATOM     27  C   UNL     1       1.847   4.725  17.763  0.00  0.00    +0.000 C 
ATOM     28  C   UNL     1       2.275   3.296  17.451  0.00  0.00    +0.000 C 
ENDBRANCH  24  27
ENDBRANCH  18  19
ENDBRANCH   4  17
TORSDOF 5
ENDMDL
MODEL 7
REMARK VINA RESULT:      -6.6      3.593      7.159
REMARK  Name = 
REMARK  7 active torsions:
REMARK  status: ('A' for Active; 'I' for Inactive)
REMARK    1  A    between atoms: C_1  and  C_2
REMARK    2  A    between atoms: C_2  and  C_3
REMARK    3  A    between atoms: C_6  and  C_7
REMARK    4  A    between atoms: N_8  and  N_9
REMARK    5  A    between atoms: C_14  and  C_15
REMARK    6  A    between atoms: C_15  and  C_16
REMARK    7  A    between atoms: C_18  and  C_19
REMARK                            x       y       z     vdW  Elec       q    Type
REMARK                         _______ _______ _______ _____ _____    ______ ____
ROOT
ATOM      1  C   UNL     1       2.046   6.384  20.191  0.00  0.00    +0.000 A 
ATOM      2  N   UNL     1       1.353   7.228  20.907  0.00  0.00    +0.000 NA
ATOM      3  N   UNL     1       1.335   8.382  20.191  0.00  0.00    +0.000 N 
ATOM      4  C   UNL     1       0.739   9.584  20.421  0.00  0.00    +0.000 A 
ATOM      5  C   UNL     1       1.144  10.362  19.331  0.00  0.00    +0.000 A 
ATOM      6  N   UNL     1       1.888   9.613  18.420  0.00  0.00    +0.000 NA
ATOM      7  C   UNL     1       1.963   8.448  18.993  0.00  0.00    +0.000 A 
ATOM      8  S   UNL     1       2.688   6.944  18.626  0.00  0.00    +0.000 S 
ENDROOT
BRANCH   5   9
ATOM      9  C   UNL     1       0.887  11.782  19.126  0.00  0.00    +0.000 A 
ATOM     10  C   UNL     1      -0.299  12.230  18.529  0.00  0.00    +0.000 A 
ATOM     11  C   UNL     1      -0.520  13.588  18.305  0.00  0.00    +0.000 A 
ATOM     12  C   UNL     1       0.428  14.522  18.717  0.00  0.00    +0.000 A 
ATOM     13  C   UNL     1       1.591  14.094  19.356  0.00  0.00    +0.000 A 
ATOM     14  C   UNL     1       1.821  12.729  19.559  0.00  0.00    +0.000 A 
ENDBRANCH   5   9
BRANCH   1  16
ATOM     15  C   UNL     1       1.053   4.127  20.410  0.00  0.00    +0.000 C 
ATOM     16  C   UNL     1       2.301   4.970  20.605  0.00  0.00    +0.000 C 
ENDBRANCH   1  16
BRANCH   4  17
ATOM     17  C   UNL     1      -0.107   9.834  21.546  0.00  0.00    +0.000 C 
ATOM     18  N   UNL     1      -0.078  10.974  22.156  0.00  0.00    +0.000 NA
BRANCH  18  19
ATOM     19  N   UNL     1      -0.986  11.016  23.206  0.00  0.00    +0.000 NA
ATOM     20  C   UNL     1      -2.024  11.745  22.974  0.00  0.00    +0.000 C 
ATOM     21  N   UNL     1      -2.992  11.844  23.912  0.00  0.00    +0.000 N 
ATOM     22  C   UNL     1      -4.120  12.535  23.593  0.00  0.00    +0.000 C 
ATOM     23  O   UNL     1      -5.153  12.470  24.245  0.00  0.00    +0.000 OA
ATOM     24  C   UNL     1      -3.914  13.401  22.365  0.00  0.00    +0.000 C 
ATOM     25  S   UNL     1      -2.452  12.655  21.551  0.00  0.00    +0.000 S 
ATOM     26  H   UNL     1      -2.961  11.254  24.728  0.00  0.00    +0.000 HD
BRANCH  24  27
ATOM     27  C   UNL     1      -3.586  14.847  22.739  0.00  0.00    +0.000 C 
ATOM     28  C   UNL     1      -3.316  15.727  21.524  0.00  0.00    +0.000 C 
ENDBRANCH  24  27
ENDBRANCH  18  19
ENDBRANCH   4  17
TORSDOF 5
ENDMDL
MODEL 8
REMARK VINA RESULT:      -6.5      2.418      2.814
REMARK  Name = 
REMARK  7 active torsions:
REMARK  status: ('A' for Active; 'I' for Inactive)
REMARK    1  A    between atoms: C_1  and  C_2
REMARK    2  A    between atoms: C_2  and  C_3
REMARK    3  A    between atoms: C_6  and  C_7
REMARK    4  A    between atoms: N_8  and  N_9
REMARK    5  A    between atoms: C_14  and  C_15
REMARK    6  A    between atoms: C_15  and  C_16
REMARK    7  A    between atoms: C_18  and  C_19
REMARK                            x       y       z     vdW  Elec       q    Type
REMARK                         _______ _______ _______ _____ _____    ______ ____
ROOT
ATOM      1  C   UNL     1       6.276   5.296  14.807  0.00  0.00    +0.000 A 
ATOM      2  N   UNL     1       5.425   6.081  15.409  0.00  0.00    +0.000 NA
ATOM      3  N   UNL     1       4.864   5.325  16.389  0.00  0.00    +0.000 N 
ATOM      4  C   UNL     1       3.945   5.619  17.348  0.00  0.00    +0.000 A 
ATOM      5  C   UNL     1       3.760   4.398  18.007  0.00  0.00    +0.000 A 
ATOM      6  N   UNL     1       4.621   3.419  17.512  0.00  0.00    +0.000 NA
ATOM      7  C   UNL     1       5.246   4.037  16.555  0.00  0.00    +0.000 A 
ATOM      8  S   UNL     1       6.445   3.627  15.406  0.00  0.00    +0.000 S 
ENDROOT
BRANCH   5   9
ATOM      9  C   UNL     1       2.790   4.108  19.055  0.00  0.00    +0.000 A 
ATOM     10  C   UNL     1       1.531   3.571  18.756  0.00  0.00    +0.000 A 
ATOM     11  C   UNL     1       0.597   3.331  19.761  0.00  0.00    +0.000 A 
ATOM     12  C   UNL     1       0.928   3.585  21.091  0.00  0.00    +0.000 A 
ATOM     13  C   UNL     1       2.194   4.075  21.408  0.00  0.00    +0.000 A 
ATOM     14  C   UNL     1       3.122   4.338  20.395  0.00  0.00    +0.000 A 
ENDBRANCH   5   9
BRANCH   1  16
ATOM     15  C   UNL     1       7.479   4.556  12.773  0.00  0.00    +0.000 C 
ATOM     16  C   UNL     1       7.134   5.736  13.665  0.00  0.00    +0.000 C 
ENDBRANCH   1  16
BRANCH   4  17
ATOM     17  C   UNL     1       3.406   6.930  17.540  0.00  0.00    +0.000 C 
ATOM     18  N   UNL     1       2.141   7.103  17.741  0.00  0.00    +0.000 NA
BRANCH  18  19
ATOM     19  N   UNL     1       1.830   8.444  17.920  0.00  0.00    +0.000 NA
ATOM     20  C   UNL     1       1.635   8.779  19.150  0.00  0.00    +0.000 C 
ATOM     21  N   UNL     1       1.349  10.064  19.453  0.00  0.00    +0.000 N 
ATOM     22  C   UNL     1       1.254  10.402  20.768  0.00  0.00    +0.000 C 
ATOM     23  O   UNL     1       1.265  11.558  21.167  0.00  0.00    +0.000 OA
ATOM     24  C   UNL     1       1.104   9.176  21.649  0.00  0.00    +0.000 C 
ATOM     25  S   UNL     1       1.721   7.809  20.595  0.00  0.00    +0.000 S 
ATOM     26  H   UNL     1       1.415  10.774  18.742  0.00  0.00    +0.000 HD
BRANCH  24  27
ATOM     27  C   UNL     1      -0.359   8.905  22.000  0.00  0.00    +0.000 C 
ATOM     28  C   UNL     1      -0.809   9.628  23.264  0.00  0.00    +0.000 C 
ENDBRANCH  24  27
ENDBRANCH  18  19
ENDBRANCH   4  17
TORSDOF 5
ENDMDL
MODEL 9
REMARK VINA RESULT:      -6.4      2.568      3.065
REMARK  Name = 
REMARK  7 active torsions:
REMARK  status: ('A' for Active; 'I' for Inactive)
REMARK    1  A    between atoms: C_1  and  C_2
REMARK    2  A    between atoms: C_2  and  C_3
REMARK    3  A    between atoms: C_6  and  C_7
REMARK    4  A    between atoms: N_8  and  N_9
REMARK    5  A    between atoms: C_14  and  C_15
REMARK    6  A    between atoms: C_15  and  C_16
REMARK    7  A    between atoms: C_18  and  C_19
REMARK                            x       y       z     vdW  Elec       q    Type
REMARK                         _______ _______ _______ _____ _____    ______ ____
ROOT
ATOM      1  C   UNL     1       6.548   5.186  14.471  0.00  0.00    +0.000 A 
ATOM      2  N   UNL     1       5.909   6.120  15.123  0.00  0.00    +0.000 NA
ATOM      3  N   UNL     1       5.167   5.469  16.056  0.00  0.00    +0.000 N 
ATOM      4  C   UNL     1       4.337   5.922  17.034  0.00  0.00    +0.000 A 
ATOM      5  C   UNL     1       3.850   4.748  17.618  0.00  0.00    +0.000 A 
ATOM      6  N   UNL     1       4.449   3.618  17.063  0.00  0.00    +0.000 NA
ATOM      7  C   UNL     1       5.219   4.119  16.143  0.00  0.00    +0.000 A 
ATOM      8  S   UNL     1       6.294   3.495  14.968  0.00  0.00    +0.000 S 
ENDROOT
BRANCH   5   9
ATOM      9  C   UNL     1       2.826   4.644  18.650  0.00  0.00    +0.000 A 
ATOM     10  C   UNL     1       1.852   3.637  18.612  0.00  0.00    +0.000 A 
ATOM     11  C   UNL     1       0.855   3.567  19.584  0.00  0.00    +0.000 A 
ATOM     12  C   UNL     1       0.845   4.482  20.634  0.00  0.00    +0.000 A 
ATOM     13  C   UNL     1       1.835   5.461  20.709  0.00  0.00    +0.000 A 
ATOM     14  C   UNL     1       2.821   5.544  19.721  0.00  0.00    +0.000 A 
ENDBRANCH   5   9
BRANCH   1  16
ATOM     15  C   UNL     1       7.286   4.493  12.212  0.00  0.00    +0.000 C 
ATOM     16  C   UNL     1       7.502   5.469  13.355  0.00  0.00    +0.000 C 
ENDBRANCH   1  16
BRANCH   4  17
ATOM     17  C   UNL     1       4.135   7.312  17.306  0.00  0.00    +0.000 C 
ATOM     18  N   UNL     1       2.993   7.872  17.078  0.00  0.00    +0.000 NA
BRANCH  18  19
ATOM     19  N   UNL     1       3.003   9.216  17.426  0.00  0.00    +0.000 NA
ATOM     20  C   UNL     1       1.895   9.636  17.934  0.00  0.00    +0.000 C 
ATOM     21  N   UNL     1       1.790  10.922  18.336  0.00  0.00    +0.000 N 
ATOM     22  C   UNL     1       0.644  11.302  18.963  0.00  0.00    +0.000 C 
ATOM     23  O   UNL     1       0.539  12.344  19.596  0.00  0.00    +0.000 OA
ATOM     24  C   UNL     1      -0.470  10.296  18.747  0.00  0.00    +0.000 C 
ATOM     25  S   UNL     1       0.418   8.769  18.256  0.00  0.00    +0.000 S 
ATOM     26  H   UNL     1       2.609  11.509  18.356  0.00  0.00    +0.000 HD
BRANCH  24  27
ATOM     27  C   UNL     1      -1.400  10.713  17.608  0.00  0.00    +0.000 C 
ATOM     28  C   UNL     1      -2.595   9.783  17.446  0.00  0.00    +0.000 C 
ENDBRANCH  24  27
ENDBRANCH  18  19
ENDBRANCH   4  17
TORSDOF 5
ENDMDL
