MODEL 1
REMARK VINA RESULT:      -6.5      0.000      0.000
REMARK  Name = 
REMARK  20 active torsions:
REMARK  status: ('A' for Active; 'I' for Inactive)
REMARK    1  A    between atoms: C_1  and  C_2
REMARK    2  A    between atoms: C_2  and  C_3
REMARK    3  A    between atoms: C_2  and  C_4
REMARK    4  A    between atoms: C_4  and  C_5
REMARK    5  A    between atoms: C_5  and  N_6
REMARK    6  A    between atoms: C_5  and  C_16
REMARK    7  A    between atoms: C_7  and  C_9
REMARK    8  A    between atoms: C_9  and  N_10
REMARK    9  A    between atoms: C_9  and  C_11
REMARK   10  A    between atoms: C_11  and  C_12
REMARK   11  A    between atoms: C_12  and  C_13
REMARK   12  A    between atoms: C_13  and  C_14
REMARK   13  A    between atoms: C_14  and  N_15
REMARK   14  A    between atoms: N_18  and  C_19
REMARK   15  A    between atoms: C_19  and  C_20
REMARK   16  A    between atoms: C_19  and  C_25
REMARK   17  A    between atoms: C_20  and  C_21
REMARK   18  A    between atoms: C_21  and  C_22
REMARK   19  A    between atoms: C_22  and  C_23
REMARK   20  A    between atoms: C_23  and  N_24
REMARK                            x       y       z     vdW  Elec       q    Type
REMARK                         _______ _______ _______ _____ _____    ______ ____
ROOT
ATOM      1  C   UNL     1       4.598   6.071  18.137  0.00  0.00    +0.000 C 
ENDROOT
BRANCH   1   2
ATOM      2  N   UNL     1       4.976   5.633  16.793  0.00  0.00    +0.000 N 
ATOM      3  C   UNL     1       6.175   5.992  16.217  0.00  0.00    +0.000 C 
ATOM      4  O   UNL     1       6.974   6.750  16.764  0.00  0.00    +0.000 OA
ATOM      5  H   UNL     1       4.508   4.807  16.442  0.00  0.00    +0.000 HD
BRANCH   3   6
ATOM      6  C   UNL     1       6.432   5.419  14.803  0.00  0.00    +0.000 C 
BRANCH   6   7
ATOM      7  N   UNL     1       7.865   5.509  14.459  0.00  0.00    +0.000 NA
ATOM      8  H   UNL     1       8.399   4.760  14.890  0.00  0.00    +0.000 HD
ATOM      9  H   UNL     1       8.239   6.392  14.811  0.00  0.00    +0.000 HD
ENDBRANCH   6   7
BRANCH   6  10
ATOM     10  C   UNL     1       5.958   3.962  14.676  0.00  0.00    +0.000 C 
BRANCH  10  11
ATOM     11  C   UNL     1       6.163   3.348  13.283  0.00  0.00    +0.000 C 
BRANCH  11  12
ATOM     12  C   UNL     1       5.028   3.655  12.311  0.00  0.00    +0.000 C 
BRANCH  12  13
ATOM     13  C   UNL     1       4.900   2.563  11.243  0.00  0.00    +0.000 C 
BRANCH  13  14
ATOM     14  N   UNL     1       5.887   1.513  11.486  0.00  0.00    +0.000 NA
ATOM     15  H   UNL     1       5.490   0.811  12.105  0.00  0.00    +0.000 HD
ATOM     16  H   UNL     1       6.684   1.910  11.976  0.00  0.00    +0.000 HD
ENDBRANCH  13  14
ENDBRANCH  12  13
ENDBRANCH  11  12
ENDBRANCH  10  11
ENDBRANCH   6  10
ENDBRANCH   3   6
ENDBRANCH   1   2
BRANCH   1  17
ATOM     17  C   UNL     1       4.960   4.952  19.138  0.00  0.00    +0.000 C 
ATOM     18  O   UNL     1       6.126   4.691  19.432  0.00  0.00    +0.000 OA
ATOM     19  N   UNL     1       3.894   4.196  19.576  0.00  0.00    +0.000 N 
ATOM     20  H   UNL     1       2.945   4.542  19.464  0.00  0.00    +0.000 HD
BRANCH  19  21
ATOM     21  C   UNL     1       4.073   3.016  20.417  0.00  0.00    +0.000 C 
BRANCH  21  22
ATOM     22  C   UNL     1       4.470   1.843  19.505  0.00  0.00    +0.000 C 
ATOM     23  N   UNL     1       3.989   1.894  18.228  0.00  0.00    +0.000 N 
ATOM     24  O   UNL     1       5.188   0.918  19.871  0.00  0.00    +0.000 OA
ATOM     25  H   UNL     1       3.412   2.648  17.881  0.00  0.00    +0.000 HD
ATOM     26  H   UNL     1       4.251   1.152  17.590  0.00  0.00    +0.000 HD
ENDBRANCH  21  22
BRANCH  21  27
ATOM     27  C   UNL     1       2.777   2.682  21.166  0.00  0.00    +0.000 C 
BRANCH  27  28
ATOM     28  C   UNL     1       1.860   3.899  21.347  0.00  0.00    +0.000 C 
BRANCH  28  29
ATOM     29  C   UNL     1       0.830   4.062  20.224  0.00  0.00    +0.000 C 
BRANCH  29  30
ATOM     30  C   UNL     1       0.671   2.796  19.382  0.00  0.00    +0.000 C 
BRANCH  30  31
ATOM     31  N   UNL     1       1.141   3.015  18.021  0.00  0.00    +0.000 NA
ATOM     32  H   UNL     1       1.355   2.119  17.583  0.00  0.00    +0.000 HD
ATOM     33  H   UNL     1       2.018   3.534  18.052  0.00  0.00    +0.000 HD
ENDBRANCH  30  31
ENDBRANCH  29  30
ENDBRANCH  28  29
ENDBRANCH  27  28
ENDBRANCH  21  27
ENDBRANCH  19  21
ENDBRANCH   1  17
BRANCH   1  34
ATOM     34  C   UNL     1       3.081   6.322  18.231  0.00  0.00    +0.000 C 
BRANCH  34  36
ATOM     35  C   UNL     1       1.819   8.451  17.763  0.00  0.00    +0.000 C 
ATOM     36  C   UNL     1       2.664   7.696  18.795  0.00  0.00    +0.000 C 
ATOM     37  C   UNL     1       1.886   7.570  20.104  0.00  0.00    +0.000 C 
ENDBRANCH  34  36
ENDBRANCH   1  34
TORSDOF 18
ENDMDL
MODEL 2
REMARK VINA RESULT:      -6.4      2.970      7.417
REMARK  Name = 
REMARK  20 active torsions:
REMARK  status: ('A' for Active; 'I' for Inactive)
REMARK    1  A    between atoms: C_1  and  C_2
REMARK    2  A    between atoms: C_2  and  C_3
REMARK    3  A    between atoms: C_2  and  C_4
REMARK    4  A    between atoms: C_4  and  C_5
REMARK    5  A    between atoms: C_5  and  N_6
REMARK    6  A    between atoms: C_5  and  C_16
REMARK    7  A    between atoms: C_7  and  C_9
REMARK    8  A    between atoms: C_9  and  N_10
REMARK    9  A    between atoms: C_9  and  C_11
REMARK   10  A    between atoms: C_11  and  C_12
REMARK   11  A    between atoms: C_12  and  C_13
REMARK   12  A    between atoms: C_13  and  C_14
REMARK   13  A    between atoms: C_14  and  N_15
REMARK   14  A    between atoms: N_18  and  C_19
REMARK   15  A    between atoms: C_19  and  C_20
REMARK   16  A    between atoms: C_19  and  C_25
REMARK   17  A    between atoms: C_20  and  C_21
REMARK   18  A    between atoms: C_21  and  C_22
REMARK   19  A    between atoms: C_22  and  C_23
REMARK   20  A    between atoms: C_23  and  N_24
REMARK                            x       y       z     vdW  Elec       q    Type
REMARK                         _______ _______ _______ _____ _____    ______ ____
ROOT
ATOM      1  C   UNL     1       5.493   4.095  15.217  0.00  0.00    +0.000 C 
ENDROOT
BRANCH   1   2
ATOM      2  N   UNL     1       4.292   4.546  15.918  0.00  0.00    +0.000 N 
ATOM      3  C   UNL     1       3.810   3.899  17.035  0.00  0.00    +0.000 C 
ATOM      4  O   UNL     1       4.318   2.871  17.478  0.00  0.00    +0.000 OA
ATOM      5  H   UNL     1       4.025   5.513  15.776  0.00  0.00    +0.000 HD
BRANCH   3   6
ATOM      6  C   UNL     1       2.547   4.525  17.673  0.00  0.00    +0.000 C 
BRANCH   6   7
ATOM      7  N   UNL     1       1.464   3.525  17.767  0.00  0.00    +0.000 NA
ATOM      8  H   UNL     1       1.737   2.641  17.350  0.00  0.00    +0.000 HD
ATOM      9  H   UNL     1       0.649   3.866  17.255  0.00  0.00    +0.000 HD
ENDBRANCH   6   7
BRANCH   6  10
ATOM     10  C   UNL     1       2.834   5.113  19.064  0.00  0.00    +0.000 C 
BRANCH  10  11
ATOM     11  C   UNL     1       1.702   4.914  20.082  0.00  0.00    +0.000 C 
BRANCH  11  12
ATOM     12  C   UNL     1       2.139   4.163  21.337  0.00  0.00    +0.000 C 
BRANCH  12  13
ATOM     13  C   UNL     1       1.455   2.794  21.432  0.00  0.00    +0.000 C 
BRANCH  13  14
ATOM     14  N   UNL     1       1.758   2.005  20.240  0.00  0.00    +0.000 NA
ATOM     15  H   UNL     1       2.761   1.854  20.180  0.00  0.00    +0.000 HD
ATOM     16  H   UNL     1       1.497   2.534  19.412  0.00  0.00    +0.000 HD
ENDBRANCH  13  14
ENDBRANCH  12  13
ENDBRANCH  11  12
ENDBRANCH  10  11
ENDBRANCH   6  10
ENDBRANCH   3   6
ENDBRANCH   1   2
BRANCH   1  17
ATOM     17  C   UNL     1       6.718   4.805  15.834  0.00  0.00    +0.000 C 
ATOM     18  O   UNL     1       7.843   4.710  15.344  0.00  0.00    +0.000 OA
ATOM     19  N   UNL     1       6.479   5.442  17.032  0.00  0.00    +0.000 N 
ATOM     20  H   UNL     1       5.526   5.657  17.313  0.00  0.00    +0.000 HD
BRANCH  19  21
ATOM     21  C   UNL     1       7.552   6.046  17.818  0.00  0.00    +0.000 C 
BRANCH  21  22
ATOM     22  C   UNL     1       7.329   5.663  19.291  0.00  0.00    +0.000 C 
ATOM     23  N   UNL     1       8.459   5.427  20.021  0.00  0.00    +0.000 N 
ATOM     24  O   UNL     1       6.218   5.587  19.807  0.00  0.00    +0.000 OA
ATOM     25  H   UNL     1       9.392   5.499  19.640  0.00  0.00    +0.000 HD
ATOM     26  H   UNL     1       8.352   5.197  21.002  0.00  0.00    +0.000 HD
ENDBRANCH  21  22
BRANCH  21  27
ATOM     27  C   UNL     1       7.542   7.573  17.667  0.00  0.00    +0.000 C 
BRANCH  27  28
ATOM     28  C   UNL     1       8.563   8.271  18.576  0.00  0.00    +0.000 C 
BRANCH  28  29
ATOM     29  C   UNL     1       8.667   9.780  18.334  0.00  0.00    +0.000 C 
BRANCH  29  30
ATOM     30  C   UNL     1       9.442  10.501  19.437  0.00  0.00    +0.000 C 
BRANCH  30  31
ATOM     31  N   UNL     1      10.122  11.677  18.910  0.00  0.00    +0.000 NA
ATOM     32  H   UNL     1       9.807  11.860  17.958  0.00  0.00    +0.000 HD
ATOM     33  H   UNL     1      11.121  11.483  18.847  0.00  0.00    +0.000 HD
ENDBRANCH  30  31
ENDBRANCH  29  30
ENDBRANCH  28  29
ENDBRANCH  27  28
ENDBRANCH  21  27
ENDBRANCH  19  21
ENDBRANCH   1  17
BRANCH   1  34
ATOM     34  C   UNL     1       5.433   4.463  13.722  0.00  0.00    +0.000 C 
BRANCH  34  36
ATOM     35  C   UNL     1       4.935   2.963  11.760  0.00  0.00    +0.000 C 
ATOM     36  C   UNL     1       6.015   3.414  12.751  0.00  0.00    +0.000 C 
ATOM     37  C   UNL     1       7.225   3.945  11.986  0.00  0.00    +0.000 C 
ENDBRANCH  34  36
ENDBRANCH   1  34
TORSDOF 18
ENDMDL
MODEL 3
REMARK VINA RESULT:      -6.3      1.121      1.157
REMARK  Name = 
REMARK  20 active torsions:
REMARK  status: ('A' for Active; 'I' for Inactive)
REMARK    1  A    between atoms: C_1  and  C_2
REMARK    2  A    between atoms: C_2  and  C_3
REMARK    3  A    between atoms: C_2  and  C_4
REMARK    4  A    between atoms: C_4  and  C_5
REMARK    5  A    between atoms: C_5  and  N_6
REMARK    6  A    between atoms: C_5  and  C_16
REMARK    7  A    between atoms: C_7  and  C_9
REMARK    8  A    between atoms: C_9  and  N_10
REMARK    9  A    between atoms: C_9  and  C_11
REMARK   10  A    between atoms: C_11  and  C_12
REMARK   11  A    between atoms: C_12  and  C_13
REMARK   12  A    between atoms: C_13  and  C_14
REMARK   13  A    between atoms: C_14  and  N_15
REMARK   14  A    between atoms: N_18  and  C_19
REMARK   15  A    between atoms: C_19  and  C_20
REMARK   16  A    between atoms: C_19  and  C_25
REMARK   17  A    between atoms: C_20  and  C_21
REMARK   18  A    between atoms: C_21  and  C_22
REMARK   19  A    between atoms: C_22  and  C_23
REMARK   20  A    between atoms: C_23  and  N_24
REMARK                            x       y       z     vdW  Elec       q    Type
REMARK                         _______ _______ _______ _____ _____    ______ ____
ROOT
ATOM      1  C   UNL     1       4.799   6.010  17.916  0.00  0.00    +0.000 C 
ENDROOT
BRANCH   1   2
ATOM      2  N   UNL     1       5.235   5.160  16.809  0.00  0.00    +0.000 N 
ATOM      3  C   UNL     1       6.547   5.121  16.388  0.00  0.00    +0.000 C 
ATOM      4  O   UNL     1       7.420   5.840  16.870  0.00  0.00    +0.000 OA
ATOM      5  H   UNL     1       4.643   4.368  16.589  0.00  0.00    +0.000 HD
BRANCH   3   6
ATOM      6  C   UNL     1       6.845   4.145  15.226  0.00  0.00    +0.000 C 
BRANCH   6   7
ATOM      7  N   UNL     1       6.034   2.917  15.358  0.00  0.00    +0.000 NA
ATOM      8  H   UNL     1       5.315   3.022  16.067  0.00  0.00    +0.000 HD
ATOM      9  H   UNL     1       6.638   2.147  15.649  0.00  0.00    +0.000 HD
ENDBRANCH   6   7
BRANCH   6  10
ATOM     10  C   UNL     1       6.593   4.788  13.853  0.00  0.00    +0.000 C 
BRANCH  10  11
ATOM     11  C   UNL     1       6.257   3.789  12.736  0.00  0.00    +0.000 C 
BRANCH  11  12
ATOM     12  C   UNL     1       4.761   3.664  12.463  0.00  0.00    +0.000 C 
BRANCH  12  13
ATOM     13  C   UNL     1       4.494   2.859  11.186  0.00  0.00    +0.000 C 
BRANCH  13  14
ATOM     14  N   UNL     1       3.405   3.474  10.431  0.00  0.00    +0.000 NA
ATOM     15  H   UNL     1       3.721   3.679   9.487  0.00  0.00    +0.000 HD
ATOM     16  H   UNL     1       3.165   4.366  10.854  0.00  0.00    +0.000 HD
ENDBRANCH  13  14
ENDBRANCH  12  13
ENDBRANCH  11  12
ENDBRANCH  10  11
ENDBRANCH   6  10
ENDBRANCH   3   6
ENDBRANCH   1   2
BRANCH   1  17
ATOM     17  C   UNL     1       4.937   5.214  19.232  0.00  0.00    +0.000 C 
ATOM     18  O   UNL     1       5.936   5.301  19.946  0.00  0.00    +0.000 OA
ATOM     19  N   UNL     1       3.923   4.314  19.476  0.00  0.00    +0.000 N 
ATOM     20  H   UNL     1       3.041   4.393  18.977  0.00  0.00    +0.000 HD
BRANCH  19  21
ATOM     21  C   UNL     1       3.964   3.385  20.603  0.00  0.00    +0.000 C 
BRANCH  21  22
ATOM     22  C   UNL     1       4.613   2.080  20.114  0.00  0.00    +0.000 C 
ATOM     23  N   UNL     1       4.293   1.697  18.843  0.00  0.00    +0.000 N 
ATOM     24  O   UNL     1       5.389   1.417  20.796  0.00  0.00    +0.000 OA
ATOM     25  H   UNL     1       3.676   2.225  18.242  0.00  0.00    +0.000 HD
ATOM     26  H   UNL     1       4.723   0.856  18.477  0.00  0.00    +0.000 HD
ENDBRANCH  21  22
BRANCH  21  27
ATOM     27  C   UNL     1       2.549   3.103  21.125  0.00  0.00    +0.000 C 
BRANCH  27  28
ATOM     28  C   UNL     1       1.488   4.020  20.503  0.00  0.00    +0.000 C 
BRANCH  28  29
ATOM     29  C   UNL     1       0.391   3.263  19.748  0.00  0.00    +0.000 C 
BRANCH  29  30
ATOM     30  C   UNL     1       0.948   2.368  18.641  0.00  0.00    +0.000 C 
BRANCH  30  31
ATOM     31  N   UNL     1       1.694   3.152  17.665  0.00  0.00    +0.000 NA
ATOM     32  H   UNL     1       1.666   4.138  17.921  0.00  0.00    +0.000 HD
ATOM     33  H   UNL     1       1.234   3.078  16.758  0.00  0.00    +0.000 HD
ENDBRANCH  30  31
ENDBRANCH  29  30
ENDBRANCH  28  29
ENDBRANCH  27  28
ENDBRANCH  21  27
ENDBRANCH  19  21
ENDBRANCH   1  17
BRANCH   1  34
ATOM     34  C   UNL     1       3.320   6.412  17.755  0.00  0.00    +0.000 C 
BRANCH  34  36
ATOM     35  C   UNL     1       2.055   8.582  17.566  0.00  0.00    +0.000 C 
ATOM     36  C   UNL     1       2.893   7.696  18.496  0.00  0.00    +0.000 C 
ATOM     37  C   UNL     1       2.102   7.393  19.767  0.00  0.00    +0.000 C 
ENDBRANCH  34  36
ENDBRANCH   1  34
TORSDOF 18
ENDMDL
MODEL 4
REMARK VINA RESULT:      -6.2      4.044      8.081
REMARK  Name = 
REMARK  20 active torsions:
REMARK  status: ('A' for Active; 'I' for Inactive)
REMARK    1  A    between atoms: C_1  and  C_2
REMARK    2  A    between atoms: C_2  and  C_3
REMARK    3  A    between atoms: C_2  and  C_4
REMARK    4  A    between atoms: C_4  and  C_5
REMARK    5  A    between atoms: C_5  and  N_6
REMARK    6  A    between atoms: C_5  and  C_16
REMARK    7  A    between atoms: C_7  and  C_9
REMARK    8  A    between atoms: C_9  and  N_10
REMARK    9  A    between atoms: C_9  and  C_11
REMARK   10  A    between atoms: C_11  and  C_12
REMARK   11  A    between atoms: C_12  and  C_13
REMARK   12  A    between atoms: C_13  and  C_14
REMARK   13  A    between atoms: C_14  and  N_15
REMARK   14  A    between atoms: N_18  and  C_19
REMARK   15  A    between atoms: C_19  and  C_20
REMARK   16  A    between atoms: C_19  and  C_25
REMARK   17  A    between atoms: C_20  and  C_21
REMARK   18  A    between atoms: C_21  and  C_22
REMARK   19  A    between atoms: C_22  and  C_23
REMARK   20  A    between atoms: C_23  and  N_24
REMARK                            x       y       z     vdW  Elec       q    Type
REMARK                         _______ _______ _______ _____ _____    ______ ____
ROOT
ATOM      1  C   UNL     1       3.079   6.641  18.451  0.00  0.00    +0.000 C 
ENDROOT
BRANCH   1   2
ATOM      2  N   UNL     1       2.317   7.882  18.319  0.00  0.00    +0.000 N 
ATOM      3  C   UNL     1       1.682   8.469  19.393  0.00  0.00    +0.000 C 
ATOM      4  O   UNL     1       1.660   7.959  20.511  0.00  0.00    +0.000 OA
ATOM      5  H   UNL     1       2.546   8.467  17.525  0.00  0.00    +0.000 HD
BRANCH   3   6
ATOM      6  C   UNL     1       0.947   9.795  19.087  0.00  0.00    +0.000 C 
BRANCH   6   7
ATOM      7  N   UNL     1       0.542   9.850  17.668  0.00  0.00    +0.000 NA
ATOM      8  H   UNL     1       0.493   8.921  17.260  0.00  0.00    +0.000 HD
ATOM      9  H   UNL     1       1.240  10.378  17.141  0.00  0.00    +0.000 HD
ENDBRANCH   6   7
BRANCH   6  10
ATOM     10  C   UNL     1      -0.283   9.995  19.987  0.00  0.00    +0.000 C 
BRANCH  10  11
ATOM     11  C   UNL     1      -0.939  11.378  19.866  0.00  0.00    +0.000 C 
BRANCH  11  12
ATOM     12  C   UNL     1       0.065  12.512  19.677  0.00  0.00    +0.000 C 
BRANCH  12  13
ATOM     13  C   UNL     1      -0.237  13.315  18.406  0.00  0.00    +0.000 C 
BRANCH  13  14
ATOM     14  N   UNL     1      -1.202  12.593  17.581  0.00  0.00    +0.000 NA
ATOM     15  H   UNL     1      -1.421  11.702  18.017  0.00  0.00    +0.000 HD
ATOM     16  H   UNL     1      -0.780  12.377  16.683  0.00  0.00    +0.000 HD
ENDBRANCH  13  14
ENDBRANCH  12  13
ENDBRANCH  11  12
ENDBRANCH  10  11
ENDBRANCH   6  10
ENDBRANCH   3   6
ENDBRANCH   1   2
BRANCH   1  17
ATOM     17  C   UNL     1       4.344   6.744  17.572  0.00  0.00    +0.000 C 
ATOM     18  O   UNL     1       4.287   7.025  16.375  0.00  0.00    +0.000 OA
ATOM     19  N   UNL     1       5.517   6.377  18.196  0.00  0.00    +0.000 N 
ATOM     20  H   UNL     1       5.561   6.328  19.210  0.00  0.00    +0.000 HD
BRANCH  19  21
ATOM     21  C   UNL     1       6.784   6.285  17.474  0.00  0.00    +0.000 C 
BRANCH  21  22
ATOM     22  C   UNL     1       7.170   4.799  17.389  0.00  0.00    +0.000 C 
ATOM     23  N   UNL     1       6.602   3.983  18.325  0.00  0.00    +0.000 N 
ATOM     24  O   UNL     1       7.923   4.347  16.532  0.00  0.00    +0.000 OA
ATOM     25  H   UNL     1       5.962   4.311  19.034  0.00  0.00    +0.000 HD
ATOM     26  H   UNL     1       6.813   2.993  18.283  0.00  0.00    +0.000 HD
ENDBRANCH  21  22
BRANCH  21  27
ATOM     27  C   UNL     1       7.882   7.071  18.203  0.00  0.00    +0.000 C 
BRANCH  27  28
ATOM     28  C   UNL     1       7.942   8.545  17.782  0.00  0.00    +0.000 C 
BRANCH  28  29
ATOM     29  C   UNL     1       8.750   9.424  18.743  0.00  0.00    +0.000 C 
BRANCH  29  30
ATOM     30  C   UNL     1       9.198  10.738  18.104  0.00  0.00    +0.000 C 
BRANCH  30  31
ATOM     31  N   UNL     1      10.120  11.452  18.977  0.00  0.00    +0.000 NA
ATOM     32  H   UNL     1      11.020  10.974  18.993  0.00  0.00    +0.000 HD
ATOM     33  H   UNL     1       9.764  11.423  19.931  0.00  0.00    +0.000 HD
ENDBRANCH  30  31
ENDBRANCH  29  30
ENDBRANCH  28  29
ENDBRANCH  27  28
ENDBRANCH  21  27
ENDBRANCH  19  21
ENDBRANCH   1  17
BRANCH   1  34
ATOM     34  C   UNL     1       2.256   5.433  17.963  0.00  0.00    +0.000 C 
BRANCH  34  36
ATOM     35  C   UNL     1       1.380   4.411  20.092  0.00  0.00    +0.000 C 
ATOM     36  C   UNL     1       2.287   4.190  18.876  0.00  0.00    +0.000 C 
ATOM     37  C   UNL     1       1.859   2.922  18.139  0.00  0.00    +0.000 C 
ENDBRANCH  34  36
ENDBRANCH   1  34
TORSDOF 18
ENDMDL
MODEL 5
REMARK VINA RESULT:      -6.2      3.072      6.815
REMARK  Name = 
REMARK  20 active torsions:
REMARK  status: ('A' for Active; 'I' for Inactive)
REMARK    1  A    between atoms: C_1  and  C_2
REMARK    2  A    between atoms: C_2  and  C_3
REMARK    3  A    between atoms: C_2  and  C_4
REMARK    4  A    between atoms: C_4  and  C_5
REMARK    5  A    between atoms: C_5  and  N_6
REMARK    6  A    between atoms: C_5  and  C_16
REMARK    7  A    between atoms: C_7  and  C_9
REMARK    8  A    between atoms: C_9  and  N_10
REMARK    9  A    between atoms: C_9  and  C_11
REMARK   10  A    between atoms: C_11  and  C_12
REMARK   11  A    between atoms: C_12  and  C_13
REMARK   12  A    between atoms: C_13  and  C_14
REMARK   13  A    between atoms: C_14  and  N_15
REMARK   14  A    between atoms: N_18  and  C_19
REMARK   15  A    between atoms: C_19  and  C_20
REMARK   16  A    between atoms: C_19  and  C_25
REMARK   17  A    between atoms: C_20  and  C_21
REMARK   18  A    between atoms: C_21  and  C_22
REMARK   19  A    between atoms: C_22  and  C_23
REMARK   20  A    between atoms: C_23  and  N_24
REMARK                            x       y       z     vdW  Elec       q    Type
REMARK                         _______ _______ _______ _____ _____    ______ ____
ROOT
ATOM      1  C   UNL     1       3.167   6.044  17.768  0.00  0.00    +0.000 C 
ENDROOT
BRANCH   1   2
ATOM      2  N   UNL     1       3.271   4.602  17.986  0.00  0.00    +0.000 N 
ATOM      3  C   UNL     1       2.247   3.738  17.667  0.00  0.00    +0.000 C 
ATOM      4  O   UNL     1       1.161   4.124  17.239  0.00  0.00    +0.000 OA
ATOM      5  H   UNL     1       4.208   4.224  18.053  0.00  0.00    +0.000 HD
BRANCH   3   6
ATOM      6  C   UNL     1       2.532   2.241  17.931  0.00  0.00    +0.000 C 
BRANCH   6   7
ATOM      7  N   UNL     1       3.978   1.960  17.818  0.00  0.00    +0.000 NA
ATOM      8  H   UNL     1       4.410   2.524  17.093  0.00  0.00    +0.000 HD
ATOM      9  H   UNL     1       4.109   0.980  17.561  0.00  0.00    +0.000 HD
ENDBRANCH   6   7
BRANCH   6  10
ATOM     10  C   UNL     1       2.021   1.790  19.309  0.00  0.00    +0.000 C 
BRANCH  10  11
ATOM     11  C   UNL     1       2.922   2.198  20.484  0.00  0.00    +0.000 C 
BRANCH  11  12
ATOM     12  C   UNL     1       2.167   2.888  21.617  0.00  0.00    +0.000 C 
BRANCH  12  13
ATOM     13  C   UNL     1       1.861   4.350  21.273  0.00  0.00    +0.000 C 
BRANCH  13  14
ATOM     14  N   UNL     1       0.682   4.421  20.414  0.00  0.00    +0.000 NA
ATOM     15  H   UNL     1      -0.075   3.888  20.834  0.00  0.00    +0.000 HD
ATOM     16  H   UNL     1       0.887   3.975  19.524  0.00  0.00    +0.000 HD
ENDBRANCH  13  14
ENDBRANCH  12  13
ENDBRANCH  11  12
ENDBRANCH  10  11
ENDBRANCH   6  10
ENDBRANCH   3   6
ENDBRANCH   1   2
BRANCH   1  17
ATOM     17  C   UNL     1       4.473   6.537  17.106  0.00  0.00    +0.000 C 
ATOM     18  O   UNL     1       4.469   7.186  16.060  0.00  0.00    +0.000 OA
ATOM     19  N   UNL     1       5.632   6.093  17.703  0.00  0.00    +0.000 N 
ATOM     20  H   UNL     1       5.607   5.721  18.650  0.00  0.00    +0.000 HD
BRANCH  19  21
ATOM     21  C   UNL     1       6.950   6.351  17.129  0.00  0.00    +0.000 C 
BRANCH  21  22
ATOM     22  C   UNL     1       7.617   4.994  16.852  0.00  0.00    +0.000 C 
ATOM     23  N   UNL     1       8.008   4.287  17.953  0.00  0.00    +0.000 N 
ATOM     24  O   UNL     1       7.781   4.542  15.722  0.00  0.00    +0.000 OA
ATOM     25  H   UNL     1       7.873   4.613  18.900  0.00  0.00    +0.000 HD
ATOM     26  H   UNL     1       8.427   3.376  17.810  0.00  0.00    +0.000 HD
ENDBRANCH  21  22
BRANCH  21  27
ATOM     27  C   UNL     1       7.812   7.171  18.097  0.00  0.00    +0.000 C 
BRANCH  27  28
ATOM     28  C   UNL     1       7.923   8.648  17.697  0.00  0.00    +0.000 C 
BRANCH  28  29
ATOM     29  C   UNL     1       8.799   9.475  18.642  0.00  0.00    +0.000 C 
BRANCH  29  30
ATOM     30  C   UNL     1       8.910  10.938  18.215  0.00  0.00    +0.000 C 
BRANCH  30  31
ATOM     31  N   UNL     1      10.292  11.288  17.912  0.00  0.00    +0.000 NA
ATOM     32  H   UNL     1      10.349  12.272  17.651  0.00  0.00    +0.000 HD
ATOM     33  H   UNL     1      10.599  10.757  17.098  0.00  0.00    +0.000 HD
ENDBRANCH  30  31
ENDBRANCH  29  30
ENDBRANCH  28  29
ENDBRANCH  27  28
ENDBRANCH  21  27
ENDBRANCH  19  21
ENDBRANCH   1  17
BRANCH   1  34
ATOM     34  C   UNL     1       2.997   6.795  19.103  0.00  0.00    +0.000 C 
BRANCH  34  36
ATOM     35  C   UNL     1       1.576   8.188  20.647  0.00  0.00    +0.000 C 
ATOM     36  C   UNL     1       1.762   7.714  19.201  0.00  0.00    +0.000 C 
ATOM     37  C   UNL     1       1.867   8.923  18.273  0.00  0.00    +0.000 C 
ENDBRANCH  34  36
ENDBRANCH   1  34
TORSDOF 18
ENDMDL
MODEL 6
REMARK VINA RESULT:      -6.1      2.206      7.325
REMARK  Name = 
REMARK  20 active torsions:
REMARK  status: ('A' for Active; 'I' for Inactive)
REMARK    1  A    between atoms: C_1  and  C_2
REMARK    2  A    between atoms: C_2  and  C_3
REMARK    3  A    between atoms: C_2  and  C_4
REMARK    4  A    between atoms: C_4  and  C_5
REMARK    5  A    between atoms: C_5  and  N_6
REMARK    6  A    between atoms: C_5  and  C_16
REMARK    7  A    between atoms: C_7  and  C_9
REMARK    8  A    between atoms: C_9  and  N_10
REMARK    9  A    between atoms: C_9  and  C_11
REMARK   10  A    between atoms: C_11  and  C_12
REMARK   11  A    between atoms: C_12  and  C_13
REMARK   12  A    between atoms: C_13  and  C_14
REMARK   13  A    between atoms: C_14  and  N_15
REMARK   14  A    between atoms: N_18  and  C_19
REMARK   15  A    between atoms: C_19  and  C_20
REMARK   16  A    between atoms: C_19  and  C_25
REMARK   17  A    between atoms: C_20  and  C_21
REMARK   18  A    between atoms: C_21  and  C_22
REMARK   19  A    between atoms: C_22  and  C_23
REMARK   20  A    between atoms: C_23  and  N_24
REMARK                            x       y       z     vdW  Elec       q    Type
REMARK                         _______ _______ _______ _____ _____    ______ ____
ROOT
ATOM      1  C   UNL     1       4.307   3.890  19.312  0.00  0.00    +0.000 C 
ENDROOT
BRANCH   1   2
ATOM      2  N   UNL     1       3.745   5.180  19.709  0.00  0.00    +0.000 N 
ATOM      3  C   UNL     1       3.144   6.027  18.803  0.00  0.00    +0.000 C 
ATOM      4  O   UNL     1       3.098   5.786  17.598  0.00  0.00    +0.000 OA
ATOM      5  H   UNL     1       3.504   5.283  20.687  0.00  0.00    +0.000 HD
BRANCH   3   6
ATOM      6  C   UNL     1       2.573   7.337  19.394  0.00  0.00    +0.000 C 
BRANCH   6   7
ATOM      7  N   UNL     1       1.947   8.155  18.335  0.00  0.00    +0.000 NA
ATOM      8  H   UNL     1       0.943   8.007  18.297  0.00  0.00    +0.000 HD
ATOM      9  H   UNL     1       2.331   7.880  17.430  0.00  0.00    +0.000 HD
ENDBRANCH   6   7
BRANCH   6  10
ATOM     10  C   UNL     1       1.556   7.070  20.515  0.00  0.00    +0.000 C 
BRANCH  10  11
ATOM     11  C   UNL     1       1.302   8.269  21.440  0.00  0.00    +0.000 C 
BRANCH  11  12
ATOM     12  C   UNL     1      -0.162   8.697  21.492  0.00  0.00    +0.000 C 
BRANCH  12  13
ATOM     13  C   UNL     1      -0.348  10.113  20.936  0.00  0.00    +0.000 C 
BRANCH  13  14
ATOM     14  N   UNL     1      -0.160  10.105  19.487  0.00  0.00    +0.000 NA
ATOM     15  H   UNL     1      -0.943   9.628  19.046  0.00  0.00    +0.000 HD
ATOM     16  H   UNL     1       0.669   9.564  19.259  0.00  0.00    +0.000 HD
ENDBRANCH  13  14
ENDBRANCH  12  13
ENDBRANCH  11  12
ENDBRANCH  10  11
ENDBRANCH   6  10
ENDBRANCH   3   6
ENDBRANCH   1   2
BRANCH   1  17
ATOM     17  C   UNL     1       5.573   4.145  18.464  0.00  0.00    +0.000 C 
ATOM     18  O   UNL     1       6.636   4.503  18.970  0.00  0.00    +0.000 OA
ATOM     19  N   UNL     1       5.387   4.064  17.102  0.00  0.00    +0.000 N 
ATOM     20  H   UNL     1       4.565   3.597  16.727  0.00  0.00    +0.000 HD
BRANCH  19  21
ATOM     21  C   UNL     1       6.442   4.409  16.151  0.00  0.00    +0.000 C 
BRANCH  21  22
ATOM     22  C   UNL     1       6.574   5.940  16.130  0.00  0.00    +0.000 C 
ATOM     23  N   UNL     1       5.435   6.631  15.829  0.00  0.00    +0.000 N 
ATOM     24  O   UNL     1       7.620   6.530  16.384  0.00  0.00    +0.000 OA
ATOM     25  H   UNL     1       4.549   6.185  15.634  0.00  0.00    +0.000 HD
ATOM     26  H   UNL     1       5.477   7.643  15.831  0.00  0.00    +0.000 HD
ENDBRANCH  21  22
BRANCH  21  27
ATOM     27  C   UNL     1       6.099   3.892  14.749  0.00  0.00    +0.000 C 
BRANCH  27  28
ATOM     28  C   UNL     1       7.007   4.476  13.657  0.00  0.00    +0.000 C 
BRANCH  28  29
ATOM     29  C   UNL     1       6.727   3.911  12.261  0.00  0.00    +0.000 C 
BRANCH  29  30
ATOM     30  C   UNL     1       5.521   2.973  12.235  0.00  0.00    +0.000 C 
BRANCH  30  31
ATOM     31  N   UNL     1       5.858   1.709  11.595  0.00  0.00    +0.000 NA
ATOM     32  H   UNL     1       6.487   1.176  12.194  0.00  0.00    +0.000 HD
ATOM     33  H   UNL     1       6.374   1.899  10.736  0.00  0.00    +0.000 HD
ENDBRANCH  30  31
ENDBRANCH  29  30
ENDBRANCH  28  29
ENDBRANCH  27  28
ENDBRANCH  21  27
ENDBRANCH  19  21
ENDBRANCH   1  17
BRANCH   1  34
ATOM     34  C   UNL     1       3.310   3.093  18.449  0.00  0.00    +0.000 C 
BRANCH  34  36
ATOM     35  C   UNL     1       2.406   2.534  20.733  0.00  0.00    +0.000 C 
ATOM     36  C   UNL     1       2.218   2.328  19.225  0.00  0.00    +0.000 C 
ATOM     37  C   UNL     1       0.810   2.761  18.819  0.00  0.00    +0.000 C 
ENDBRANCH  34  36
ENDBRANCH   1  34
TORSDOF 18
ENDMDL
MODEL 7
REMARK VINA RESULT:      -6.1      3.601      7.987
REMARK  Name = 
REMARK  20 active torsions:
REMARK  status: ('A' for Active; 'I' for Inactive)
REMARK    1  A    between atoms: C_1  and  C_2
REMARK    2  A    between atoms: C_2  and  C_3
REMARK    3  A    between atoms: C_2  and  C_4
REMARK    4  A    between atoms: C_4  and  C_5
REMARK    5  A    between atoms: C_5  and  N_6
REMARK    6  A    between atoms: C_5  and  C_16
REMARK    7  A    between atoms: C_7  and  C_9
REMARK    8  A    between atoms: C_9  and  N_10
REMARK    9  A    between atoms: C_9  and  C_11
REMARK   10  A    between atoms: C_11  and  C_12
REMARK   11  A    between atoms: C_12  and  C_13
REMARK   12  A    between atoms: C_13  and  C_14
REMARK   13  A    between atoms: C_14  and  N_15
REMARK   14  A    between atoms: N_18  and  C_19
REMARK   15  A    between atoms: C_19  and  C_20
REMARK   16  A    between atoms: C_19  and  C_25
REMARK   17  A    between atoms: C_20  and  C_21
REMARK   18  A    between atoms: C_21  and  C_22
REMARK   19  A    between atoms: C_22  and  C_23
REMARK   20  A    between atoms: C_23  and  N_24
REMARK                            x       y       z     vdW  Elec       q    Type
REMARK                         _______ _______ _______ _____ _____    ______ ____
ROOT
ATOM      1  C   UNL     1       3.038   5.681  18.545  0.00  0.00    +0.000 C 
ENDROOT
BRANCH   1   2
ATOM      2  N   UNL     1       2.652   7.068  18.289  0.00  0.00    +0.000 N 
ATOM      3  C   UNL     1       2.085   7.861  19.263  0.00  0.00    +0.000 C 
ATOM      4  O   UNL     1       1.809   7.441  20.384  0.00  0.00    +0.000 OA
ATOM      5  H   UNL     1       3.111   7.526  17.511  0.00  0.00    +0.000 HD
BRANCH   3   6
ATOM      6  C   UNL     1       1.766   9.313  18.836  0.00  0.00    +0.000 C 
BRANCH   6   7
ATOM      7  N   UNL     1       1.771   9.435  17.364  0.00  0.00    +0.000 NA
ATOM      8  H   UNL     1       0.875   9.759  17.015  0.00  0.00    +0.000 HD
ATOM      9  H   UNL     1       1.944   8.516  16.953  0.00  0.00    +0.000 HD
ENDBRANCH   6   7
BRANCH   6  10
ATOM     10  C   UNL     1       0.417   9.797  19.392  0.00  0.00    +0.000 C 
BRANCH  10  11
ATOM     11  C   UNL     1       0.520  10.595  20.700  0.00  0.00    +0.000 C 
BRANCH  11  12
ATOM     12  C   UNL     1      -0.802  11.220  21.137  0.00  0.00    +0.000 C 
BRANCH  12  13
ATOM     13  C   UNL     1      -0.876  11.356  22.662  0.00  0.00    +0.000 C 
BRANCH  13  14
ATOM     14  N   UNL     1      -0.182  10.236  23.294  0.00  0.00    +0.000 NA
ATOM     15  H   UNL     1       0.423  10.586  24.032  0.00  0.00    +0.000 HD
ATOM     16  H   UNL     1       0.425   9.790  22.612  0.00  0.00    +0.000 HD
ENDBRANCH  13  14
ENDBRANCH  12  13
ENDBRANCH  11  12
ENDBRANCH  10  11
ENDBRANCH   6  10
ENDBRANCH   3   6
ENDBRANCH   1   2
BRANCH   1  17
ATOM     17  C   UNL     1       4.221   5.320  17.620  0.00  0.00    +0.000 C 
ATOM     18  O   UNL     1       4.157   4.398  16.808  0.00  0.00    +0.000 OA
ATOM     19  N   UNL     1       5.382   6.022  17.861  0.00  0.00    +0.000 N 
ATOM     20  H   UNL     1       5.354   6.885  18.398  0.00  0.00    +0.000 HD
BRANCH  19  21
ATOM     21  C   UNL     1       6.633   5.714  17.171  0.00  0.00    +0.000 C 
BRANCH  21  22
ATOM     22  C   UNL     1       7.509   4.894  18.132  0.00  0.00    +0.000 C 
ATOM     23  N   UNL     1       7.236   5.045  19.462  0.00  0.00    +0.000 N 
ATOM     24  O   UNL     1       8.392   4.129  17.753  0.00  0.00    +0.000 OA
ATOM     25  H   UNL     1       6.506   5.647  19.815  0.00  0.00    +0.000 HD
ATOM     26  H   UNL     1       7.776   4.500  20.123  0.00  0.00    +0.000 HD
ENDBRANCH  21  22
BRANCH  21  27
ATOM     27  C   UNL     1       7.361   7.001  16.767  0.00  0.00    +0.000 C 
BRANCH  27  28
ATOM     28  C   UNL     1       7.950   7.758  17.966  0.00  0.00    +0.000 C 
BRANCH  28  29
ATOM     29  C   UNL     1       7.831   9.281  17.847  0.00  0.00    +0.000 C 
BRANCH  29  30
ATOM     30  C   UNL     1       9.088  10.008  18.323  0.00  0.00    +0.000 C 
BRANCH  30  31
ATOM     31  N   UNL     1       9.205   9.949  19.774  0.00  0.00    +0.000 NA
ATOM     32  H   UNL     1       8.281   9.842  20.190  0.00  0.00    +0.000 HD
ATOM     33  H   UNL     1       9.571  10.838  20.115  0.00  0.00    +0.000 HD
ENDBRANCH  30  31
ENDBRANCH  29  30
ENDBRANCH  28  29
ENDBRANCH  27  28
ENDBRANCH  21  27
ENDBRANCH  19  21
ENDBRANCH   1  17
BRANCH   1  34
ATOM     34  C   UNL     1       1.877   4.717  18.232  0.00  0.00    +0.000 C 
BRANCH  34  36
ATOM     35  C   UNL     1       1.079   4.117  20.544  0.00  0.00    +0.000 C 
ATOM     36  C   UNL     1       1.671   3.568  19.240  0.00  0.00    +0.000 C 
ATOM     37  C   UNL     1       0.764   2.470  18.687  0.00  0.00    +0.000 C 
ENDBRANCH  34  36
ENDBRANCH   1  34
TORSDOF 18
ENDMDL
MODEL 8
REMARK VINA RESULT:      -6.1      2.400      6.296
REMARK  Name = 
REMARK  20 active torsions:
REMARK  status: ('A' for Active; 'I' for Inactive)
REMARK    1  A    between atoms: C_1  and  C_2
REMARK    2  A    between atoms: C_2  and  C_3
REMARK    3  A    between atoms: C_2  and  C_4
REMARK    4  A    between atoms: C_4  and  C_5
REMARK    5  A    between atoms: C_5  and  N_6
REMARK    6  A    between atoms: C_5  and  C_16
REMARK    7  A    between atoms: C_7  and  C_9
REMARK    8  A    between atoms: C_9  and  N_10
REMARK    9  A    between atoms: C_9  and  C_11
REMARK   10  A    between atoms: C_11  and  C_12
REMARK   11  A    between atoms: C_12  and  C_13
REMARK   12  A    between atoms: C_13  and  C_14
REMARK   13  A    between atoms: C_14  and  N_15
REMARK   14  A    between atoms: N_18  and  C_19
REMARK   15  A    between atoms: C_19  and  C_20
REMARK   16  A    between atoms: C_19  and  C_25
REMARK   17  A    between atoms: C_20  and  C_21
REMARK   18  A    between atoms: C_21  and  C_22
REMARK   19  A    between atoms: C_22  and  C_23
REMARK   20  A    between atoms: C_23  and  N_24
REMARK                            x       y       z     vdW  Elec       q    Type
REMARK                         _______ _______ _______ _____ _____    ______ ____
ROOT
ATOM      1  C   UNL     1       5.303   4.718  16.854  0.00  0.00    +0.000 C 
ENDROOT
BRANCH   1   2
ATOM      2  N   UNL     1       4.683   3.695  17.695  0.00  0.00    +0.000 N 
ATOM      3  C   UNL     1       4.996   3.556  19.029  0.00  0.00    +0.000 C 
ATOM      4  O   UNL     1       5.856   4.237  19.584  0.00  0.00    +0.000 OA
ATOM      5  H   UNL     1       3.796   3.327  17.374  0.00  0.00    +0.000 HD
BRANCH   3   6
ATOM      6  C   UNL     1       4.226   2.445  19.781  0.00  0.00    +0.000 C 
BRANCH   6   7
ATOM      7  N   UNL     1       5.166   1.532  20.462  0.00  0.00    +0.000 NA
ATOM      8  H   UNL     1       6.128   1.734  20.210  0.00  0.00    +0.000 HD
ATOM      9  H   UNL     1       4.970   0.572  20.173  0.00  0.00    +0.000 HD
ENDBRANCH   6   7
BRANCH   6  10
ATOM     10  C   UNL     1       3.230   3.020  20.800  0.00  0.00    +0.000 C 
BRANCH  10  11
ATOM     11  C   UNL     1       1.873   2.301  20.836  0.00  0.00    +0.000 C 
BRANCH  11  12
ATOM     12  C   UNL     1       0.818   2.949  19.944  0.00  0.00    +0.000 C 
BRANCH  12  13
ATOM     13  C   UNL     1       1.031   2.578  18.472  0.00  0.00    +0.000 C 
BRANCH  13  14
ATOM     14  N   UNL     1       1.426   3.763  17.714  0.00  0.00    +0.000 NA
ATOM     15  H   UNL     1       0.917   4.572  18.060  0.00  0.00    +0.000 HD
ATOM     16  H   UNL     1       1.152   3.646  16.742  0.00  0.00    +0.000 HD
ENDBRANCH  13  14
ENDBRANCH  12  13
ENDBRANCH  11  12
ENDBRANCH  10  11
ENDBRANCH   6  10
ENDBRANCH   3   6
ENDBRANCH   1   2
BRANCH   1  17
ATOM     17  C   UNL     1       4.779   6.102  17.296  0.00  0.00    +0.000 C 
ATOM     18  O   UNL     1       5.448   7.127  17.163  0.00  0.00    +0.000 OA
ATOM     19  N   UNL     1       3.571   6.083  17.958  0.00  0.00    +0.000 N 
ATOM     20  H   UNL     1       2.968   5.267  17.892  0.00  0.00    +0.000 HD
BRANCH  19  21
ATOM     21  C   UNL     1       2.997   7.282  18.563  0.00  0.00    +0.000 C 
BRANCH  21  22
ATOM     22  C   UNL     1       2.256   6.856  19.841  0.00  0.00    +0.000 C 
ATOM     23  N   UNL     1       2.069   7.835  20.775  0.00  0.00    +0.000 N 
ATOM     24  O   UNL     1       1.830   5.720  20.026  0.00  0.00    +0.000 OA
ATOM     25  H   UNL     1       2.385   8.787  20.653  0.00  0.00    +0.000 HD
ATOM     26  H   UNL     1       1.561   7.598  21.618  0.00  0.00    +0.000 HD
ENDBRANCH  21  22
BRANCH  21  27
ATOM     27  C   UNL     1       2.023   7.965  17.595  0.00  0.00    +0.000 C 
BRANCH  27  28
ATOM     28  C   UNL     1       1.902   9.476  17.834  0.00  0.00    +0.000 C 
BRANCH  28  29
ATOM     29  C   UNL     1       0.508   9.914  18.293  0.00  0.00    +0.000 C 
BRANCH  29  30
ATOM     30  C   UNL     1       0.556  10.940  19.425  0.00  0.00    +0.000 C 
BRANCH  30  31
ATOM     31  N   UNL     1      -0.771  11.158  19.986  0.00  0.00    +0.000 NA
ATOM     32  H   UNL     1      -1.474  10.731  19.383  0.00  0.00    +0.000 HD
ATOM     33  H   UNL     1      -0.970  12.158  19.992  0.00  0.00    +0.000 HD
ENDBRANCH  30  31
ENDBRANCH  29  30
ENDBRANCH  28  29
ENDBRANCH  27  28
ENDBRANCH  21  27
ENDBRANCH  19  21
ENDBRANCH   1  17
BRANCH   1  34
ATOM     34  C   UNL     1       4.929   4.519  15.372  0.00  0.00    +0.000 C 
BRANCH  34  36
ATOM     35  C   UNL     1       5.509   3.694  13.064  0.00  0.00    +0.000 C 
ATOM     36  C   UNL     1       6.061   4.000  14.461  0.00  0.00    +0.000 C 
ATOM     37  C   UNL     1       7.215   4.994  14.352  0.00  0.00    +0.000 C 
ENDBRANCH  34  36
ENDBRANCH   1  34
TORSDOF 18
ENDMDL
MODEL 9
REMARK VINA RESULT:      -6.1      3.767      7.758
REMARK  Name = 
REMARK  20 active torsions:
REMARK  status: ('A' for Active; 'I' for Inactive)
REMARK    1  A    between atoms: C_1  and  C_2
REMARK    2  A    between atoms: C_2  and  C_3
REMARK    3  A    between atoms: C_2  and  C_4
REMARK    4  A    between atoms: C_4  and  C_5
REMARK    5  A    between atoms: C_5  and  N_6
REMARK    6  A    between atoms: C_5  and  C_16
REMARK    7  A    between atoms: C_7  and  C_9
REMARK    8  A    between atoms: C_9  and  N_10
REMARK    9  A    between atoms: C_9  and  C_11
REMARK   10  A    between atoms: C_11  and  C_12
REMARK   11  A    between atoms: C_12  and  C_13
REMARK   12  A    between atoms: C_13  and  C_14
REMARK   13  A    between atoms: C_14  and  N_15
REMARK   14  A    between atoms: N_18  and  C_19
REMARK   15  A    between atoms: C_19  and  C_20
REMARK   16  A    between atoms: C_19  and  C_25
REMARK   17  A    between atoms: C_20  and  C_21
REMARK   18  A    between atoms: C_21  and  C_22
REMARK   19  A    between atoms: C_22  and  C_23
REMARK   20  A    between atoms: C_23  and  N_24
REMARK                            x       y       z     vdW  Elec       q    Type
REMARK                         _______ _______ _______ _____ _____    ______ ____
ROOT
ATOM      1  C   UNL     1       2.814   5.660  18.718  0.00  0.00    +0.000 C 
ENDROOT
BRANCH   1   2
ATOM      2  N   UNL     1       2.464   7.052  18.437  0.00  0.00    +0.000 N 
ATOM      3  C   UNL     1       1.980   7.896  19.413  0.00  0.00    +0.000 C 
ATOM      4  O   UNL     1       1.754   7.522  20.562  0.00  0.00    +0.000 OA
ATOM      5  H   UNL     1       2.893   7.467  17.619  0.00  0.00    +0.000 HD
BRANCH   3   6
ATOM      6  C   UNL     1       1.689   9.344  18.954  0.00  0.00    +0.000 C 
BRANCH   6   7
ATOM      7  N   UNL     1       0.980   9.346  17.658  0.00  0.00    +0.000 NA
ATOM      8  H   UNL     1       0.561  10.251  17.466  0.00  0.00    +0.000 HD
ATOM      9  H   UNL     1       0.225   8.660  17.689  0.00  0.00    +0.000 HD
ENDBRANCH   6   7
BRANCH   6  10
ATOM     10  C   UNL     1       0.871  10.126  19.995  0.00  0.00    +0.000 C 
BRANCH  10  11
ATOM     11  C   UNL     1      -0.641  10.146  19.728  0.00  0.00    +0.000 C 
BRANCH  11  12
ATOM     12  C   UNL     1      -1.218  11.553  19.602  0.00  0.00    +0.000 C 
BRANCH  12  13
ATOM     13  C   UNL     1      -1.952  11.735  18.269  0.00  0.00    +0.000 C 
BRANCH  13  14
ATOM     14  N   UNL     1      -1.189  12.628  17.400  0.00  0.00    +0.000 NA
ATOM     15  H   UNL     1      -1.726  12.824  16.560  0.00  0.00    +0.000 HD
ATOM     16  H   UNL     1      -0.342  12.156  17.096  0.00  0.00    +0.000 HD
ENDBRANCH  13  14
ENDBRANCH  12  13
ENDBRANCH  11  12
ENDBRANCH  10  11
ENDBRANCH   6  10
ENDBRANCH   3   6
ENDBRANCH   1   2
BRANCH   1  17
ATOM     17  C   UNL     1       4.034   5.275  17.852  0.00  0.00    +0.000 C 
ATOM     18  O   UNL     1       4.074   4.225  17.211  0.00  0.00    +0.000 OA
ATOM     19  N   UNL     1       5.111   6.129  17.952  0.00  0.00    +0.000 N 
ATOM     20  H   UNL     1       4.987   7.063  18.334  0.00  0.00    +0.000 HD
BRANCH  19  21
ATOM     21  C   UNL     1       6.391   5.843  17.308  0.00  0.00    +0.000 C 
BRANCH  21  22
ATOM     22  C   UNL     1       7.241   5.026  18.295  0.00  0.00    +0.000 C 
ATOM     23  N   UNL     1       8.148   4.173  17.733  0.00  0.00    +0.000 N 
ATOM     24  O   UNL     1       7.145   5.130  19.514  0.00  0.00    +0.000 OA
ATOM     25  H   UNL     1       8.274   4.073  16.736  0.00  0.00    +0.000 HD
ATOM     26  H   UNL     1       8.745   3.638  18.353  0.00  0.00    +0.000 HD
ENDBRANCH  21  22
BRANCH  21  27
ATOM     27  C   UNL     1       7.117   7.143  16.942  0.00  0.00    +0.000 C 
BRANCH  27  28
ATOM     28  C   UNL     1       7.925   7.726  18.110  0.00  0.00    +0.000 C 
BRANCH  28  29
ATOM     29  C   UNL     1       8.214   9.224  17.967  0.00  0.00    +0.000 C 
BRANCH  29  30
ATOM     30  C   UNL     1       9.081   9.768  19.102  0.00  0.00    +0.000 C 
BRANCH  30  31
ATOM     31  N   UNL     1       9.259  11.208  18.976  0.00  0.00    +0.000 NA
ATOM     32  H   UNL     1       9.684  11.426  18.076  0.00  0.00    +0.000 HD
ATOM     33  H   UNL     1       9.917  11.525  19.687  0.00  0.00    +0.000 HD
ENDBRANCH  30  31
ENDBRANCH  29  30
ENDBRANCH  28  29
ENDBRANCH  27  28
ENDBRANCH  21  27
ENDBRANCH  19  21
ENDBRANCH   1  17
BRANCH   1  34
ATOM     34  C   UNL     1       1.654   4.713  18.355  0.00  0.00    +0.000 C 
BRANCH  34  36
ATOM     35  C   UNL     1       1.250   2.344  19.109  0.00  0.00    +0.000 C 
ATOM     36  C   UNL     1       1.135   3.821  19.502  0.00  0.00    +0.000 C 
ATOM     37  C   UNL     1       1.889   4.065  20.809  0.00  0.00    +0.000 C 
ENDBRANCH  34  36
ENDBRANCH   1  34
TORSDOF 18
ENDMDL
