MODEL 1
REMARK VINA RESULT:      -8.2      0.000      0.000
REMARK  Name = 
REMARK  9 active torsions:
REMARK  status: ('A' for Active; 'I' for Inactive)
REMARK    1  A    between atoms: C_1  and  C_2
REMARK    2  A    between atoms: C_7  and  C_8
REMARK    3  A    between atoms: C_15  and  O_16
REMARK    4  A    between atoms: O_16  and  C_17
REMARK    5  A    between atoms: C_17  and  C_18
REMARK    6  A    between atoms: C_18  and  N_19
REMARK    7  A    between atoms: N_19  and  C_20
REMARK    8  A    between atoms: C_20  and  C_21
REMARK    9  A    between atoms: C_24  and  C_25
REMARK                            x       y       z     vdW  Elec       q    Type
REMARK                         _______ _______ _______ _____ _____    ______ ____
ROOT
ATOM      1  C   UNL     1       1.656   2.502  21.922  0.00  0.00    +0.000 C 
ATOM      2  C   UNL     1       1.980   2.828  20.495  0.00  0.00    +0.000 A 
ATOM      3  C   UNL     1       0.979   2.837  19.452  0.00  0.00    +0.000 A 
ATOM      4  C   UNL     1       1.308   3.132  18.175  0.00  0.00    +0.000 A 
ATOM      5  C   UNL     1       2.656   3.443  17.825  0.00  0.00    +0.000 A 
ATOM      6  N   UNL     1       3.184   3.747  16.664  0.00  0.00    +0.000 NA
ATOM      7  C   UNL     1       4.530   3.960  16.896  0.00  0.00    +0.000 A 
ATOM      8  C   UNL     1       4.842   3.778  18.248  0.00  0.00    +0.000 A 
ATOM      9  N   UNL     1       3.611   3.432  18.839  0.00  0.00    +0.000 N 
ATOM     10  C   UNL     1       3.242   3.117  20.155  0.00  0.00    +0.000 A 
ENDROOT
BRANCH   7  11
ATOM     11  C   UNL     1       5.416   4.347  15.787  0.00  0.00    +0.000 A 
ATOM     12  C   UNL     1       6.067   5.598  15.842  0.00  0.00    +0.000 A 
ATOM     13  C   UNL     1       6.942   6.013  14.833  0.00  0.00    +0.000 A 
ATOM     14  C   UNL     1       7.175   5.182  13.750  0.00  0.00    +0.000 A 
ATOM     15  F   UNL     1       8.020   5.569  12.784  0.00  0.00    +0.000 F 
ATOM     16  C   UNL     1       6.543   3.949  13.658  0.00  0.00    +0.000 A 
ATOM     17  C   UNL     1       5.664   3.535  14.671  0.00  0.00    +0.000 A 
ENDBRANCH   7  11
BRANCH   8  18
ATOM     18  O   UNL     1       6.037   3.901  18.871  0.00  0.00    +0.000 OA
BRANCH  18  19
ATOM     19  C   UNL     1       6.481   5.212  19.191  0.00  0.00    +0.000 C 
BRANCH  19  20
ATOM     20  C   UNL     1       7.922   5.545  18.844  0.00  0.00    +0.000 C 
BRANCH  20  21
ATOM     21  N   UNL     1       8.216   6.934  19.158  0.00  0.00    +0.000 NA
ATOM     22  H   UNL     1       9.196   7.054  19.411  0.00  0.00    +0.000 HD
BRANCH  21  23
ATOM     23  C   UNL     1       7.910   7.786  18.019  0.00  0.00    +0.000 C 
BRANCH  23  24
ATOM     24  C   UNL     1       8.426   9.184  18.219  0.00  0.00    +0.000 A 
ATOM     25  C   UNL     1       9.301   9.513  19.268  0.00  0.00    +0.000 A 
ATOM     26  C   UNL     1       9.685  10.834  19.492  0.00  0.00    +0.000 A 
ATOM     27  C   UNL     1       9.185  11.855  18.679  0.00  0.00    +0.000 A 
ATOM     28  C   UNL     1       9.510  13.288  18.944  0.00  0.00    +0.000 C 
ATOM     29  C   UNL     1       8.326  11.519  17.630  0.00  0.00    +0.000 A 
ATOM     30  F   UNL     1       7.835  12.482  16.842  0.00  0.00    +0.000 F 
ATOM     31  C   UNL     1       7.945  10.208  17.402  0.00  0.00    +0.000 A 
ENDBRANCH  23  24
ENDBRANCH  21  23
ENDBRANCH  20  21
ENDBRANCH  19  20
ENDBRANCH  18  19
ENDBRANCH   8  18
TORSDOF 7
ENDMDL
MODEL 2
REMARK VINA RESULT:      -8.1      4.483      5.558
REMARK  Name = 
REMARK  9 active torsions:
REMARK  status: ('A' for Active; 'I' for Inactive)
REMARK    1  A    between atoms: C_1  and  C_2
REMARK    2  A    between atoms: C_7  and  C_8
REMARK    3  A    between atoms: C_15  and  O_16
REMARK    4  A    between atoms: O_16  and  C_17
REMARK    5  A    between atoms: C_17  and  C_18
REMARK    6  A    between atoms: C_18  and  N_19
REMARK    7  A    between atoms: N_19  and  C_20
REMARK    8  A    between atoms: C_20  and  C_21
REMARK    9  A    between atoms: C_24  and  C_25
REMARK                            x       y       z     vdW  Elec       q    Type
REMARK                         _______ _______ _______ _____ _____    ______ ____
ROOT
ATOM      1  C   UNL     1       1.553   3.465  21.637  0.00  0.00    +0.000 C 
ATOM      2  C   UNL     1       2.231   3.187  20.329  0.00  0.00    +0.000 A 
ATOM      3  C   UNL     1       2.069   1.939  19.617  0.00  0.00    +0.000 A 
ATOM      4  C   UNL     1       2.700   1.721  18.442  0.00  0.00    +0.000 A 
ATOM      5  C   UNL     1       3.544   2.723  17.874  0.00  0.00    +0.000 A 
ATOM      6  N   UNL     1       4.242   2.716  16.765  0.00  0.00    +0.000 NA
ATOM      7  C   UNL     1       4.871   3.945  16.697  0.00  0.00    +0.000 A 
ATOM      8  C   UNL     1       4.550   4.736  17.806  0.00  0.00    +0.000 A 
ATOM      9  N   UNL     1       3.690   3.921  18.569  0.00  0.00    +0.000 N 
ATOM     10  C   UNL     1       3.028   4.118  19.789  0.00  0.00    +0.000 A 
ENDROOT
BRANCH   7  11
ATOM     11  C   UNL     1       5.726   4.272  15.545  0.00  0.00    +0.000 A 
ATOM     12  C   UNL     1       5.398   3.737  14.282  0.00  0.00    +0.000 A 
ATOM     13  C   UNL     1       6.156   4.030  13.143  0.00  0.00    +0.000 A 
ATOM     14  C   UNL     1       7.256   4.862  13.254  0.00  0.00    +0.000 A 
ATOM     15  F   UNL     1       7.981   5.156  12.165  0.00  0.00    +0.000 F 
ATOM     16  C   UNL     1       7.615   5.398  14.484  0.00  0.00    +0.000 A 
ATOM     17  C   UNL     1       6.855   5.101  15.626  0.00  0.00    +0.000 A 
ENDBRANCH   7  11
BRANCH   8  18
ATOM     18  O   UNL     1       4.954   5.994  18.102  0.00  0.00    +0.000 OA
BRANCH  18  19
ATOM     19  C   UNL     1       4.232   7.070  17.522  0.00  0.00    +0.000 C 
BRANCH  19  20
ATOM     20  C   UNL     1       2.722   7.047  17.695  0.00  0.00    +0.000 C 
BRANCH  20  21
ATOM     21  N   UNL     1       2.283   8.175  18.501  0.00  0.00    +0.000 NA
ATOM     22  H   UNL     1       1.418   8.573  18.136  0.00  0.00    +0.000 HD
BRANCH  21  23
ATOM     23  C   UNL     1       2.071   7.761  19.879  0.00  0.00    +0.000 C 
BRANCH  23  24
ATOM     24  C   UNL     1       1.129   8.688  20.597  0.00  0.00    +0.000 A 
ATOM     25  C   UNL     1       0.457   9.728  19.935  0.00  0.00    +0.000 A 
ATOM     26  C   UNL     1      -0.331  10.634  20.641  0.00  0.00    +0.000 A 
ATOM     27  C   UNL     1      -0.449  10.526  22.029  0.00  0.00    +0.000 A 
ATOM     28  C   UNL     1      -1.218  11.529  22.825  0.00  0.00    +0.000 C 
ATOM     29  C   UNL     1       0.211   9.481  22.680  0.00  0.00    +0.000 A 
ATOM     30  F   UNL     1       0.112   9.360  24.009  0.00  0.00    +0.000 F 
ATOM     31  C   UNL     1       0.993   8.576  21.982  0.00  0.00    +0.000 A 
ENDBRANCH  23  24
ENDBRANCH  21  23
ENDBRANCH  20  21
ENDBRANCH  19  20
ENDBRANCH  18  19
ENDBRANCH   8  18
TORSDOF 7
ENDMDL
MODEL 3
REMARK VINA RESULT:      -7.8      2.623      5.437
REMARK  Name = 
REMARK  9 active torsions:
REMARK  status: ('A' for Active; 'I' for Inactive)
REMARK    1  A    between atoms: C_1  and  C_2
REMARK    2  A    between atoms: C_7  and  C_8
REMARK    3  A    between atoms: C_15  and  O_16
REMARK    4  A    between atoms: O_16  and  C_17
REMARK    5  A    between atoms: C_17  and  C_18
REMARK    6  A    between atoms: C_18  and  N_19
REMARK    7  A    between atoms: N_19  and  C_20
REMARK    8  A    between atoms: C_20  and  C_21
REMARK    9  A    between atoms: C_24  and  C_25
REMARK                            x       y       z     vdW  Elec       q    Type
REMARK                         _______ _______ _______ _____ _____    ______ ____
ROOT
ATOM      1  C   UNL     1       8.524   5.586  12.882  0.00  0.00    +0.000 C 
ATOM      2  C   UNL     1       7.406   5.030  13.712  0.00  0.00    +0.000 A 
ATOM      3  C   UNL     1       6.442   4.087  13.189  0.00  0.00    +0.000 A 
ATOM      4  C   UNL     1       5.444   3.610  13.966  0.00  0.00    +0.000 A 
ATOM      5  C   UNL     1       5.319   4.027  15.325  0.00  0.00    +0.000 A 
ATOM      6  N   UNL     1       4.436   3.696  16.237  0.00  0.00    +0.000 NA
ATOM      7  C   UNL     1       4.787   4.387  17.382  0.00  0.00    +0.000 A 
ATOM      8  C   UNL     1       5.925   5.173  17.166  0.00  0.00    +0.000 A 
ATOM      9  N   UNL     1       6.255   4.933  15.817  0.00  0.00    +0.000 N 
ATOM     10  C   UNL     1       7.276   5.417  14.987  0.00  0.00    +0.000 A 
ENDROOT
BRANCH   7  11
ATOM     11  C   UNL     1       4.001   4.218  18.614  0.00  0.00    +0.000 A 
ATOM     12  C   UNL     1       4.009   2.963  19.258  0.00  0.00    +0.000 A 
ATOM     13  C   UNL     1       3.303   2.745  20.446  0.00  0.00    +0.000 A 
ATOM     14  C   UNL     1       2.575   3.782  21.005  0.00  0.00    +0.000 A 
ATOM     15  F   UNL     1       1.905   3.583  22.149  0.00  0.00    +0.000 F 
ATOM     16  C   UNL     1       2.536   5.028  20.392  0.00  0.00    +0.000 A 
ATOM     17  C   UNL     1       3.244   5.244  19.199  0.00  0.00    +0.000 A 
ENDBRANCH   7  11
BRANCH   8  18
ATOM     18  O   UNL     1       6.579   5.982  18.032  0.00  0.00    +0.000 OA
BRANCH  18  19
ATOM     19  C   UNL     1       6.631   7.368  17.726  0.00  0.00    +0.000 C 
BRANCH  19  20
ATOM     20  C   UNL     1       8.014   7.991  17.629  0.00  0.00    +0.000 C 
BRANCH  20  21
ATOM     21  N   UNL     1       7.972   9.391  18.018  0.00  0.00    +0.000 NA
ATOM     22  H   UNL     1       7.089   9.620  18.475  0.00  0.00    +0.000 HD
BRANCH  21  23
ATOM     23  C   UNL     1       9.069   9.699  18.922  0.00  0.00    +0.000 C 
BRANCH  23  24
ATOM     24  C   UNL     1       9.530  11.122  18.770  0.00  0.00    +0.000 A 
ATOM     25  C   UNL     1       9.120  12.137  19.652  0.00  0.00    +0.000 A 
ATOM     26  C   UNL     1       9.479  13.465  19.431  0.00  0.00    +0.000 A 
ATOM     27  C   UNL     1      10.243  13.806  18.311  0.00  0.00    +0.000 A 
ATOM     28  C   UNL     1      10.574  15.229  18.000  0.00  0.00    +0.000 C 
ATOM     29  C   UNL     1      10.658  12.791  17.446  0.00  0.00    +0.000 A 
ATOM     30  F   UNL     1      11.388  13.097  16.367  0.00  0.00    +0.000 F 
ATOM     31  C   UNL     1      10.306  11.470  17.664  0.00  0.00    +0.000 A 
ENDBRANCH  23  24
ENDBRANCH  21  23
ENDBRANCH  20  21
ENDBRANCH  19  20
ENDBRANCH  18  19
ENDBRANCH   8  18
TORSDOF 7
ENDMDL
MODEL 4
REMARK VINA RESULT:      -7.7      2.662      5.473
REMARK  Name = 
REMARK  9 active torsions:
REMARK  status: ('A' for Active; 'I' for Inactive)
REMARK    1  A    between atoms: C_1  and  C_2
REMARK    2  A    between atoms: C_7  and  C_8
REMARK    3  A    between atoms: C_15  and  O_16
REMARK    4  A    between atoms: O_16  and  C_17
REMARK    5  A    between atoms: C_17  and  C_18
REMARK    6  A    between atoms: C_18  and  N_19
REMARK    7  A    between atoms: N_19  and  C_20
REMARK    8  A    between atoms: C_20  and  C_21
REMARK    9  A    between atoms: C_24  and  C_25
REMARK                            x       y       z     vdW  Elec       q    Type
REMARK                         _______ _______ _______ _____ _____    ______ ____
ROOT
ATOM      1  C   UNL     1       8.684   5.579  12.802  0.00  0.00    +0.000 C 
ATOM      2  C   UNL     1       7.536   5.069  13.619  0.00  0.00    +0.000 A 
ATOM      3  C   UNL     1       6.514   4.205  13.072  0.00  0.00    +0.000 A 
ATOM      4  C   UNL     1       5.490   3.767  13.838  0.00  0.00    +0.000 A 
ATOM      5  C   UNL     1       5.394   4.148  15.211  0.00  0.00    +0.000 A 
ATOM      6  N   UNL     1       4.495   3.845  16.115  0.00  0.00    +0.000 NA
ATOM      7  C   UNL     1       4.892   4.477  17.280  0.00  0.00    +0.000 A 
ATOM      8  C   UNL     1       6.076   5.196  17.083  0.00  0.00    +0.000 A 
ATOM      9  N   UNL     1       6.387   4.979  15.726  0.00  0.00    +0.000 N 
ATOM     10  C   UNL     1       7.434   5.423  14.907  0.00  0.00    +0.000 A 
ENDROOT
BRANCH   7  11
ATOM     11  C   UNL     1       4.100   4.319  18.509  0.00  0.00    +0.000 A 
ATOM     12  C   UNL     1       3.941   3.027  19.054  0.00  0.00    +0.000 A 
ATOM     13  C   UNL     1       3.221   2.813  20.234  0.00  0.00    +0.000 A 
ATOM     14  C   UNL     1       2.647   3.892  20.886  0.00  0.00    +0.000 A 
ATOM     15  F   UNL     1       1.965   3.695  22.023  0.00  0.00    +0.000 F 
ATOM     16  C   UNL     1       2.775   5.176  20.373  0.00  0.00    +0.000 A 
ATOM     17  C   UNL     1       3.496   5.388  19.187  0.00  0.00    +0.000 A 
ENDBRANCH   7  11
BRANCH   8  18
ATOM     18  O   UNL     1       6.782   5.935  17.971  0.00  0.00    +0.000 OA
BRANCH  18  19
ATOM     19  C   UNL     1       6.995   7.305  17.664  0.00  0.00    +0.000 C 
BRANCH  19  20
ATOM     20  C   UNL     1       8.168   7.982  18.354  0.00  0.00    +0.000 C 
BRANCH  20  21
ATOM     21  N   UNL     1       8.255   9.379  17.962  0.00  0.00    +0.000 NA
ATOM     22  H   UNL     1       7.331   9.809  17.923  0.00  0.00    +0.000 HD
BRANCH  21  23
ATOM     23  C   UNL     1       9.083  10.118  18.902  0.00  0.00    +0.000 C 
BRANCH  23  24
ATOM     24  C   UNL     1       9.625  11.381  18.290  0.00  0.00    +0.000 A 
ATOM     25  C   UNL     1      10.914  11.448  17.735  0.00  0.00    +0.000 A 
ATOM     26  C   UNL     1      11.428  12.654  17.265  0.00  0.00    +0.000 A 
ATOM     27  C   UNL     1      10.667  13.822  17.357  0.00  0.00    +0.000 A 
ATOM     28  C   UNL     1      11.221  15.145  16.939  0.00  0.00    +0.000 C 
ATOM     29  C   UNL     1       9.381  13.746  17.896  0.00  0.00    +0.000 A 
ATOM     30  F   UNL     1       8.637  14.854  17.994  0.00  0.00    +0.000 F 
ATOM     31  C   UNL     1       8.865  12.549  18.362  0.00  0.00    +0.000 A 
ENDBRANCH  23  24
ENDBRANCH  21  23
ENDBRANCH  20  21
ENDBRANCH  19  20
ENDBRANCH  18  19
ENDBRANCH   8  18
TORSDOF 7
ENDMDL
MODEL 5
REMARK VINA RESULT:      -7.7      3.475      6.724
REMARK  Name = 
REMARK  9 active torsions:
REMARK  status: ('A' for Active; 'I' for Inactive)
REMARK    1  A    between atoms: C_1  and  C_2
REMARK    2  A    between atoms: C_7  and  C_8
REMARK    3  A    between atoms: C_15  and  O_16
REMARK    4  A    between atoms: O_16  and  C_17
REMARK    5  A    between atoms: C_17  and  C_18
REMARK    6  A    between atoms: C_18  and  N_19
REMARK    7  A    between atoms: N_19  and  C_20
REMARK    8  A    between atoms: C_20  and  C_21
REMARK    9  A    between atoms: C_24  and  C_25
REMARK                            x       y       z     vdW  Elec       q    Type
REMARK                         _______ _______ _______ _____ _____    ______ ____
ROOT
ATOM      1  C   UNL     1       4.771   1.119  20.009  0.00  0.00    +0.000 C 
ATOM      2  C   UNL     1       3.945   2.356  20.199  0.00  0.00    +0.000 A 
ATOM      3  C   UNL     1       2.915   2.456  21.209  0.00  0.00    +0.000 A 
ATOM      4  C   UNL     1       2.186   3.585  21.350  0.00  0.00    +0.000 A 
ATOM      5  C   UNL     1       2.418   4.710  20.501  0.00  0.00    +0.000 A 
ATOM      6  N   UNL     1       1.830   5.881  20.465  0.00  0.00    +0.000 NA
ATOM      7  C   UNL     1       2.450   6.593  19.454  0.00  0.00    +0.000 A 
ATOM      8  C   UNL     1       3.453   5.830  18.845  0.00  0.00    +0.000 A 
ATOM      9  N   UNL     1       3.414   4.601  19.534  0.00  0.00    +0.000 N 
ATOM     10  C   UNL     1       4.150   3.415  19.406  0.00  0.00    +0.000 A 
ENDROOT
BRANCH   7  11
ATOM     11  C   UNL     1       2.036   7.974  19.165  0.00  0.00    +0.000 A 
ATOM     12  C   UNL     1       1.331   8.693  20.154  0.00  0.00    +0.000 A 
ATOM     13  C   UNL     1       0.931  10.018  19.950  0.00  0.00    +0.000 A 
ATOM     14  C   UNL     1       1.229  10.643  18.751  0.00  0.00    +0.000 A 
ATOM     15  F   UNL     1       0.858  11.915  18.554  0.00  0.00    +0.000 F 
ATOM     16  C   UNL     1       1.913   9.962  17.752  0.00  0.00    +0.000 A 
ATOM     17  C   UNL     1       2.311   8.632  17.957  0.00  0.00    +0.000 A 
ENDBRANCH   7  11
BRANCH   8  18
ATOM     18  O   UNL     1       4.284   6.168  17.832  0.00  0.00    +0.000 OA
BRANCH  18  19
ATOM     19  C   UNL     1       5.540   6.737  18.173  0.00  0.00    +0.000 C 
BRANCH  19  20
ATOM     20  C   UNL     1       6.674   5.764  18.451  0.00  0.00    +0.000 C 
BRANCH  20  21
ATOM     21  N   UNL     1       6.922   4.923  17.291  0.00  0.00    +0.000 NA
ATOM     22  H   UNL     1       6.164   4.256  17.152  0.00  0.00    +0.000 HD
BRANCH  21  23
ATOM     23  C   UNL     1       7.063   5.739  16.095  0.00  0.00    +0.000 C 
BRANCH  23  24
ATOM     24  C   UNL     1       6.518   5.040  14.880  0.00  0.00    +0.000 A 
ATOM     25  C   UNL     1       5.240   4.459  14.865  0.00  0.00    +0.000 A 
ATOM     26  C   UNL     1       4.798   3.730  13.763  0.00  0.00    +0.000 A 
ATOM     27  C   UNL     1       5.637   3.556  12.658  0.00  0.00    +0.000 A 
ATOM     28  C   UNL     1       5.226   2.711  11.497  0.00  0.00    +0.000 C 
ATOM     29  C   UNL     1       6.901   4.148  12.674  0.00  0.00    +0.000 A 
ATOM     30  F   UNL     1       7.719   3.990  11.627  0.00  0.00    +0.000 F 
ATOM     31  C   UNL     1       7.343   4.875  13.766  0.00  0.00    +0.000 A 
ENDBRANCH  23  24
ENDBRANCH  21  23
ENDBRANCH  20  21
ENDBRANCH  19  20
ENDBRANCH  18  19
ENDBRANCH   8  18
TORSDOF 7
ENDMDL
MODEL 6
REMARK VINA RESULT:      -7.6      5.788      8.275
REMARK  Name = 
REMARK  9 active torsions:
REMARK  status: ('A' for Active; 'I' for Inactive)
REMARK    1  A    between atoms: C_1  and  C_2
REMARK    2  A    between atoms: C_7  and  C_8
REMARK    3  A    between atoms: C_15  and  O_16
REMARK    4  A    between atoms: O_16  and  C_17
REMARK    5  A    between atoms: C_17  and  C_18
REMARK    6  A    between atoms: C_18  and  N_19
REMARK    7  A    between atoms: N_19  and  C_20
REMARK    8  A    between atoms: C_20  and  C_21
REMARK    9  A    between atoms: C_24  and  C_25
REMARK                            x       y       z     vdW  Elec       q    Type
REMARK                         _______ _______ _______ _____ _____    ______ ____
ROOT
ATOM      1  C   UNL     1       8.409   9.406  17.662  0.00  0.00    +0.000 C 
ATOM      2  C   UNL     1       7.772   8.097  18.019  0.00  0.00    +0.000 A 
ATOM      3  C   UNL     1       8.499   7.026  18.663  0.00  0.00    +0.000 A 
ATOM      4  C   UNL     1       7.893   5.857  18.966  0.00  0.00    +0.000 A 
ATOM      5  C   UNL     1       6.515   5.651  18.656  0.00  0.00    +0.000 A 
ATOM      6  N   UNL     1       5.746   4.608  18.855  0.00  0.00    +0.000 NA
ATOM      7  C   UNL     1       4.498   4.951  18.369  0.00  0.00    +0.000 A 
ATOM      8  C   UNL     1       4.499   6.250  17.850  0.00  0.00    +0.000 A 
ATOM      9  N   UNL     1       5.825   6.691  18.037  0.00  0.00    +0.000 N 
ATOM     10  C   UNL     1       6.481   7.891  17.728  0.00  0.00    +0.000 A 
ENDROOT
BRANCH   7  11
ATOM     11  C   UNL     1       3.383   3.994  18.463  0.00  0.00    +0.000 A 
ATOM     12  C   UNL     1       2.300   4.295  19.315  0.00  0.00    +0.000 A 
ATOM     13  C   UNL     1       1.199   3.440  19.429  0.00  0.00    +0.000 A 
ATOM     14  C   UNL     1       1.167   2.269  18.692  0.00  0.00    +0.000 A 
ATOM     15  F   UNL     1       0.111   1.450  18.789  0.00  0.00    +0.000 F 
ATOM     16  C   UNL     1       2.222   1.935  17.852  0.00  0.00    +0.000 A 
ATOM     17  C   UNL     1       3.327   2.794  17.740  0.00  0.00    +0.000 A 
ENDBRANCH   7  11
BRANCH   8  18
ATOM     18  O   UNL     1       3.481   6.948  17.295  0.00  0.00    +0.000 OA
BRANCH  18  19
ATOM     19  C   UNL     1       2.525   7.527  18.172  0.00  0.00    +0.000 C 
BRANCH  19  20
ATOM     20  C   UNL     1       2.101   8.954  17.868  0.00  0.00    +0.000 C 
BRANCH  20  21
ATOM     21  N   UNL     1       1.050   9.379  18.779  0.00  0.00    +0.000 NA
ATOM     22  H   UNL     1       1.344   9.282  19.751  0.00  0.00    +0.000 HD
BRANCH  21  23
ATOM     23  C   UNL     1       0.694  10.767  18.528  0.00  0.00    +0.000 C 
BRANCH  23  24
ATOM     24  C   UNL     1      -0.786  10.929  18.311  0.00  0.00    +0.000 A 
ATOM     25  C   UNL     1      -1.553  11.843  19.052  0.00  0.00    +0.000 A 
ATOM     26  C   UNL     1      -2.937  11.902  18.902  0.00  0.00    +0.000 A 
ATOM     27  C   UNL     1      -3.583  11.032  18.019  0.00  0.00    +0.000 A 
ATOM     28  C   UNL     1      -5.071  11.012  17.898  0.00  0.00    +0.000 C 
ATOM     29  C   UNL     1      -2.813  10.135  17.276  0.00  0.00    +0.000 A 
ATOM     30  F   UNL     1      -3.412   9.292  16.427  0.00  0.00    +0.000 F 
ATOM     31  C   UNL     1      -1.437  10.075  17.419  0.00  0.00    +0.000 A 
ENDBRANCH  23  24
ENDBRANCH  21  23
ENDBRANCH  20  21
ENDBRANCH  19  20
ENDBRANCH  18  19
ENDBRANCH   8  18
TORSDOF 7
ENDMDL
MODEL 7
REMARK VINA RESULT:      -7.6      8.580     11.323
REMARK  Name = 
REMARK  9 active torsions:
REMARK  status: ('A' for Active; 'I' for Inactive)
REMARK    1  A    between atoms: C_1  and  C_2
REMARK    2  A    between atoms: C_7  and  C_8
REMARK    3  A    between atoms: C_15  and  O_16
REMARK    4  A    between atoms: O_16  and  C_17
REMARK    5  A    between atoms: C_17  and  C_18
REMARK    6  A    between atoms: C_18  and  N_19
REMARK    7  A    between atoms: N_19  and  C_20
REMARK    8  A    between atoms: C_20  and  C_21
REMARK    9  A    between atoms: C_24  and  C_25
REMARK                            x       y       z     vdW  Elec       q    Type
REMARK                         _______ _______ _______ _____ _____    ______ ____
ROOT
ATOM      1  C   UNL     1      -2.732   9.458  14.915  0.00  0.00    +0.000 C 
ATOM      2  C   UNL     1      -3.034  10.299  16.119  0.00  0.00    +0.000 A 
ATOM      3  C   UNL     1      -4.286  11.005  16.282  0.00  0.00    +0.000 A 
ATOM      4  C   UNL     1      -4.522  11.759  17.378  0.00  0.00    +0.000 A 
ATOM      5  C   UNL     1      -3.537  11.875  18.406  0.00  0.00    +0.000 A 
ATOM      6  N   UNL     1      -3.560  12.547  19.531  0.00  0.00    +0.000 NA
ATOM      7  C   UNL     1      -2.348  12.303  20.150  0.00  0.00    +0.000 A 
ATOM      8  C   UNL     1      -1.550  11.452  19.377  0.00  0.00    +0.000 A 
ATOM      9  N   UNL     1      -2.337  11.189  18.238  0.00  0.00    +0.000 N 
ATOM     10  C   UNL     1      -2.116  10.419  17.086  0.00  0.00    +0.000 A 
ENDROOT
BRANCH   7  11
ATOM     11  C   UNL     1      -2.058  12.900  21.463  0.00  0.00    +0.000 A 
ATOM     12  C   UNL     1      -1.423  14.159  21.512  0.00  0.00    +0.000 A 
ATOM     13  C   UNL     1      -1.143  14.791  22.728  0.00  0.00    +0.000 A 
ATOM     14  C   UNL     1      -1.494  14.170  23.915  0.00  0.00    +0.000 A 
ATOM     15  F   UNL     1      -1.239  14.776  25.083  0.00  0.00    +0.000 F 
ATOM     16  C   UNL     1      -2.111  12.926  23.905  0.00  0.00    +0.000 A 
ATOM     17  C   UNL     1      -2.389  12.292  22.683  0.00  0.00    +0.000 A 
ENDBRANCH   7  11
BRANCH   8  18
ATOM     18  O   UNL     1      -0.310  10.975  19.637  0.00  0.00    +0.000 OA
BRANCH  18  19
ATOM     19  C   UNL     1      -0.213   9.746  20.342  0.00  0.00    +0.000 C 
BRANCH  19  20
ATOM     20  C   UNL     1       1.041   9.538  21.175  0.00  0.00    +0.000 C 
BRANCH  20  21
ATOM     21  N   UNL     1       1.427   8.136  21.175  0.00  0.00    +0.000 NA
ATOM     22  H   UNL     1       0.612   7.530  21.261  0.00  0.00    +0.000 HD
BRANCH  21  23
ATOM     23  C   UNL     1       2.138   7.807  19.949  0.00  0.00    +0.000 C 
BRANCH  23  24
ATOM     24  C   UNL     1       2.008   6.348  19.609  0.00  0.00    +0.000 A 
ATOM     25  C   UNL     1       2.233   5.862  18.310  0.00  0.00    +0.000 A 
ATOM     26  C   UNL     1       2.008   4.523  17.999  0.00  0.00    +0.000 A 
ATOM     27  C   UNL     1       1.537   3.646  18.979  0.00  0.00    +0.000 A 
ATOM     28  C   UNL     1       1.206   2.225  18.657  0.00  0.00    +0.000 C 
ATOM     29  C   UNL     1       1.328   4.132  20.272  0.00  0.00    +0.000 A 
ATOM     30  F   UNL     1       0.875   3.309  21.224  0.00  0.00    +0.000 F 
ATOM     31  C   UNL     1       1.553   5.462  20.586  0.00  0.00    +0.000 A 
ENDBRANCH  23  24
ENDBRANCH  21  23
ENDBRANCH  20  21
ENDBRANCH  19  20
ENDBRANCH  18  19
ENDBRANCH   8  18
TORSDOF 7
ENDMDL
MODEL 8
REMARK VINA RESULT:      -7.6      5.434      7.708
REMARK  Name = 
REMARK  9 active torsions:
REMARK  status: ('A' for Active; 'I' for Inactive)
REMARK    1  A    between atoms: C_1  and  C_2
REMARK    2  A    between atoms: C_7  and  C_8
REMARK    3  A    between atoms: C_15  and  O_16
REMARK    4  A    between atoms: O_16  and  C_17
REMARK    5  A    between atoms: C_17  and  C_18
REMARK    6  A    between atoms: C_18  and  N_19
REMARK    7  A    between atoms: N_19  and  C_20
REMARK    8  A    between atoms: C_20  and  C_21
REMARK    9  A    between atoms: C_24  and  C_25
REMARK                            x       y       z     vdW  Elec       q    Type
REMARK                         _______ _______ _______ _____ _____    ______ ____
ROOT
ATOM      1  C   UNL     1       8.562   9.305  17.656  0.00  0.00    +0.000 C 
ATOM      2  C   UNL     1       7.870   8.039  18.061  0.00  0.00    +0.000 A 
ATOM      3  C   UNL     1       8.513   7.022  18.864  0.00  0.00    +0.000 A 
ATOM      4  C   UNL     1       7.859   5.890  19.206  0.00  0.00    +0.000 A 
ATOM      5  C   UNL     1       6.514   5.671  18.782  0.00  0.00    +0.000 A 
ATOM      6  N   UNL     1       5.710   4.657  18.995  0.00  0.00    +0.000 NA
ATOM      7  C   UNL     1       4.521   4.968  18.363  0.00  0.00    +0.000 A 
ATOM      8  C   UNL     1       4.596   6.216  17.735  0.00  0.00    +0.000 A 
ATOM      9  N   UNL     1       5.905   6.659  18.011  0.00  0.00    +0.000 N 
ATOM     10  C   UNL     1       6.609   7.821  17.665  0.00  0.00    +0.000 A 
ENDROOT
BRANCH   7  11
ATOM     11  C   UNL     1       3.386   4.034  18.430  0.00  0.00    +0.000 A 
ATOM     12  C   UNL     1       2.305   4.339  19.285  0.00  0.00    +0.000 A 
ATOM     13  C   UNL     1       1.185   3.506  19.375  0.00  0.00    +0.000 A 
ATOM     14  C   UNL     1       1.132   2.353  18.611  0.00  0.00    +0.000 A 
ATOM     15  F   UNL     1       0.057   1.555  18.685  0.00  0.00    +0.000 F 
ATOM     16  C   UNL     1       2.182   2.015  17.767  0.00  0.00    +0.000 A 
ATOM     17  C   UNL     1       3.306   2.852  17.680  0.00  0.00    +0.000 A 
ENDBRANCH   7  11
BRANCH   8  18
ATOM     18  O   UNL     1       3.649   6.872  17.025  0.00  0.00    +0.000 OA
BRANCH  18  19
ATOM     19  C   UNL     1       3.134   8.078  17.572  0.00  0.00    +0.000 C 
BRANCH  19  20
ATOM     20  C   UNL     1       1.707   8.033  18.092  0.00  0.00    +0.000 C 
BRANCH  20  21
ATOM     21  N   UNL     1       1.452   9.153  18.984  0.00  0.00    +0.000 NA
ATOM     22  H   UNL     1       0.596   9.642  18.725  0.00  0.00    +0.000 HD
BRANCH  21  23
ATOM     23  C   UNL     1       1.338   8.689  20.359  0.00  0.00    +0.000 C 
BRANCH  23  24
ATOM     24  C   UNL     1       0.472   9.603  21.181  0.00  0.00    +0.000 A 
ATOM     25  C   UNL     1       0.164   9.330  22.524  0.00  0.00    +0.000 A 
ATOM     26  C   UNL     1      -0.721  10.139  23.233  0.00  0.00    +0.000 A 
ATOM     27  C   UNL     1      -1.329  11.230  22.606  0.00  0.00    +0.000 A 
ATOM     28  C   UNL     1      -2.345  12.066  23.312  0.00  0.00    +0.000 C 
ATOM     29  C   UNL     1      -1.008  11.504  21.274  0.00  0.00    +0.000 A 
ATOM     30  F   UNL     1      -1.580  12.542  20.655  0.00  0.00    +0.000 F 
ATOM     31  C   UNL     1      -0.126  10.704  20.567  0.00  0.00    +0.000 A 
ENDBRANCH  23  24
ENDBRANCH  21  23
ENDBRANCH  20  21
ENDBRANCH  19  20
ENDBRANCH  18  19
ENDBRANCH   8  18
TORSDOF 7
ENDMDL
MODEL 9
REMARK VINA RESULT:      -7.6      3.522      4.353
REMARK  Name = 
REMARK  9 active torsions:
REMARK  status: ('A' for Active; 'I' for Inactive)
REMARK    1  A    between atoms: C_1  and  C_2
REMARK    2  A    between atoms: C_7  and  C_8
REMARK    3  A    between atoms: C_15  and  O_16
REMARK    4  A    between atoms: O_16  and  C_17
REMARK    5  A    between atoms: C_17  and  C_18
REMARK    6  A    between atoms: C_18  and  N_19
REMARK    7  A    between atoms: N_19  and  C_20
REMARK    8  A    between atoms: C_20  and  C_21
REMARK    9  A    between atoms: C_24  and  C_25
REMARK                            x       y       z     vdW  Elec       q    Type
REMARK                         _______ _______ _______ _____ _____    ______ ____
ROOT
ATOM      1  C   UNL     1       1.772   2.506  21.958  0.00  0.00    +0.000 C 
ATOM      2  C   UNL     1       2.076   2.673  20.499  0.00  0.00    +0.000 A 
ATOM      3  C   UNL     1       1.104   2.398  19.465  0.00  0.00    +0.000 A 
ATOM      4  C   UNL     1       1.414   2.555  18.159  0.00  0.00    +0.000 A 
ATOM      5  C   UNL     1       2.714   2.999  17.769  0.00  0.00    +0.000 A 
ATOM      6  N   UNL     1       3.217   3.210  16.577  0.00  0.00    +0.000 NA
ATOM      7  C   UNL     1       4.516   3.639  16.777  0.00  0.00    +0.000 A 
ATOM      8  C   UNL     1       4.824   3.691  18.141  0.00  0.00    +0.000 A 
ATOM      9  N   UNL     1       3.640   3.263  18.775  0.00  0.00    +0.000 N 
ATOM     10  C   UNL     1       3.293   3.085  20.122  0.00  0.00    +0.000 A 
ENDROOT
BRANCH   7  11
ATOM     11  C   UNL     1       5.362   3.988  15.625  0.00  0.00    +0.000 A 
ATOM     12  C   UNL     1       6.513   4.775  15.841  0.00  0.00    +0.000 A 
ATOM     13  C   UNL     1       7.372   5.119  14.793  0.00  0.00    +0.000 A 
ATOM     14  C   UNL     1       7.089   4.682  13.510  0.00  0.00    +0.000 A 
ATOM     15  F   UNL     1       7.914   5.000  12.502  0.00  0.00    +0.000 F 
ATOM     16  C   UNL     1       5.959   3.915  13.258  0.00  0.00    +0.000 A 
ATOM     17  C   UNL     1       5.097   3.572  14.312  0.00  0.00    +0.000 A 
ENDBRANCH   7  11
BRANCH   8  18
ATOM     18  O   UNL     1       5.978   4.065  18.742  0.00  0.00    +0.000 OA
BRANCH  18  19
ATOM     19  C   UNL     1       6.130   5.435  19.080  0.00  0.00    +0.000 C 
BRANCH  19  20
ATOM     20  C   UNL     1       4.852   6.219  19.331  0.00  0.00    +0.000 C 
BRANCH  20  21
ATOM     21  N   UNL     1       4.422   6.897  18.120  0.00  0.00    +0.000 NA
ATOM     22  H   UNL     1       4.870   6.497  17.295  0.00  0.00    +0.000 HD
BRANCH  21  23
ATOM     23  C   UNL     1       2.978   6.799  17.970  0.00  0.00    +0.000 C 
BRANCH  23  24
ATOM     24  C   UNL     1       2.264   7.826  18.805  0.00  0.00    +0.000 A 
ATOM     25  C   UNL     1       1.910   7.584  20.143  0.00  0.00    +0.000 A 
ATOM     26  C   UNL     1       1.161   8.512  20.863  0.00  0.00    +0.000 A 
ATOM     27  C   UNL     1       0.736   9.695  20.252  0.00  0.00    +0.000 A 
ATOM     28  C   UNL     1      -0.138  10.671  20.969  0.00  0.00    +0.000 C 
ATOM     29  C   UNL     1       1.103   9.935  18.926  0.00  0.00    +0.000 A 
ATOM     30  F   UNL     1       0.705  11.061  18.322  0.00  0.00    +0.000 F 
ATOM     31  C   UNL     1       1.851   9.017  18.207  0.00  0.00    +0.000 A 
ENDBRANCH  23  24
ENDBRANCH  21  23
ENDBRANCH  20  21
ENDBRANCH  19  20
ENDBRANCH  18  19
ENDBRANCH   8  18
TORSDOF 7
ENDMDL
