MODEL 1
REMARK VINA RESULT:      -7.3      0.000      0.000
REMARK  Name = 
REMARK  11 active torsions:
REMARK  status: ('A' for Active; 'I' for Inactive)
REMARK    1  A    between atoms: C_1  and  C_2
REMARK    2  A    between atoms: C_2  and  N_3
REMARK    3  A    between atoms: N_3  and  C_4
REMARK    4  A    between atoms: N_3  and  C_6
REMARK    5  A    between atoms: C_4  and  C_5
REMARK    6  A    between atoms: C_6  and  C_7
REMARK    7  A    between atoms: C_7  and  O_8
REMARK    8  A    between atoms: O_8  and  C_9
REMARK    9  A    between atoms: N_16  and  C_17
REMARK   10  A    between atoms: C_27  and  O_28
REMARK   11  A    between atoms: O_28  and  C_29
REMARK                            x       y       z     vdW  Elec       q    Type
REMARK                         _______ _______ _______ _____ _____    ______ ____
ROOT
ATOM      1  C   UNL     1       4.765   4.651  16.430  0.00  0.00    +0.000 A 
ATOM      2  C   UNL     1       3.731   3.954  17.082  0.00  0.00    +0.000 A 
ATOM      3  C   UNL     1       3.002   4.485  18.136  0.00  0.00    +0.000 A 
ATOM      4  N   UNL     1       2.042   3.753  18.717  0.00  0.00    +0.000 NA
ATOM      5  C   UNL     1       1.353   4.328  19.706  0.00  0.00    +0.000 A 
ATOM      6  N   UNL     1       1.523   5.578  20.150  0.00  0.00    +0.000 NA
ATOM      7  C   UNL     1       2.494   6.307  19.567  0.00  0.00    +0.000 A 
ATOM      8  N   UNL     1       2.657   7.661  19.952  0.00  0.00    +0.000 N 
ATOM      9  C   UNL     1       3.300   5.787  18.546  0.00  0.00    +0.000 A 
ATOM     10  C   UNL     1       4.335   6.503  17.897  0.00  0.00    +0.000 A 
ATOM     11  C   UNL     1       5.044   5.960  16.826  0.00  0.00    +0.000 A 
ATOM     12  H   UNL     1       3.580   7.821  20.348  0.00  0.00    +0.000 HD
ENDROOT
BRANCH   8  13
ATOM     13  C   UNL     1       1.657   8.446  20.564  0.00  0.00    +0.000 A 
ATOM     14  C   UNL     1       1.500   8.449  21.957  0.00  0.00    +0.000 A 
ATOM     15  C   UNL     1       0.565   9.281  22.570  0.00  0.00    +0.000 A 
ATOM     16  C   UNL     1      -0.238  10.105  21.786  0.00  0.00    +0.000 A 
ATOM     17 BR   UNL     1      -1.433  11.305  22.625  0.00  0.00    +0.000 Br
ATOM     18  C   UNL     1      -0.151  10.070  20.397  0.00  0.00    +0.000 A 
ATOM     19  C   UNL     1       0.788   9.231  19.799  0.00  0.00    +0.000 A 
ATOM     20  F   UNL     1       0.879   9.205  18.460  0.00  0.00    +0.000 F 
ENDBRANCH   8  13
BRANCH  11  21
ATOM     21  O   UNL     1       6.031   6.779  16.352  0.00  0.00    +0.000 OA
ATOM     22  C   UNL     1       7.146   6.966  17.220  0.00  0.00    +0.000 C 
ENDBRANCH  11  21
BRANCH   1  23
ATOM     23  O   UNL     1       5.375   3.888  15.472  0.00  0.00    +0.000 OA
BRANCH  23  24
ATOM     24  C   UNL     1       5.532   4.436  14.166  0.00  0.00    +0.000 C 
BRANCH  24  25
ATOM     25  C   UNL     1       6.327   3.478  13.277  0.00  0.00    +0.000 C 
BRANCH  25  26
ATOM     26  N   UNL     1       5.489   2.768  12.287  0.00  0.00    +0.000 NA
BRANCH  26  28
ATOM     27  C   UNL     1       3.617   3.104  10.640  0.00  0.00    +0.000 C 
ATOM     28  C   UNL     1       4.429   3.664  11.803  0.00  0.00    +0.000 C 
ENDBRANCH  26  28
BRANCH  26  29
ATOM     29  C   UNL     1       6.240   2.078  11.229  0.00  0.00    +0.000 C 
ATOM     30  C   UNL     1       6.269   0.557  11.303  0.00  0.00    +0.000 C 
ENDBRANCH  26  29
ENDBRANCH  25  26
ENDBRANCH  24  25
ENDBRANCH  23  24
ENDBRANCH   1  23
TORSDOF 8
ENDMDL
MODEL 2
REMARK VINA RESULT:      -7.3      0.460      1.306
REMARK  Name = 
REMARK  11 active torsions:
REMARK  status: ('A' for Active; 'I' for Inactive)
REMARK    1  A    between atoms: C_1  and  C_2
REMARK    2  A    between atoms: C_2  and  N_3
REMARK    3  A    between atoms: N_3  and  C_4
REMARK    4  A    between atoms: N_3  and  C_6
REMARK    5  A    between atoms: C_4  and  C_5
REMARK    6  A    between atoms: C_6  and  C_7
REMARK    7  A    between atoms: C_7  and  O_8
REMARK    8  A    between atoms: O_8  and  C_9
REMARK    9  A    between atoms: N_16  and  C_17
REMARK   10  A    between atoms: C_27  and  O_28
REMARK   11  A    between atoms: O_28  and  C_29
REMARK                            x       y       z     vdW  Elec       q    Type
REMARK                         _______ _______ _______ _____ _____    ______ ____
ROOT
ATOM      1  C   UNL     1       4.996   4.552  16.194  0.00  0.00    +0.000 A 
ATOM      2  C   UNL     1       3.892   3.868  16.738  0.00  0.00    +0.000 A 
ATOM      3  C   UNL     1       3.118   4.373  17.772  0.00  0.00    +0.000 A 
ATOM      4  N   UNL     1       2.092   3.653  18.248  0.00  0.00    +0.000 NA
ATOM      5  C   UNL     1       1.364   4.204  19.223  0.00  0.00    +0.000 A 
ATOM      6  N   UNL     1       1.557   5.418  19.749  0.00  0.00    +0.000 NA
ATOM      7  C   UNL     1       2.594   6.134  19.272  0.00  0.00    +0.000 A 
ATOM      8  N   UNL     1       2.787   7.456  19.744  0.00  0.00    +0.000 N 
ATOM      9  C   UNL     1       3.443   5.635  18.275  0.00  0.00    +0.000 A 
ATOM     10  C   UNL     1       4.547   6.338  17.736  0.00  0.00    +0.000 A 
ATOM     11  C   UNL     1       5.302   5.824  16.682  0.00  0.00    +0.000 A 
ATOM     12  H   UNL     1       3.688   7.552  20.206  0.00  0.00    +0.000 HD
ENDROOT
BRANCH   8  13
ATOM     13  C   UNL     1       1.782   8.250  20.337  0.00  0.00    +0.000 A 
ATOM     14  C   UNL     1       1.588   8.243  21.725  0.00  0.00    +0.000 A 
ATOM     15  C   UNL     1       0.649   9.083  22.320  0.00  0.00    +0.000 A 
ATOM     16  C   UNL     1      -0.120   9.927  21.523  0.00  0.00    +0.000 A 
ATOM     17 BR   UNL     1      -1.319  11.137  22.340  0.00  0.00    +0.000 Br
ATOM     18  C   UNL     1       0.004   9.902  20.136  0.00  0.00    +0.000 A 
ATOM     19  C   UNL     1       0.946   9.055  19.556  0.00  0.00    +0.000 A 
ATOM     20  F   UNL     1       1.073   9.040  18.220  0.00  0.00    +0.000 F 
ENDBRANCH   8  13
BRANCH  11  21
ATOM     21  O   UNL     1       6.351   6.622  16.320  0.00  0.00    +0.000 OA
ATOM     22  C   UNL     1       6.892   7.437  17.358  0.00  0.00    +0.000 C 
ENDBRANCH  11  21
BRANCH   1  23
ATOM     23  O   UNL     1       5.635   3.817  15.234  0.00  0.00    +0.000 OA
BRANCH  23  24
ATOM     24  C   UNL     1       5.581   4.270  13.884  0.00  0.00    +0.000 C 
BRANCH  24  25
ATOM     25  C   UNL     1       6.242   3.252  12.953  0.00  0.00    +0.000 C 
BRANCH  25  26
ATOM     26  N   UNL     1       5.475   3.010  11.712  0.00  0.00    +0.000 NA
BRANCH  26  28
ATOM     27  C   UNL     1       7.132   1.302  10.895  0.00  0.00    +0.000 C 
ATOM     28  C   UNL     1       5.688   1.628  11.260  0.00  0.00    +0.000 C 
ENDBRANCH  26  28
BRANCH  26  29
ATOM     29  C   UNL     1       4.067   3.427  11.769  0.00  0.00    +0.000 C 
ATOM     30  C   UNL     1       3.268   3.288  10.479  0.00  0.00    +0.000 C 
ENDBRANCH  26  29
ENDBRANCH  25  26
ENDBRANCH  24  25
ENDBRANCH  23  24
ENDBRANCH   1  23
TORSDOF 8
ENDMDL
MODEL 3
REMARK VINA RESULT:      -7.2      0.943      1.504
REMARK  Name = 
REMARK  11 active torsions:
REMARK  status: ('A' for Active; 'I' for Inactive)
REMARK    1  A    between atoms: C_1  and  C_2
REMARK    2  A    between atoms: C_2  and  N_3
REMARK    3  A    between atoms: N_3  and  C_4
REMARK    4  A    between atoms: N_3  and  C_6
REMARK    5  A    between atoms: C_4  and  C_5
REMARK    6  A    between atoms: C_6  and  C_7
REMARK    7  A    between atoms: C_7  and  O_8
REMARK    8  A    between atoms: O_8  and  C_9
REMARK    9  A    between atoms: N_16  and  C_17
REMARK   10  A    between atoms: C_27  and  O_28
REMARK   11  A    between atoms: O_28  and  C_29
REMARK                            x       y       z     vdW  Elec       q    Type
REMARK                         _______ _______ _______ _____ _____    ______ ____
ROOT
ATOM      1  C   UNL     1       4.528   4.603  17.080  0.00  0.00    +0.000 A 
ATOM      2  C   UNL     1       3.524   3.948  17.818  0.00  0.00    +0.000 A 
ATOM      3  C   UNL     1       2.794   4.563  18.823  0.00  0.00    +0.000 A 
ATOM      4  N   UNL     1       1.864   3.867  19.492  0.00  0.00    +0.000 NA
ATOM      5  C   UNL     1       1.171   4.520  20.428  0.00  0.00    +0.000 A 
ATOM      6  N   UNL     1       1.310   5.814  20.739  0.00  0.00    +0.000 NA
ATOM      7  C   UNL     1       2.250   6.507  20.069  0.00  0.00    +0.000 A 
ATOM      8  N   UNL     1       2.377   7.897  20.311  0.00  0.00    +0.000 N 
ATOM      9  C   UNL     1       3.058   5.908  19.093  0.00  0.00    +0.000 A 
ATOM     10  C   UNL     1       4.061   6.583  18.358  0.00  0.00    +0.000 A 
ATOM     11  C   UNL     1       4.772   5.954  17.336  0.00  0.00    +0.000 A 
ATOM     12  H   UNL     1       3.300   8.124  20.672  0.00  0.00    +0.000 HD
ENDROOT
BRANCH   8  13
ATOM     13  C   UNL     1       1.362   8.712  20.856  0.00  0.00    +0.000 A 
ATOM     14  C   UNL     1       1.176   8.793  22.243  0.00  0.00    +0.000 A 
ATOM     15  C   UNL     1       0.225   9.655  22.787  0.00  0.00    +0.000 A 
ATOM     16  C   UNL     1      -0.563  10.430  21.941  0.00  0.00    +0.000 A 
ATOM     17 BR   UNL     1      -1.779  11.671  22.684  0.00  0.00    +0.000 Br
ATOM     18  C   UNL     1      -0.447  10.316  20.558  0.00  0.00    +0.000 A 
ATOM     19  C   UNL     1       0.507   9.448  20.029  0.00  0.00    +0.000 A 
ATOM     20  F   UNL     1       0.626   9.346  18.696  0.00  0.00    +0.000 F 
ENDBRANCH   8  13
BRANCH  11  21
ATOM     21  O   UNL     1       5.728   6.748  16.765  0.00  0.00    +0.000 OA
ATOM     22  C   UNL     1       7.061   6.532  17.220  0.00  0.00    +0.000 C 
ENDBRANCH  11  21
BRANCH   1  23
ATOM     23  O   UNL     1       5.148   3.764  16.195  0.00  0.00    +0.000 OA
BRANCH  23  24
ATOM     24  C   UNL     1       4.947   3.979  14.802  0.00  0.00    +0.000 C 
BRANCH  24  25
ATOM     25  C   UNL     1       6.286   3.959  14.060  0.00  0.00    +0.000 C 
BRANCH  25  26
ATOM     26  N   UNL     1       6.141   4.059  12.592  0.00  0.00    +0.000 NA
BRANCH  26  28
ATOM     27  C   UNL     1       8.164   5.550  12.725  0.00  0.00    +0.000 C 
ATOM     28  C   UNL     1       7.431   4.431  11.993  0.00  0.00    +0.000 C 
ENDBRANCH  26  28
BRANCH  26  29
ATOM     29  C   UNL     1       5.481   2.909  11.960  0.00  0.00    +0.000 C 
ATOM     30  C   UNL     1       4.172   3.196  11.235  0.00  0.00    +0.000 C 
ENDBRANCH  26  29
ENDBRANCH  25  26
ENDBRANCH  24  25
ENDBRANCH  23  24
ENDBRANCH   1  23
TORSDOF 8
ENDMDL
MODEL 4
REMARK VINA RESULT:      -7.2      0.948      1.456
REMARK  Name = 
REMARK  11 active torsions:
REMARK  status: ('A' for Active; 'I' for Inactive)
REMARK    1  A    between atoms: C_1  and  C_2
REMARK    2  A    between atoms: C_2  and  N_3
REMARK    3  A    between atoms: N_3  and  C_4
REMARK    4  A    between atoms: N_3  and  C_6
REMARK    5  A    between atoms: C_4  and  C_5
REMARK    6  A    between atoms: C_6  and  C_7
REMARK    7  A    between atoms: C_7  and  O_8
REMARK    8  A    between atoms: O_8  and  C_9
REMARK    9  A    between atoms: N_16  and  C_17
REMARK   10  A    between atoms: C_27  and  O_28
REMARK   11  A    between atoms: O_28  and  C_29
REMARK                            x       y       z     vdW  Elec       q    Type
REMARK                         _______ _______ _______ _____ _____    ______ ____
ROOT
ATOM      1  C   UNL     1       4.170   4.417  16.856  0.00  0.00    +0.000 A 
ATOM      2  C   UNL     1       3.223   3.780  17.680  0.00  0.00    +0.000 A 
ATOM      3  C   UNL     1       2.578   4.415  18.730  0.00  0.00    +0.000 A 
ATOM      4  N   UNL     1       1.699   3.736  19.480  0.00  0.00    +0.000 NA
ATOM      5  C   UNL     1       1.086   4.409  20.457  0.00  0.00    +0.000 A 
ATOM      6  N   UNL     1       1.257   5.705  20.738  0.00  0.00    +0.000 NA
ATOM      7  C   UNL     1       2.146   6.381  19.985  0.00  0.00    +0.000 A 
ATOM      8  N   UNL     1       2.301   7.774  20.195  0.00  0.00    +0.000 N 
ATOM      9  C   UNL     1       2.871   5.762  18.958  0.00  0.00    +0.000 A 
ATOM     10  C   UNL     1       3.818   6.419  18.136  0.00  0.00    +0.000 A 
ATOM     11  C   UNL     1       4.443   5.769  17.071  0.00  0.00    +0.000 A 
ATOM     12  H   UNL     1       3.251   7.998  20.480  0.00  0.00    +0.000 HD
ENDROOT
BRANCH   8  13
ATOM     13  C   UNL     1       1.337   8.604  20.806  0.00  0.00    +0.000 A 
ATOM     14  C   UNL     1       1.178   8.613  22.199  0.00  0.00    +0.000 A 
ATOM     15  C   UNL     1       0.282   9.487  22.811  0.00  0.00    +0.000 A 
ATOM     16  C   UNL     1      -0.481  10.349  22.026  0.00  0.00    +0.000 A 
ATOM     17 BR   UNL     1      -1.620  11.603  22.863  0.00  0.00    +0.000 Br
ATOM     18  C   UNL     1      -0.393  10.310  20.636  0.00  0.00    +0.000 A 
ATOM     19  C   UNL     1       0.507   9.429  20.040  0.00  0.00    +0.000 A 
ATOM     20  F   UNL     1       0.600   9.400  18.701  0.00  0.00    +0.000 F 
ENDBRANCH   8  13
BRANCH  11  21
ATOM     21  O   UNL     1       5.355   6.547  16.415  0.00  0.00    +0.000 OA
ATOM     22  C   UNL     1       6.453   7.006  17.202  0.00  0.00    +0.000 C 
ENDBRANCH  11  21
BRANCH   1  23
ATOM     23  O   UNL     1       4.713   3.560  15.938  0.00  0.00    +0.000 OA
BRANCH  23  24
ATOM     24  C   UNL     1       5.996   3.866  15.400  0.00  0.00    +0.000 C 
BRANCH  24  25
ATOM     25  C   UNL     1       5.855   4.538  14.033  0.00  0.00    +0.000 C 
BRANCH  25  26
ATOM     26  N   UNL     1       6.431   3.740  12.928  0.00  0.00    +0.000 NA
BRANCH  26  28
ATOM     27  C   UNL     1       5.825   1.813  11.428  0.00  0.00    +0.000 C 
ATOM     28  C   UNL     1       5.357   3.030  12.219  0.00  0.00    +0.000 C 
ENDBRANCH  26  28
BRANCH  26  29
ATOM     29  C   UNL     1       7.358   4.476  12.058  0.00  0.00    +0.000 C 
ATOM     30  C   UNL     1       8.230   5.526  12.734  0.00  0.00    +0.000 C 
ENDBRANCH  26  29
ENDBRANCH  25  26
ENDBRANCH  24  25
ENDBRANCH  23  24
ENDBRANCH   1  23
TORSDOF 8
ENDMDL
MODEL 5
REMARK VINA RESULT:      -7.0      5.507      9.215
REMARK  Name = 
REMARK  11 active torsions:
REMARK  status: ('A' for Active; 'I' for Inactive)
REMARK    1  A    between atoms: C_1  and  C_2
REMARK    2  A    between atoms: C_2  and  N_3
REMARK    3  A    between atoms: N_3  and  C_4
REMARK    4  A    between atoms: N_3  and  C_6
REMARK    5  A    between atoms: C_4  and  C_5
REMARK    6  A    between atoms: C_6  and  C_7
REMARK    7  A    between atoms: C_7  and  O_8
REMARK    8  A    between atoms: O_8  and  C_9
REMARK    9  A    between atoms: N_16  and  C_17
REMARK   10  A    between atoms: C_27  and  O_28
REMARK   11  A    between atoms: O_28  and  C_29
REMARK                            x       y       z     vdW  Elec       q    Type
REMARK                         _______ _______ _______ _____ _____    ______ ____
ROOT
ATOM      1  C   UNL     1      -0.459  11.044  20.342  0.00  0.00    +0.000 A 
ATOM      2  C   UNL     1       0.236  10.923  19.124  0.00  0.00    +0.000 A 
ATOM      3  C   UNL     1       1.108   9.882  18.844  0.00  0.00    +0.000 A 
ATOM      4  N   UNL     1       1.746   9.845  17.666  0.00  0.00    +0.000 NA
ATOM      5  C   UNL     1       2.549   8.802  17.442  0.00  0.00    +0.000 A 
ATOM      6  N   UNL     1       2.753   7.781  18.281  0.00  0.00    +0.000 NA
ATOM      7  C   UNL     1       2.115   7.826  19.466  0.00  0.00    +0.000 A 
ATOM      8  N   UNL     1       2.241   6.728  20.352  0.00  0.00    +0.000 N 
ATOM      9  C   UNL     1       1.278   8.894  19.817  0.00  0.00    +0.000 A 
ATOM     10  C   UNL     1       0.583   8.997  21.046  0.00  0.00    +0.000 A 
ATOM     11  C   UNL     1      -0.305  10.042  21.302  0.00  0.00    +0.000 A 
ATOM     12  H   UNL     1       2.666   7.013  21.231  0.00  0.00    +0.000 HD
ENDROOT
BRANCH   8  13
ATOM     13  C   UNL     1       2.611   5.423  19.964  0.00  0.00    +0.000 A 
ATOM     14  C   UNL     1       3.910   5.150  19.514  0.00  0.00    +0.000 A 
ATOM     15  C   UNL     1       4.301   3.849  19.203  0.00  0.00    +0.000 A 
ATOM     16  C   UNL     1       3.383   2.810  19.323  0.00  0.00    +0.000 A 
ATOM     17 BR   UNL     1       3.944   1.035  18.999  0.00  0.00    +0.000 Br
ATOM     18  C   UNL     1       2.066   3.064  19.700  0.00  0.00    +0.000 A 
ATOM     19  C   UNL     1       1.690   4.370  20.006  0.00  0.00    +0.000 A 
ATOM     20  F   UNL     1       0.425   4.613  20.380  0.00  0.00    +0.000 F 
ENDBRANCH   8  13
BRANCH  11  21
ATOM     21  O   UNL     1      -0.853  10.000  22.554  0.00  0.00    +0.000 OA
ATOM     22  C   UNL     1      -0.009   9.480  23.579  0.00  0.00    +0.000 C 
ENDBRANCH  11  21
BRANCH   1  23
ATOM     23  O   UNL     1      -1.201  12.191  20.400  0.00  0.00    +0.000 OA
BRANCH  23  24
ATOM     24  C   UNL     1      -1.968  12.563  19.258  0.00  0.00    +0.000 C 
BRANCH  24  25
ATOM     25  C   UNL     1      -3.379  11.981  19.350  0.00  0.00    +0.000 C 
BRANCH  25  26
ATOM     26  N   UNL     1      -3.827  11.332  18.099  0.00  0.00    +0.000 NA
BRANCH  26  28
ATOM     27  C   UNL     1      -6.338  11.187  18.181  0.00  0.00    +0.000 C 
ATOM     28  C   UNL     1      -5.103  11.920  17.666  0.00  0.00    +0.000 C 
ENDBRANCH  26  28
BRANCH  26  29
ATOM     29  C   UNL     1      -2.802  11.251  17.048  0.00  0.00    +0.000 C 
ATOM     30  C   UNL     1      -2.299   9.855  16.702  0.00  0.00    +0.000 C 
ENDBRANCH  26  29
ENDBRANCH  25  26
ENDBRANCH  24  25
ENDBRANCH  23  24
ENDBRANCH   1  23
TORSDOF 8
ENDMDL
MODEL 6
REMARK VINA RESULT:      -7.0      1.324      2.101
REMARK  Name = 
REMARK  11 active torsions:
REMARK  status: ('A' for Active; 'I' for Inactive)
REMARK    1  A    between atoms: C_1  and  C_2
REMARK    2  A    between atoms: C_2  and  N_3
REMARK    3  A    between atoms: N_3  and  C_4
REMARK    4  A    between atoms: N_3  and  C_6
REMARK    5  A    between atoms: C_4  and  C_5
REMARK    6  A    between atoms: C_6  and  C_7
REMARK    7  A    between atoms: C_7  and  O_8
REMARK    8  A    between atoms: O_8  and  C_9
REMARK    9  A    between atoms: N_16  and  C_17
REMARK   10  A    between atoms: C_27  and  O_28
REMARK   11  A    between atoms: O_28  and  C_29
REMARK                            x       y       z     vdW  Elec       q    Type
REMARK                         _______ _______ _______ _____ _____    ______ ____
ROOT
ATOM      1  C   UNL     1       5.669   4.526  16.037  0.00  0.00    +0.000 A 
ATOM      2  C   UNL     1       4.462   3.910  16.416  0.00  0.00    +0.000 A 
ATOM      3  C   UNL     1       3.506   4.530  17.207  0.00  0.00    +0.000 A 
ATOM      4  N   UNL     1       2.387   3.871  17.540  0.00  0.00    +0.000 NA
ATOM      5  C   UNL     1       1.489   4.530  18.277  0.00  0.00    +0.000 A 
ATOM      6  N   UNL     1       1.600   5.797  18.691  0.00  0.00    +0.000 NA
ATOM      7  C   UNL     1       2.729   6.452  18.359  0.00  0.00    +0.000 A 
ATOM      8  N   UNL     1       2.854   7.820  18.710  0.00  0.00    +0.000 N 
ATOM      9  C   UNL     1       3.751   5.842  17.620  0.00  0.00    +0.000 A 
ATOM     10  C   UNL     1       4.958   6.478  17.244  0.00  0.00    +0.000 A 
ATOM     11  C   UNL     1       5.900   5.845  16.431  0.00  0.00    +0.000 A 
ATOM     12  H   UNL     1       3.645   7.968  19.333  0.00  0.00    +0.000 HD
ENDROOT
BRANCH   8  13
ATOM     13  C   UNL     1       1.769   8.677  18.990  0.00  0.00    +0.000 A 
ATOM     14  C   UNL     1       1.190   9.455  17.978  0.00  0.00    +0.000 A 
ATOM     15  C   UNL     1       0.071  10.245  18.235  0.00  0.00    +0.000 A 
ATOM     16  C   UNL     1      -0.467  10.276  19.519  0.00  0.00    +0.000 A 
ATOM     17 BR   UNL     1      -2.044  11.267  19.840  0.00  0.00    +0.000 Br
ATOM     18  C   UNL     1       0.132   9.567  20.558  0.00  0.00    +0.000 A 
ATOM     19  C   UNL     1       1.251   8.784  20.285  0.00  0.00    +0.000 A 
ATOM     20  F   UNL     1       1.822   8.093  21.284  0.00  0.00    +0.000 F 
ENDBRANCH   8  13
BRANCH  11  21
ATOM     21  O   UNL     1       7.020   6.596  16.205  0.00  0.00    +0.000 OA
ATOM     22  C   UNL     1       7.535   7.291  17.338  0.00  0.00    +0.000 C 
ENDBRANCH  11  21
BRANCH   1  23
ATOM     23  O   UNL     1       6.472   3.685  15.317  0.00  0.00    +0.000 OA
BRANCH  23  24
ATOM     24  C   UNL     1       6.693   3.970  13.939  0.00  0.00    +0.000 C 
BRANCH  24  25
ATOM     25  C   UNL     1       5.362   4.030  13.187  0.00  0.00    +0.000 C 
BRANCH  25  26
ATOM     26  N   UNL     1       5.374   3.272  11.917  0.00  0.00    +0.000 NA
BRANCH  26  28
ATOM     27  C   UNL     1       6.815   1.592  10.721  0.00  0.00    +0.000 C 
ATOM     28  C   UNL     1       6.261   2.107  12.045  0.00  0.00    +0.000 C 
ENDBRANCH  26  28
BRANCH  26  29
ATOM     29  C   UNL     1       4.044   2.973  11.368  0.00  0.00    +0.000 C 
ATOM     30  C   UNL     1       3.563   3.873  10.236  0.00  0.00    +0.000 C 
ENDBRANCH  26  29
ENDBRANCH  25  26
ENDBRANCH  24  25
ENDBRANCH  23  24
ENDBRANCH   1  23
TORSDOF 8
ENDMDL
MODEL 7
REMARK VINA RESULT:      -6.9      3.148      4.821
REMARK  Name = 
REMARK  11 active torsions:
REMARK  status: ('A' for Active; 'I' for Inactive)
REMARK    1  A    between atoms: C_1  and  C_2
REMARK    2  A    between atoms: C_2  and  N_3
REMARK    3  A    between atoms: N_3  and  C_4
REMARK    4  A    between atoms: N_3  and  C_6
REMARK    5  A    between atoms: C_4  and  C_5
REMARK    6  A    between atoms: C_6  and  C_7
REMARK    7  A    between atoms: C_7  and  O_8
REMARK    8  A    between atoms: O_8  and  C_9
REMARK    9  A    between atoms: N_16  and  C_17
REMARK   10  A    between atoms: C_27  and  O_28
REMARK   11  A    between atoms: O_28  and  C_29
REMARK                            x       y       z     vdW  Elec       q    Type
REMARK                         _______ _______ _______ _____ _____    ______ ____
ROOT
ATOM      1  C   UNL     1       3.455   5.038  19.668  0.00  0.00    +0.000 A 
ATOM      2  C   UNL     1       3.561   6.100  18.751  0.00  0.00    +0.000 A 
ATOM      3  C   UNL     1       2.738   7.216  18.780  0.00  0.00    +0.000 A 
ATOM      4  N   UNL     1       2.891   8.180  17.861  0.00  0.00    +0.000 NA
ATOM      5  C   UNL     1       2.090   9.244  17.958  0.00  0.00    +0.000 A 
ATOM      6  N   UNL     1       1.166   9.441  18.904  0.00  0.00    +0.000 NA
ATOM      7  C   UNL     1       1.012   8.466  19.821  0.00  0.00    +0.000 A 
ATOM      8  N   UNL     1       0.100   8.668  20.887  0.00  0.00    +0.000 N 
ATOM      9  C   UNL     1       1.775   7.291  19.789  0.00  0.00    +0.000 A 
ATOM     10  C   UNL     1       1.658   6.234  20.722  0.00  0.00    +0.000 A 
ATOM     11  C   UNL     1       2.508   5.128  20.690  0.00  0.00    +0.000 A 
ATOM     12  H   UNL     1      -0.639   7.969  20.873  0.00  0.00    +0.000 HD
ENDROOT
BRANCH   8  13
ATOM     13  C   UNL     1      -0.349   9.930  21.329  0.00  0.00    +0.000 A 
ATOM     14  C   UNL     1      -0.643  10.949  20.412  0.00  0.00    +0.000 A 
ATOM     15  C   UNL     1      -1.159  12.170  20.841  0.00  0.00    +0.000 A 
ATOM     16  C   UNL     1      -1.368  12.387  22.200  0.00  0.00    +0.000 A 
ATOM     17 BR   UNL     1      -2.163  14.004  22.769  0.00  0.00    +0.000 Br
ATOM     18  C   UNL     1      -1.019  11.418  23.137  0.00  0.00    +0.000 A 
ATOM     19  C   UNL     1      -0.502  10.203  22.693  0.00  0.00    +0.000 A 
ATOM     20  F   UNL     1      -0.175   9.265  23.595  0.00  0.00    +0.000 F 
ENDBRANCH   8  13
BRANCH  11  21
ATOM     21  O   UNL     1       2.221   4.189  21.642  0.00  0.00    +0.000 OA
ATOM     22  C   UNL     1       1.367   3.127  21.223  0.00  0.00    +0.000 C 
ENDBRANCH  11  21
BRANCH   1  23
ATOM     23  O   UNL     1       4.332   4.026  19.388  0.00  0.00    +0.000 OA
BRANCH  23  24
ATOM     24  C   UNL     1       5.164   4.148  18.238  0.00  0.00    +0.000 C 
BRANCH  24  25
ATOM     25  C   UNL     1       6.473   4.852  18.599  0.00  0.00    +0.000 C 
BRANCH  25  26
ATOM     26  N   UNL     1       7.216   5.344  17.419  0.00  0.00    +0.000 NA
BRANCH  26  28
ATOM     27  C   UNL     1       6.632   4.985  14.997  0.00  0.00    +0.000 C 
ATOM     28  C   UNL     1       7.092   4.377  16.318  0.00  0.00    +0.000 C 
ENDBRANCH  26  28
BRANCH  26  29
ATOM     29  C   UNL     1       6.928   6.736  17.047  0.00  0.00    +0.000 C 
ATOM     30  C   UNL     1       7.757   7.807  17.746  0.00  0.00    +0.000 C 
ENDBRANCH  26  29
ENDBRANCH  25  26
ENDBRANCH  24  25
ENDBRANCH  23  24
ENDBRANCH   1  23
TORSDOF 8
ENDMDL
MODEL 8
REMARK VINA RESULT:      -6.9      2.763      4.614
REMARK  Name = 
REMARK  11 active torsions:
REMARK  status: ('A' for Active; 'I' for Inactive)
REMARK    1  A    between atoms: C_1  and  C_2
REMARK    2  A    between atoms: C_2  and  N_3
REMARK    3  A    between atoms: N_3  and  C_4
REMARK    4  A    between atoms: N_3  and  C_6
REMARK    5  A    between atoms: C_4  and  C_5
REMARK    6  A    between atoms: C_6  and  C_7
REMARK    7  A    between atoms: C_7  and  O_8
REMARK    8  A    between atoms: O_8  and  C_9
REMARK    9  A    between atoms: N_16  and  C_17
REMARK   10  A    between atoms: C_27  and  O_28
REMARK   11  A    between atoms: O_28  and  C_29
REMARK                            x       y       z     vdW  Elec       q    Type
REMARK                         _______ _______ _______ _____ _____    ______ ____
ROOT
ATOM      1  C   UNL     1       3.391   5.596  19.328  0.00  0.00    +0.000 A 
ATOM      2  C   UNL     1       3.417   6.682  18.433  0.00  0.00    +0.000 A 
ATOM      3  C   UNL     1       2.563   7.770  18.529  0.00  0.00    +0.000 A 
ATOM      4  N   UNL     1       2.639   8.759  17.628  0.00  0.00    +0.000 NA
ATOM      5  C   UNL     1       1.812   9.795  17.790  0.00  0.00    +0.000 A 
ATOM      6  N   UNL     1       0.931   9.940  18.785  0.00  0.00    +0.000 NA
ATOM      7  C   UNL     1       0.854   8.941  19.685  0.00  0.00    +0.000 A 
ATOM      8  N   UNL     1      -0.009   9.089  20.799  0.00  0.00    +0.000 N 
ATOM      9  C   UNL     1       1.650   7.792  19.586  0.00  0.00    +0.000 A 
ATOM     10  C   UNL     1       1.613   6.710  20.499  0.00  0.00    +0.000 A 
ATOM     11  C   UNL     1       2.494   5.633  20.397  0.00  0.00    +0.000 A 
ATOM     12  H   UNL     1      -0.726   8.367  20.806  0.00  0.00    +0.000 HD
ENDROOT
BRANCH   8  13
ATOM     13  C   UNL     1      -0.474  10.325  21.294  0.00  0.00    +0.000 A 
ATOM     14  C   UNL     1      -0.786  11.376  20.420  0.00  0.00    +0.000 A 
ATOM     15  C   UNL     1      -1.318  12.571  20.899  0.00  0.00    +0.000 A 
ATOM     16  C   UNL     1      -1.523  12.731  22.267  0.00  0.00    +0.000 A 
ATOM     17 BR   UNL     1      -2.339  14.312  22.904  0.00  0.00    +0.000 Br
ATOM     18  C   UNL     1      -1.157  11.730  23.163  0.00  0.00    +0.000 A 
ATOM     19  C   UNL     1      -0.624  10.541  22.668  0.00  0.00    +0.000 A 
ATOM     20  F   UNL     1      -0.281   9.572  23.531  0.00  0.00    +0.000 F 
ENDBRANCH   8  13
BRANCH  11  21
ATOM     21  O   UNL     1       2.284   4.664  21.340  0.00  0.00    +0.000 OA
ATOM     22  C   UNL     1       1.479   3.564  20.923  0.00  0.00    +0.000 C 
ENDBRANCH  11  21
BRANCH   1  23
ATOM     23  O   UNL     1       4.283   4.620  18.980  0.00  0.00    +0.000 OA
BRANCH  23  24
ATOM     24  C   UNL     1       4.364   4.229  17.613  0.00  0.00    +0.000 C 
BRANCH  24  25
ATOM     25  C   UNL     1       5.823   4.183  17.156  0.00  0.00    +0.000 C 
BRANCH  25  26
ATOM     26  N   UNL     1       6.193   5.304  16.266  0.00  0.00    +0.000 NA
BRANCH  26  28
ATOM     27  C   UNL     1       7.585   5.895  18.278  0.00  0.00    +0.000 C 
ATOM     28  C   UNL     1       6.812   6.378  17.055  0.00  0.00    +0.000 C 
ENDBRANCH  26  28
BRANCH  26  29
ATOM     29  C   UNL     1       6.945   4.913  15.066  0.00  0.00    +0.000 C 
ATOM     30  C   UNL     1       6.211   4.026  14.067  0.00  0.00    +0.000 C 
ENDBRANCH  26  29
ENDBRANCH  25  26
ENDBRANCH  24  25
ENDBRANCH  23  24
ENDBRANCH   1  23
TORSDOF 8
ENDMDL
MODEL 9
REMARK VINA RESULT:      -6.8      5.516      9.077
REMARK  Name = 
REMARK  11 active torsions:
REMARK  status: ('A' for Active; 'I' for Inactive)
REMARK    1  A    between atoms: C_1  and  C_2
REMARK    2  A    between atoms: C_2  and  N_3
REMARK    3  A    between atoms: N_3  and  C_4
REMARK    4  A    between atoms: N_3  and  C_6
REMARK    5  A    between atoms: C_4  and  C_5
REMARK    6  A    between atoms: C_6  and  C_7
REMARK    7  A    between atoms: C_7  and  O_8
REMARK    8  A    between atoms: O_8  and  C_9
REMARK    9  A    between atoms: N_16  and  C_17
REMARK   10  A    between atoms: C_27  and  O_28
REMARK   11  A    between atoms: O_28  and  C_29
REMARK                            x       y       z     vdW  Elec       q    Type
REMARK                         _______ _______ _______ _____ _____    ______ ____
ROOT
ATOM      1  C   UNL     1      -0.411  11.099  20.267  0.00  0.00    +0.000 A 
ATOM      2  C   UNL     1       0.308  10.965  19.065  0.00  0.00    +0.000 A 
ATOM      3  C   UNL     1       1.174   9.912  18.808  0.00  0.00    +0.000 A 
ATOM      4  N   UNL     1       1.836   9.863  17.644  0.00  0.00    +0.000 NA
ATOM      5  C   UNL     1       2.631   8.809  17.441  0.00  0.00    +0.000 A 
ATOM      6  N   UNL     1       2.805   7.789  18.288  0.00  0.00    +0.000 NA
ATOM      7  C   UNL     1       2.142   7.847  19.459  0.00  0.00    +0.000 A 
ATOM      8  N   UNL     1       2.236   6.751  20.352  0.00  0.00    +0.000 N 
ATOM      9  C   UNL     1       1.311   8.926  19.788  0.00  0.00    +0.000 A 
ATOM     10  C   UNL     1       0.592   9.043  21.002  0.00  0.00    +0.000 A 
ATOM     11  C   UNL     1      -0.290  10.099  21.234  0.00  0.00    +0.000 A 
ATOM     12  H   UNL     1       2.646   7.034  21.239  0.00  0.00    +0.000 HD
ENDROOT
BRANCH   8  13
ATOM     13  C   UNL     1       2.599   5.440  19.977  0.00  0.00    +0.000 A 
ATOM     14  C   UNL     1       3.900   5.153  19.541  0.00  0.00    +0.000 A 
ATOM     15  C   UNL     1       4.283   3.847  19.243  0.00  0.00    +0.000 A 
ATOM     16  C   UNL     1       3.354   2.816  19.362  0.00  0.00    +0.000 A 
ATOM     17 BR   UNL     1       3.904   1.034  19.056  0.00  0.00    +0.000 Br
ATOM     18  C   UNL     1       2.037   3.083  19.725  0.00  0.00    +0.000 A 
ATOM     19  C   UNL     1       1.669   4.395  20.018  0.00  0.00    +0.000 A 
ATOM     20  F   UNL     1       0.402   4.652  20.378  0.00  0.00    +0.000 F 
ENDBRANCH   8  13
BRANCH  11  21
ATOM     21  O   UNL     1      -0.864  10.068  22.475  0.00  0.00    +0.000 OA
ATOM     22  C   UNL     1      -0.071   9.488  23.507  0.00  0.00    +0.000 C 
ENDBRANCH  11  21
BRANCH   1  23
ATOM     23  O   UNL     1      -1.141  12.255  20.305  0.00  0.00    +0.000 OA
BRANCH  23  24
ATOM     24  C   UNL     1      -1.880  12.629  19.147  0.00  0.00    +0.000 C 
BRANCH  24  25
ATOM     25  C   UNL     1      -2.819  11.498  18.724  0.00  0.00    +0.000 C 
BRANCH  25  26
ATOM     26  N   UNL     1      -3.094  11.479  17.271  0.00  0.00    +0.000 NA
BRANCH  26  28
ATOM     27  C   UNL     1      -3.024   9.904  15.310  0.00  0.00    +0.000 C 
ATOM     28  C   UNL     1      -2.441  10.314  16.659  0.00  0.00    +0.000 C 
ENDBRANCH  26  28
BRANCH  26  29
ATOM     29  C   UNL     1      -4.509  11.649  16.911  0.00  0.00    +0.000 C 
ATOM     30  C   UNL     1      -5.447  12.062  18.039  0.00  0.00    +0.000 C 
ENDBRANCH  26  29
ENDBRANCH  25  26
ENDBRANCH  24  25
ENDBRANCH  23  24
ENDBRANCH   1  23
TORSDOF 8
ENDMDL
